MODEL 1
REMARK VINA RESULT:      -6.6      0.000      0.000
REMARK  9 active torsions:
REMARK  status: ('A' for Active; 'I' for Inactive)
REMARK    1  A    between atoms: C_2  and  C_4 
REMARK    2  A    between atoms: C_4  and  C_5 
REMARK    3  A    between atoms: C_4  and  N_19 
REMARK    4  A    between atoms: C_5  and  C_15 
REMARK    5  A    between atoms: N_13  and  C_17 
REMARK    6  A    between atoms: C_16  and  C_17 
REMARK    7  A    between atoms: C_16  and  C_23 
REMARK    8  A    between atoms: C_17  and  C_18 
REMARK       I    between atoms: C_18  and  N_19 
REMARK    9  A    between atoms: C_23  and  C_24 
ROOT
HETATM    1  O           1     -19.555  -6.693  -6.985  0.00  0.00    -0.271 OA
HETATM    2  C           1     -20.448  -6.771  -6.174  0.00  0.00     0.249 C 
HETATM    3  N           1     -20.810  -7.991  -5.670  0.00  0.00    -0.344 N 
HETATM    4  H           1     -21.526  -8.536  -6.132  0.00  0.00     0.163 HD
ENDROOT
BRANCH   3   5
HETATM    5  C           1     -20.169  -8.500  -4.474  0.00  0.00     0.189 C 
BRANCH   5   6
HETATM    6  C           1     -18.948  -9.299  -4.859  0.00  0.00     0.197 C 
HETATM    7  O           1     -17.973  -9.364  -4.081  0.00  0.00    -0.646 OA
HETATM    8  O           1     -18.913  -9.895  -5.957  0.00  0.00    -0.646 OA
ENDBRANCH   5   6
BRANCH   5   9
HETATM    9  C           1     -21.144  -9.394  -3.717  0.00  0.00     0.074 C 
BRANCH   9  10
HETATM   10  C           1     -21.628  -8.682  -2.494  0.00  0.00    -0.056 A 
HETATM   11  C           1     -21.693  -7.288  -2.478  0.00  0.00     0.007 A 
HETATM   12  C           1     -22.145  -6.625  -1.337  0.00  0.00     0.001 A 
HETATM   13  C           1     -22.532  -7.354  -0.212  0.00  0.00     0.000 A 
HETATM   14  C           1     -22.468  -8.748  -0.229  0.00  0.00     0.001 A 
HETATM   15  C           1     -22.016  -9.411  -1.370  0.00  0.00     0.007 A 
ENDBRANCH   9  10
ENDBRANCH   5   9
ENDBRANCH   3   5
BRANCH   2  16
HETATM   16  C           1     -21.161  -5.523  -5.716  0.00  0.00     0.275 C 
BRANCH  16  17
HETATM   17  N           1     -20.153  -4.453  -5.416  0.00  0.00    -0.066 N 
HETATM   18  H           1     -19.336  -4.873  -4.919  0.00  0.00     0.275 HD
HETATM   19  H           1     -19.831  -4.018  -6.310  0.00  0.00     0.275 HD
HETATM   20  H           1     -20.591  -3.722  -4.810  0.00  0.00     0.275 HD
ENDBRANCH  16  17
BRANCH  16  21
HETATM   21  C           1     -22.100  -5.041  -6.815  0.00  0.00     0.053 C 
BRANCH  21  22
HETATM   22  C           1     -21.535  -3.777  -7.448  0.00  0.00     0.115 C 
BRANCH  22  23
HETATM   23  C           1     -21.334  -4.000  -8.927  0.00  0.00     0.172 C 
HETATM   24  O           1     -22.226  -3.664  -9.736  0.00  0.00    -0.648 OA
HETATM   25  O           1     -20.276  -4.520  -9.343  0.00  0.00    -0.648 OA
ENDBRANCH  22  23
ENDBRANCH  21  22
ENDBRANCH  16  21
ENDBRANCH   2  16
TORSDOF 9
ENDMDL
MODEL 2
REMARK VINA RESULT:      -6.6     15.114     18.305
REMARK  9 active torsions:
REMARK  status: ('A' for Active; 'I' for Inactive)
REMARK    1  A    between atoms: C_2  and  C_4 
REMARK    2  A    between atoms: C_4  and  C_5 
REMARK    3  A    between atoms: C_4  and  N_19 
REMARK    4  A    between atoms: C_5  and  C_15 
REMARK    5  A    between atoms: N_13  and  C_17 
REMARK    6  A    between atoms: C_16  and  C_17 
REMARK    7  A    between atoms: C_16  and  C_23 
REMARK    8  A    between atoms: C_17  and  C_18 
REMARK       I    between atoms: C_18  and  N_19 
REMARK    9  A    between atoms: C_23  and  C_24 
ROOT
HETATM    1  O           1     -33.604  -1.722 -10.174  0.00  0.00    -0.271 OA
HETATM    2  C           1     -34.711  -1.996 -10.573  0.00  0.00     0.249 C 
HETATM    3  N           1     -35.801  -1.342 -10.066  0.00  0.00    -0.344 N 
HETATM    4  H           1     -36.279  -1.710  -9.255  0.00  0.00     0.163 HD
ENDROOT
BRANCH   3   5
HETATM    5  C           1     -36.272  -0.123 -10.695  0.00  0.00     0.189 C 
BRANCH   5   6
HETATM    6  C           1     -36.949   0.745  -9.664  0.00  0.00     0.197 C 
HETATM    7  O           1     -36.386   0.974  -8.572  0.00  0.00    -0.646 OA
HETATM    8  O           1     -38.075   1.234  -9.901  0.00  0.00    -0.646 OA
ENDBRANCH   5   6
BRANCH   5   9
HETATM    9  C           1     -37.263  -0.471 -11.798  0.00  0.00     0.074 C 
BRANCH   9  10
HETATM   10  C           1     -36.727  -0.008 -13.116  0.00  0.00    -0.056 A 
HETATM   11  C           1     -35.428   0.493 -13.204  0.00  0.00     0.007 A 
HETATM   12  C           1     -34.928   0.923 -14.433  0.00  0.00     0.001 A 
HETATM   13  C           1     -35.727   0.853 -15.574  0.00  0.00     0.000 A 
HETATM   14  C           1     -37.026   0.351 -15.487  0.00  0.00     0.001 A 
HETATM   15  C           1     -37.525  -0.080 -14.258  0.00  0.00     0.007 A 
ENDBRANCH   9  10
ENDBRANCH   5   9
ENDBRANCH   3   5
BRANCH   2  16
HETATM   16  C           1     -34.890  -3.058 -11.629  0.00  0.00     0.275 C 
BRANCH  16  17
HETATM   17  N           1     -33.570  -3.341 -12.282  0.00  0.00    -0.066 N 
HETATM   18  H           1     -33.306  -2.539 -12.898  0.00  0.00     0.275 HD
HETATM   19  H           1     -32.839  -3.472 -11.547  0.00  0.00     0.275 HD
HETATM   20  H           1     -33.645  -4.210 -12.857  0.00  0.00     0.275 HD
ENDBRANCH  16  17
BRANCH  16  21
HETATM   21  C           1     -35.421  -4.332 -10.985  0.00  0.00     0.053 C 
BRANCH  21  22
HETATM   22  C           1     -34.256  -5.158 -10.457  0.00  0.00     0.115 C 
BRANCH  22  23
HETATM   23  C           1     -34.663  -6.609 -10.375  0.00  0.00     0.172 C 
HETATM   24  O           1     -34.924  -7.245 -11.419  0.00  0.00    -0.648 OA
HETATM   25  O           1     -34.740  -7.175  -9.262  0.00  0.00    -0.648 OA
ENDBRANCH  22  23
ENDBRANCH  21  22
ENDBRANCH  16  21
ENDBRANCH   2  16
TORSDOF 9
ENDMDL
MODEL 3
REMARK VINA RESULT:      -6.4      2.793      6.990
REMARK  9 active torsions:
REMARK  status: ('A' for Active; 'I' for Inactive)
REMARK    1  A    between atoms: C_2  and  C_4 
REMARK    2  A    between atoms: C_4  and  C_5 
REMARK    3  A    between atoms: C_4  and  N_19 
REMARK    4  A    between atoms: C_5  and  C_15 
REMARK    5  A    between atoms: N_13  and  C_17 
REMARK    6  A    between atoms: C_16  and  C_17 
REMARK    7  A    between atoms: C_16  and  C_23 
REMARK    8  A    between atoms: C_17  and  C_18 
REMARK       I    between atoms: C_18  and  N_19 
REMARK    9  A    between atoms: C_23  and  C_24 
ROOT
HETATM    1  O           1     -21.538  -5.270  -2.280  0.00  0.00    -0.271 OA
HETATM    2  C           1     -21.941  -6.332  -2.693  0.00  0.00     0.249 C 
HETATM    3  N           1     -22.552  -6.402  -3.915  0.00  0.00    -0.344 N 
HETATM    4  H           1     -23.554  -6.282  -3.987  0.00  0.00     0.163 HD
ENDROOT
BRANCH   3   5
HETATM    5  C           1     -21.764  -6.650  -5.107  0.00  0.00     0.189 C 
BRANCH   5   6
HETATM    6  C           1     -20.984  -7.930  -4.935  0.00  0.00     0.197 C 
HETATM    7  O           1     -19.749  -7.889  -4.749  0.00  0.00    -0.646 OA
HETATM    8  O           1     -21.573  -9.032  -4.980  0.00  0.00    -0.646 OA
ENDBRANCH   5   6
BRANCH   5   9
HETATM    9  C           1     -20.800  -5.492  -5.328  0.00  0.00     0.074 C 
BRANCH   9  10
HETATM   10  C           1     -20.923  -5.001  -6.736  0.00  0.00    -0.056 A 
HETATM   11  C           1     -19.833  -5.087  -7.603  0.00  0.00     0.007 A 
HETATM   12  C           1     -19.949  -4.629  -8.916  0.00  0.00     0.001 A 
HETATM   13  C           1     -21.154  -4.086  -9.362  0.00  0.00     0.000 A 
HETATM   14  C           1     -22.244  -4.001  -8.496  0.00  0.00     0.001 A 
HETATM   15  C           1     -22.128  -4.459  -7.183  0.00  0.00     0.007 A 
ENDBRANCH   9  10
ENDBRANCH   5   9
ENDBRANCH   3   5
BRANCH   2  16
HETATM   16  C           1     -21.769  -7.579  -1.862  0.00  0.00     0.275 C 
BRANCH  16  17
HETATM   17  N           1     -20.308  -7.834  -1.640  0.00  0.00    -0.066 N 
HETATM   18  H           1     -19.853  -8.071  -2.550  0.00  0.00     0.275 HD
HETATM   19  H           1     -19.861  -6.978  -1.241  0.00  0.00     0.275 HD
HETATM   20  H           1     -20.190  -8.631  -0.975  0.00  0.00     0.275 HD
ENDBRANCH  16  17
BRANCH  16  21
HETATM   21  C           1     -22.461  -7.394  -0.518  0.00  0.00     0.053 C 
BRANCH  21  22
HETATM   22  C           1     -22.049  -8.517   0.425  0.00  0.00     0.115 C 
BRANCH  22  23
HETATM   23  C           1     -22.571  -9.832  -0.100  0.00  0.00     0.172 C 
HETATM   24  O           1     -21.781 -10.666  -0.592  0.00  0.00    -0.648 OA
HETATM   25  O           1     -23.794 -10.088  -0.043  0.00  0.00    -0.648 OA
ENDBRANCH  22  23
ENDBRANCH  21  22
ENDBRANCH  16  21
ENDBRANCH   2  16
TORSDOF 9
ENDMDL
MODEL 4
REMARK VINA RESULT:      -6.3     21.795     23.648
REMARK  9 active torsions:
REMARK  status: ('A' for Active; 'I' for Inactive)
REMARK    1  A    between atoms: C_2  and  C_4 
REMARK    2  A    between atoms: C_4  and  C_5 
REMARK    3  A    between atoms: C_4  and  N_19 
REMARK    4  A    between atoms: C_5  and  C_15 
REMARK    5  A    between atoms: N_13  and  C_17 
REMARK    6  A    between atoms: C_16  and  C_17 
REMARK    7  A    between atoms: C_16  and  C_23 
REMARK    8  A    between atoms: C_17  and  C_18 
REMARK       I    between atoms: C_18  and  N_19 
REMARK    9  A    between atoms: C_23  and  C_24 
ROOT
HETATM    1  O           1     -13.494   7.342 -22.089  0.00  0.00    -0.271 OA
HETATM    2  C           1     -12.548   7.142 -21.365  0.00  0.00     0.249 C 
HETATM    3  N           1     -11.510   8.033 -21.334  0.00  0.00    -0.344 N 
HETATM    4  H           1     -10.727   7.920 -21.964  0.00  0.00     0.163 HD
ENDROOT
BRANCH   3   5
HETATM    5  C           1     -11.532   9.139 -20.396  0.00  0.00     0.189 C 
BRANCH   5   6
HETATM    6  C           1     -10.153   9.331 -19.814  0.00  0.00     0.197 C 
HETATM    7  O           1      -9.948   9.105 -18.602  0.00  0.00    -0.646 OA
HETATM    8  O           1      -9.215   9.718 -20.545  0.00  0.00    -0.646 OA
ENDBRANCH   5   6
BRANCH   5   9
HETATM    9  C           1     -12.518   8.836 -19.276  0.00  0.00     0.074 C 
BRANCH   9  10
HETATM   10  C           1     -13.368  10.040 -19.019  0.00  0.00    -0.056 A 
HETATM   11  C           1     -13.431  11.064 -19.965  0.00  0.00     0.007 A 
HETATM   12  C           1     -14.224  12.187 -19.725  0.00  0.00     0.001 A 
HETATM   13  C           1     -14.953  12.286 -18.540  0.00  0.00     0.000 A 
HETATM   14  C           1     -14.891  11.262 -17.595  0.00  0.00     0.001 A 
HETATM   15  C           1     -14.098  10.139 -17.835  0.00  0.00     0.007 A 
ENDBRANCH   9  10
ENDBRANCH   5   9
ENDBRANCH   3   5
BRANCH   2  16
HETATM   16  C           1     -12.513   5.911 -20.494  0.00  0.00     0.275 C 
BRANCH  16  17
HETATM   17  N           1     -13.871   5.276 -20.471  0.00  0.00    -0.066 N 
HETATM   18  H           1     -14.440   5.640 -21.268  0.00  0.00     0.275 HD
HETATM   19  H           1     -13.773   4.239 -20.557  0.00  0.00     0.275 HD
HETATM   20  H           1     -14.349   5.508 -19.570  0.00  0.00     0.275 HD
ENDBRANCH  16  17
BRANCH  16  21
HETATM   21  C           1     -11.500   4.921 -21.054  0.00  0.00     0.053 C 
BRANCH  21  22
HETATM   22  C           1     -10.618   4.403 -19.925  0.00  0.00     0.115 C 
BRANCH  22  23
HETATM   23  C           1      -9.752   5.525 -19.407  0.00  0.00     0.172 C 
HETATM   24  O           1      -9.799   5.843 -18.199  0.00  0.00    -0.648 OA
HETATM   25  O           1      -8.989   6.137 -20.185  0.00  0.00    -0.648 OA
ENDBRANCH  22  23
ENDBRANCH  21  22
ENDBRANCH  16  21
ENDBRANCH   2  16
TORSDOF 9
ENDMDL
MODEL 5
REMARK VINA RESULT:      -6.3      3.409      4.801
REMARK  9 active torsions:
REMARK  status: ('A' for Active; 'I' for Inactive)
REMARK    1  A    between atoms: C_2  and  C_4 
REMARK    2  A    between atoms: C_4  and  C_5 
REMARK    3  A    between atoms: C_4  and  N_19 
REMARK    4  A    between atoms: C_5  and  C_15 
REMARK    5  A    between atoms: N_13  and  C_17 
REMARK    6  A    between atoms: C_16  and  C_17 
REMARK    7  A    between atoms: C_16  and  C_23 
REMARK    8  A    between atoms: C_17  and  C_18 
REMARK       I    between atoms: C_18  and  N_19 
REMARK    9  A    between atoms: C_23  and  C_24 
ROOT
HETATM    1  O           1     -18.718 -11.233  -4.084  0.00  0.00    -0.271 OA
HETATM    2  C           1     -19.477 -10.588  -3.402  0.00  0.00     0.249 C 
HETATM    3  N           1     -20.058 -11.156  -2.300  0.00  0.00    -0.344 N 
HETATM    4  H           1     -20.945 -11.634  -2.386  0.00  0.00     0.163 HD
ENDROOT
BRANCH   3   5
HETATM    5  C           1     -19.402 -11.071  -1.010  0.00  0.00     0.189 C 
BRANCH   5   6
HETATM    6  C           1     -18.233 -12.025  -0.977  0.00  0.00     0.197 C 
HETATM    7  O           1     -18.422 -13.251  -1.127  0.00  0.00    -0.646 OA
HETATM    8  O           1     -17.075 -11.588  -0.798  0.00  0.00    -0.646 OA
ENDBRANCH   5   6
BRANCH   5   9
HETATM    9  C           1     -20.391 -11.440   0.088  0.00  0.00     0.074 C 
BRANCH   9  10
HETATM   10  C           1     -21.356 -10.315   0.291  0.00  0.00    -0.056 A 
HETATM   11  C           1     -20.940  -9.146   0.930  0.00  0.00     0.007 A 
HETATM   12  C           1     -21.840  -8.097   1.118  0.00  0.00     0.001 A 
HETATM   13  C           1     -23.155  -8.215   0.667  0.00  0.00     0.000 A 
HETATM   14  C           1     -23.570  -9.383   0.027  0.00  0.00     0.001 A 
HETATM   15  C           1     -22.670 -10.433  -0.161  0.00  0.00     0.007 A 
ENDBRANCH   9  10
ENDBRANCH   5   9
ENDBRANCH   3   5
BRANCH   2  16
HETATM   16  C           1     -19.784  -9.156  -3.763  0.00  0.00     0.275 C 
BRANCH  16  17
HETATM   17  N           1     -19.946  -9.039  -5.249  0.00  0.00    -0.066 N 
HETATM   18  H           1     -20.115  -8.040  -5.505  0.00  0.00     0.275 HD
HETATM   19  H           1     -19.078  -9.378  -5.722  0.00  0.00     0.275 HD
HETATM   20  H           1     -20.760  -9.618  -5.558  0.00  0.00     0.275 HD
ENDBRANCH  16  17
BRANCH  16  21
HETATM   21  C           1     -21.073  -8.723  -3.077  0.00  0.00     0.053 C 
BRANCH  21  22
HETATM   22  C           1     -20.827  -7.437  -2.299  0.00  0.00     0.115 C 
BRANCH  22  23
HETATM   23  C           1     -21.767  -6.363  -2.790  0.00  0.00     0.172 C 
HETATM   24  O           1     -22.683  -5.947  -2.049  0.00  0.00    -0.648 OA
HETATM   25  O           1     -21.629  -5.889  -3.939  0.00  0.00    -0.648 OA
ENDBRANCH  22  23
ENDBRANCH  21  22
ENDBRANCH  16  21
ENDBRANCH   2  16
TORSDOF 9
ENDMDL
MODEL 6
REMARK VINA RESULT:      -6.2      3.131      4.803
REMARK  9 active torsions:
REMARK  status: ('A' for Active; 'I' for Inactive)
REMARK    1  A    between atoms: C_2  and  C_4 
REMARK    2  A    between atoms: C_4  and  C_5 
REMARK    3  A    between atoms: C_4  and  N_19 
REMARK    4  A    between atoms: C_5  and  C_15 
REMARK    5  A    between atoms: N_13  and  C_17 
REMARK    6  A    between atoms: C_16  and  C_17 
REMARK    7  A    between atoms: C_16  and  C_23 
REMARK    8  A    between atoms: C_17  and  C_18 
REMARK       I    between atoms: C_18  and  N_19 
REMARK    9  A    between atoms: C_23  and  C_24 
ROOT
HETATM    1  O           1     -19.509  -3.729  -9.469  0.00  0.00    -0.271 OA
HETATM    2  C           1     -20.568  -4.304  -9.541  0.00  0.00     0.249 C 
HETATM    3  N           1     -20.742  -5.501  -8.900  0.00  0.00    -0.344 N 
HETATM    4  H           1     -20.528  -6.366  -9.378  0.00  0.00     0.163 HD
ENDROOT
BRANCH   3   5
HETATM    5  C           1     -21.233  -5.528  -7.536  0.00  0.00     0.189 C 
BRANCH   5   6
HETATM    6  C           1     -22.028  -4.275  -7.264  0.00  0.00     0.197 C 
HETATM    7  O           1     -23.275  -4.297  -7.338  0.00  0.00    -0.646 OA
HETATM    8  O           1     -21.438  -3.214  -6.964  0.00  0.00    -0.646 OA
ENDBRANCH   5   6
BRANCH   5   9
HETATM    9  C           1     -20.055  -5.603  -6.573  0.00  0.00     0.074 C 
BRANCH   9  10
HETATM   10  C           1     -20.431  -6.435  -5.388  0.00  0.00    -0.056 A 
HETATM   11  C           1     -20.073  -7.783  -5.339  0.00  0.00     0.007 A 
HETATM   12  C           1     -20.423  -8.558  -4.233  0.00  0.00     0.001 A 
HETATM   13  C           1     -21.131  -7.986  -3.176  0.00  0.00     0.000 A 
HETATM   14  C           1     -21.488  -6.638  -3.224  0.00  0.00     0.001 A 
HETATM   15  C           1     -21.138  -5.863  -4.330  0.00  0.00     0.007 A 
ENDBRANCH   9  10
ENDBRANCH   5   9
ENDBRANCH   3   5
BRANCH   2  16
HETATM   16  C           1     -21.700  -3.703 -10.337  0.00  0.00     0.275 C 
BRANCH  16  17
HETATM   17  N           1     -21.143  -2.782 -11.381  0.00  0.00    -0.066 N 
HETATM   18  H           1     -20.504  -3.316 -12.012  0.00  0.00     0.275 HD
HETATM   19  H           1     -21.926  -2.376 -11.941  0.00  0.00     0.275 HD
HETATM   20  H           1     -20.609  -2.013 -10.917  0.00  0.00     0.275 HD
ENDBRANCH  16  17
BRANCH  16  21
HETATM   21  C           1     -22.493  -4.815 -11.013  0.00  0.00     0.053 C 
BRANCH  21  22
HETATM   22  C           1     -23.921  -4.815 -10.482  0.00  0.00     0.115 C 
BRANCH  22  23
HETATM   23  C           1     -24.530  -3.447 -10.671  0.00  0.00     0.172 C 
HETATM   24  O           1     -25.086  -2.872  -9.711  0.00  0.00    -0.648 OA
HETATM   25  O           1     -24.477  -2.888 -11.789  0.00  0.00    -0.648 OA
ENDBRANCH  22  23
ENDBRANCH  21  22
ENDBRANCH  16  21
ENDBRANCH   2  16
TORSDOF 9
ENDMDL
MODEL 7
REMARK VINA RESULT:      -6.2      2.964      6.832
REMARK  9 active torsions:
REMARK  status: ('A' for Active; 'I' for Inactive)
REMARK    1  A    between atoms: C_2  and  C_4 
REMARK    2  A    between atoms: C_4  and  C_5 
REMARK    3  A    between atoms: C_4  and  N_19 
REMARK    4  A    between atoms: C_5  and  C_15 
REMARK    5  A    between atoms: N_13  and  C_17 
REMARK    6  A    between atoms: C_16  and  C_17 
REMARK    7  A    between atoms: C_16  and  C_23 
REMARK    8  A    between atoms: C_17  and  C_18 
REMARK       I    between atoms: C_18  and  N_19 
REMARK    9  A    between atoms: C_23  and  C_24 
ROOT
HETATM    1  O           1     -22.231  -5.920  -2.447  0.00  0.00    -0.271 OA
HETATM    2  C           1     -21.831  -7.059  -2.485  0.00  0.00     0.249 C 
HETATM    3  N           1     -21.688  -7.694  -3.689  0.00  0.00    -0.344 N 
HETATM    4  H           1     -22.458  -8.222  -4.077  0.00  0.00     0.163 HD
ENDROOT
BRANCH   3   5
HETATM    5  C           1     -20.430  -7.613  -4.407  0.00  0.00     0.189 C 
BRANCH   5   6
HETATM    6  C           1     -20.563  -6.626  -5.541  0.00  0.00     0.197 C 
HETATM    7  O           1     -20.771  -7.035  -6.704  0.00  0.00    -0.646 OA
HETATM    8  O           1     -20.464  -5.400  -5.318  0.00  0.00    -0.646 OA
ENDBRANCH   5   6
BRANCH   5   9
HETATM    9  C           1     -20.074  -8.984  -4.964  0.00  0.00     0.074 C 
BRANCH   9  10
HETATM   10  C           1     -18.658  -9.314  -4.612  0.00  0.00    -0.056 A 
HETATM   11  C           1     -17.750  -9.655  -5.616  0.00  0.00     0.007 A 
HETATM   12  C           1     -16.430  -9.962  -5.287  0.00  0.00     0.001 A 
HETATM   13  C           1     -16.016  -9.929  -3.955  0.00  0.00     0.000 A 
HETATM   14  C           1     -16.923  -9.588  -2.951  0.00  0.00     0.001 A 
HETATM   15  C           1     -18.244  -9.281  -3.280  0.00  0.00     0.007 A 
ENDBRANCH   9  10
ENDBRANCH   5   9
ENDBRANCH   3   5
BRANCH   2  16
HETATM   16  C           1     -21.487  -7.781  -1.205  0.00  0.00     0.275 C 
BRANCH  16  17
HETATM   17  N           1     -22.370  -7.285  -0.099  0.00  0.00    -0.066 N 
HETATM   18  H           1     -23.371  -7.358  -0.393  0.00  0.00     0.275 HD
HETATM   19  H           1     -22.215  -7.864   0.757  0.00  0.00     0.275 HD
HETATM   20  H           1     -22.142  -6.286   0.108  0.00  0.00     0.275 HD
ENDBRANCH  16  17
BRANCH  16  21
HETATM   21  C           1     -21.699  -9.277  -1.392  0.00  0.00     0.053 C 
BRANCH  21  22
HETATM   22  C           1     -22.113  -9.901  -0.066  0.00  0.00     0.115 C 
BRANCH  22  23
HETATM   23  C           1     -20.888 -10.142   0.783  0.00  0.00     0.172 C 
HETATM   24  O           1     -20.120 -11.091   0.517  0.00  0.00    -0.648 OA
HETATM   25  O           1     -20.641  -9.391   1.752  0.00  0.00    -0.648 OA
ENDBRANCH  22  23
ENDBRANCH  21  22
ENDBRANCH  16  21
ENDBRANCH   2  16
TORSDOF 9
ENDMDL
MODEL 8
REMARK VINA RESULT:      -6.2      2.465      5.896
REMARK  9 active torsions:
REMARK  status: ('A' for Active; 'I' for Inactive)
REMARK    1  A    between atoms: C_2  and  C_4 
REMARK    2  A    between atoms: C_4  and  C_5 
REMARK    3  A    between atoms: C_4  and  N_19 
REMARK    4  A    between atoms: C_5  and  C_15 
REMARK    5  A    between atoms: N_13  and  C_17 
REMARK    6  A    between atoms: C_16  and  C_17 
REMARK    7  A    between atoms: C_16  and  C_23 
REMARK    8  A    between atoms: C_17  and  C_18 
REMARK       I    between atoms: C_18  and  N_19 
REMARK    9  A    between atoms: C_23  and  C_24 
ROOT
HETATM    1  O           1     -19.444  -9.910  -5.959  0.00  0.00    -0.271 OA
HETATM    2  C           1     -19.327  -9.512  -4.825  0.00  0.00     0.249 C 
HETATM    3  N           1     -19.653  -8.219  -4.517  0.00  0.00    -0.344 N 
HETATM    4  H           1     -18.950  -7.494  -4.574  0.00  0.00     0.163 HD
ENDROOT
BRANCH   3   5
HETATM    5  C           1     -21.004  -7.890  -4.107  0.00  0.00     0.189 C 
BRANCH   5   6
HETATM    6  C           1     -21.661  -7.047  -5.173  0.00  0.00     0.197 C 
HETATM    7  O           1     -21.244  -7.092  -6.350  0.00  0.00    -0.646 OA
HETATM    8  O           1     -22.621  -6.304  -4.878  0.00  0.00    -0.646 OA
ENDBRANCH   5   6
BRANCH   5   9
HETATM    9  C           1     -20.963  -7.113  -2.798  0.00  0.00     0.074 C 
BRANCH   9  10
HETATM   10  C           1     -21.721  -7.862  -1.748  0.00  0.00    -0.056 A 
HETATM   11  C           1     -22.324  -7.171  -0.696  0.00  0.00     0.007 A 
HETATM   12  C           1     -23.031  -7.869   0.282  0.00  0.00     0.001 A 
HETATM   13  C           1     -23.137  -9.258   0.210  0.00  0.00     0.000 A 
HETATM   14  C           1     -22.535  -9.949  -0.843  0.00  0.00     0.001 A 
HETATM   15  C           1     -21.828  -9.250  -1.821  0.00  0.00     0.007 A 
ENDBRANCH   9  10
ENDBRANCH   5   9
ENDBRANCH   3   5
BRANCH   2  16
HETATM   16  C           1     -18.824 -10.441  -3.748  0.00  0.00     0.275 C 
BRANCH  16  17
HETATM   17  N           1     -18.033 -11.550  -4.375  0.00  0.00    -0.066 N 
HETATM   18  H           1     -18.390 -11.732  -5.340  0.00  0.00     0.275 HD
HETATM   19  H           1     -17.025 -11.276  -4.423  0.00  0.00     0.275 HD
HETATM   20  H           1     -18.131 -12.417  -3.800  0.00  0.00     0.275 HD
ENDBRANCH  16  17
BRANCH  16  21
HETATM   21  C           1     -17.935  -9.667  -2.783  0.00  0.00     0.053 C 
BRANCH  21  22
HETATM   22  C           1     -16.499  -9.683  -3.290  0.00  0.00     0.115 C 
BRANCH  22  23
HETATM   23  C           1     -15.729 -10.775  -2.589  0.00  0.00     0.172 C 
HETATM   24  O           1     -14.997 -11.545  -3.247  0.00  0.00    -0.648 OA
HETATM   25  O           1     -15.822 -10.909  -1.349  0.00  0.00    -0.648 OA
ENDBRANCH  22  23
ENDBRANCH  21  22
ENDBRANCH  16  21
ENDBRANCH   2  16
TORSDOF 9
ENDMDL
MODEL 9
REMARK VINA RESULT:      -6.2      3.139      5.687
REMARK  9 active torsions:
REMARK  status: ('A' for Active; 'I' for Inactive)
REMARK    1  A    between atoms: C_2  and  C_4 
REMARK    2  A    between atoms: C_4  and  C_5 
REMARK    3  A    between atoms: C_4  and  N_19 
REMARK    4  A    between atoms: C_5  and  C_15 
REMARK    5  A    between atoms: N_13  and  C_17 
REMARK    6  A    between atoms: C_16  and  C_17 
REMARK    7  A    between atoms: C_16  and  C_23 
REMARK    8  A    between atoms: C_17  and  C_18 
REMARK       I    between atoms: C_18  and  N_19 
REMARK    9  A    between atoms: C_23  and  C_24 
ROOT
HETATM    1  O           1     -20.846  -8.172  -6.041  0.00  0.00    -0.271 OA
HETATM    2  C           1     -20.559  -8.775  -5.035  0.00  0.00     0.249 C 
HETATM    3  N           1     -20.393  -8.100  -3.856  0.00  0.00    -0.344 N 
HETATM    4  H           1     -19.481  -7.746  -3.600  0.00  0.00     0.163 HD
ENDROOT
BRANCH   3   5
HETATM    5  C           1     -21.525  -7.892  -2.974  0.00  0.00     0.189 C 
BRANCH   5   6
HETATM    6  C           1     -21.783  -6.413  -2.827  0.00  0.00     0.197 C 
HETATM    7  O           1     -22.545  -5.997  -1.928  0.00  0.00    -0.646 OA
HETATM    8  O           1     -21.234  -5.603  -3.605  0.00  0.00    -0.646 OA
ENDBRANCH   5   6
BRANCH   5   9
HETATM    9  C           1     -21.222  -8.494  -1.608  0.00  0.00     0.074 C 
BRANCH   9  10
HETATM   10  C           1     -22.215  -9.571  -1.305  0.00  0.00    -0.056 A 
HETATM   11  C           1     -23.011  -9.485  -0.162  0.00  0.00     0.007 A 
HETATM   12  C           1     -23.937 -10.489   0.120  0.00  0.00     0.001 A 
HETATM   13  C           1     -24.067 -11.580  -0.740  0.00  0.00     0.000 A 
HETATM   14  C           1     -23.272 -11.666  -1.883  0.00  0.00     0.001 A 
HETATM   15  C           1     -22.346 -10.662  -2.165  0.00  0.00     0.007 A 
ENDBRANCH   9  10
ENDBRANCH   5   9
ENDBRANCH   3   5
BRANCH   2  16
HETATM   16  C           1     -20.385 -10.273  -5.077  0.00  0.00     0.275 C 
BRANCH  16  17
HETATM   17  N           1     -20.813 -10.788  -6.419  0.00  0.00    -0.066 N 
HETATM   18  H           1     -20.791 -10.009  -7.115  0.00  0.00     0.275 HD
HETATM   19  H           1     -20.163 -11.547  -6.724  0.00  0.00     0.275 HD
HETATM   20  H           1     -21.785 -11.167  -6.353  0.00  0.00     0.275 HD
ENDBRANCH  16  17
BRANCH  16  21
HETATM   21  C           1     -18.921 -10.622  -4.844  0.00  0.00     0.053 C 
BRANCH  21  22
HETATM   22  C           1     -18.773 -11.317  -3.496  0.00  0.00     0.115 C 
BRANCH  22  23
HETATM   23  C           1     -17.906 -10.479  -2.590  0.00  0.00     0.172 C 
HETATM   24  O           1     -17.281 -11.017  -1.650  0.00  0.00    -0.648 OA
HETATM   25  O           1     -17.812  -9.246  -2.778  0.00  0.00    -0.648 OA
ENDBRANCH  22  23
ENDBRANCH  21  22
ENDBRANCH  16  21
ENDBRANCH   2  16
TORSDOF 9
ENDMDL
