MODEL 1
REMARK VINA RESULT:      -6.6      0.000      0.000
REMARK  8 active torsions:
REMARK  status: ('A' for Active; 'I' for Inactive)
REMARK    1  A    between atoms: C_2  and  C_14 
REMARK    2  A    between atoms: N_10  and  C_16 
REMARK    3  A    between atoms: C_11  and  C_19 
REMARK       I    between atoms: C_14  and  N_18 
REMARK    4  A    between atoms: C_15  and  C_16 
REMARK    5  A    between atoms: C_15  and  C_20 
REMARK    6  A    between atoms: N_18  and  C_19 
REMARK    7  A    between atoms: C_19  and  C_21 
REMARK    8  A    between atoms: C_20  and  C_21 
ROOT
HETATM    1  C           1     -23.001  -3.841 -10.247  0.00  0.00     0.185 C 
ENDROOT
BRANCH   1   2
HETATM    2  C           1     -24.492  -3.980 -10.056  0.00  0.00     0.196 C 
HETATM    3  O           1     -25.227  -2.972 -10.115  0.00  0.00    -0.646 OA
HETATM    4  O           1     -24.991  -5.106  -9.839  0.00  0.00    -0.646 OA
ENDBRANCH   1   2
BRANCH   1   5
HETATM    5  N           1     -22.320  -4.868  -9.482  0.00  0.00    -0.345 N 
HETATM    6  H           1     -22.059  -5.739  -9.925  0.00  0.00     0.163 HD
HETATM    7  C           1     -22.027  -4.657  -8.161  0.00  0.00     0.251 C 
HETATM    8  O           1     -22.338  -3.616  -7.633  0.00  0.00    -0.271 OA
BRANCH   7   9
HETATM    9  C           1     -21.318  -5.725  -7.366  0.00  0.00     0.311 C 
HETATM   10  N           1     -19.934  -5.870  -7.809  0.00  0.00     0.097 N 
HETATM   11  C           1     -19.222  -4.756  -7.190  0.00  0.00     0.271 C 
HETATM   12  H           1     -19.540  -6.751  -7.479  0.00  0.00     0.317 HD
HETATM   13  C           1     -19.814  -4.676  -5.793  0.00  0.00     0.033 C 
HETATM   14  C           1     -21.192  -5.319  -5.908  0.00  0.00     0.047 C 
ENDBRANCH   7   9
ENDBRANCH   1   5
BRANCH   1  15
HETATM   15  C           1     -22.662  -3.996 -11.723  0.00  0.00     0.036 C 
BRANCH  15  16
HETATM   16  C           1     -22.647  -2.627 -12.388  0.00  0.00     0.004 C 
BRANCH  16  17
HETATM   17  C           1     -23.800  -2.531 -13.380  0.00  0.00     0.027 C 
BRANCH  17  18
HETATM   18  C           1     -23.304  -1.906 -14.677  0.00  0.00     0.229 C 
BRANCH  18  19
HETATM   19  N           1     -24.110  -0.678 -14.981  0.00  0.00    -0.079 N 
HETATM   20  H           1     -24.093  -0.495 -16.010  0.00  0.00     0.274 HD
HETATM   21  H           1     -25.097  -0.823 -14.669  0.00  0.00     0.274 HD
HETATM   22  H           1     -23.701   0.141 -14.475  0.00  0.00     0.274 HD
ENDBRANCH  18  19
ENDBRANCH  17  18
ENDBRANCH  16  17
ENDBRANCH  15  16
ENDBRANCH   1  15
TORSDOF 8
ENDMDL
MODEL 2
REMARK VINA RESULT:      -5.8      2.507      7.200
REMARK  8 active torsions:
REMARK  status: ('A' for Active; 'I' for Inactive)
REMARK    1  A    between atoms: C_2  and  C_14 
REMARK    2  A    between atoms: N_10  and  C_16 
REMARK    3  A    between atoms: C_11  and  C_19 
REMARK       I    between atoms: C_14  and  N_18 
REMARK    4  A    between atoms: C_15  and  C_16 
REMARK    5  A    between atoms: C_15  and  C_20 
REMARK    6  A    between atoms: N_18  and  C_19 
REMARK    7  A    between atoms: C_19  and  C_21 
REMARK    8  A    between atoms: C_20  and  C_21 
ROOT
HETATM    1  C           1     -21.271  -4.693  -7.552  0.00  0.00     0.185 C 
ENDROOT
BRANCH   1   2
HETATM    2  C           1     -19.883  -5.284  -7.513  0.00  0.00     0.196 C 
HETATM    3  O           1     -18.887  -4.535  -7.431  0.00  0.00    -0.646 OA
HETATM    4  O           1     -19.730  -6.524  -7.563  0.00  0.00    -0.646 OA
ENDBRANCH   1   2
BRANCH   1   5
HETATM    5  N           1     -21.896  -5.015  -8.820  0.00  0.00    -0.345 N 
HETATM    6  H           1     -22.552  -5.783  -8.881  0.00  0.00     0.163 HD
HETATM    7  C           1     -21.600  -4.278  -9.936  0.00  0.00     0.251 C 
HETATM    8  O           1     -20.817  -3.361  -9.863  0.00  0.00    -0.271 OA
BRANCH   7   9
HETATM    9  C           1     -22.250  -4.613 -11.256  0.00  0.00     0.311 C 
HETATM   10  N           1     -23.687  -4.811 -11.091  0.00  0.00     0.097 N 
HETATM   11  C           1     -24.246  -3.465 -11.010  0.00  0.00     0.271 C 
HETATM   12  H           1     -24.080  -5.294 -11.899  0.00  0.00     0.317 HD
HETATM   13  C           1     -23.465  -2.683 -12.053  0.00  0.00     0.033 C 
HETATM   14  C           1     -22.153  -3.442 -12.218  0.00  0.00     0.047 C 
ENDBRANCH   7   9
ENDBRANCH   1   5
BRANCH   1  15
HETATM   15  C           1     -22.101  -5.273  -6.415  0.00  0.00     0.036 C 
BRANCH  15  16
HETATM   16  C           1     -21.210  -5.506  -5.202  0.00  0.00     0.004 C 
BRANCH  16  17
HETATM   17  C           1     -21.898  -6.469  -4.243  0.00  0.00     0.027 C 
BRANCH  17  18
HETATM   18  C           1     -21.305  -6.308  -2.849  0.00  0.00     0.229 C 
BRANCH  18  19
HETATM   19  N           1     -22.379  -5.873  -1.895  0.00  0.00    -0.079 N 
HETATM   20  H           1     -23.301  -5.872  -2.386  0.00  0.00     0.274 HD
HETATM   21  H           1     -22.415  -6.535  -1.087  0.00  0.00     0.274 HD
HETATM   22  H           1     -22.167  -4.910  -1.549  0.00  0.00     0.274 HD
ENDBRANCH  18  19
ENDBRANCH  17  18
ENDBRANCH  16  17
ENDBRANCH  15  16
ENDBRANCH   1  15
TORSDOF 8
ENDMDL
MODEL 3
REMARK VINA RESULT:      -5.7      2.625      3.653
REMARK  8 active torsions:
REMARK  status: ('A' for Active; 'I' for Inactive)
REMARK    1  A    between atoms: C_2  and  C_14 
REMARK    2  A    between atoms: N_10  and  C_16 
REMARK    3  A    between atoms: C_11  and  C_19 
REMARK       I    between atoms: C_14  and  N_18 
REMARK    4  A    between atoms: C_15  and  C_16 
REMARK    5  A    between atoms: C_15  and  C_20 
REMARK    6  A    between atoms: N_18  and  C_19 
REMARK    7  A    between atoms: C_19  and  C_21 
REMARK    8  A    between atoms: C_20  and  C_21 
ROOT
HETATM    1  C           1     -21.670  -4.694  -8.711  0.00  0.00     0.185 C 
ENDROOT
BRANCH   1   2
HETATM    2  C           1     -20.367  -4.190  -9.282  0.00  0.00     0.196 C 
HETATM    3  O           1     -19.637  -3.437  -8.604  0.00  0.00    -0.646 OA
HETATM    4  O           1     -20.017  -4.529 -10.434  0.00  0.00    -0.646 OA
ENDBRANCH   1   2
BRANCH   1   5
HETATM    5  N           1     -21.552  -4.811  -7.271  0.00  0.00    -0.345 N 
HETATM    6  H           1     -22.049  -4.169  -6.668  0.00  0.00     0.163 HD
HETATM    7  C           1     -20.766  -5.792  -6.727  0.00  0.00     0.251 C 
HETATM    8  O           1     -20.172  -6.559  -7.446  0.00  0.00    -0.271 OA
BRANCH   7   9
HETATM    9  C           1     -20.643  -5.915  -5.228  0.00  0.00     0.311 C 
HETATM   10  N           1     -21.950  -5.800  -4.588  0.00  0.00     0.097 N 
HETATM   11  C           1     -22.577  -7.106  -4.772  0.00  0.00     0.271 C 
HETATM   12  H           1     -21.849  -5.609  -3.591  0.00  0.00     0.317 HD
HETATM   13  C           1     -21.441  -8.089  -4.541  0.00  0.00     0.033 C 
HETATM   14  C           1     -20.168  -7.303  -4.836  0.00  0.00     0.047 C 
ENDBRANCH   7   9
ENDBRANCH   1   5
BRANCH   1  15
HETATM   15  C           1     -22.785  -3.714  -9.051  0.00  0.00     0.036 C 
BRANCH  15  16
HETATM   16  C           1     -23.912  -4.452  -9.761  0.00  0.00     0.004 C 
BRANCH  16  17
HETATM   17  C           1     -23.517  -4.713 -11.209  0.00  0.00     0.027 C 
BRANCH  17  18
HETATM   18  C           1     -23.131  -3.398 -11.875  0.00  0.00     0.229 C 
BRANCH  18  19
HETATM   19  N           1     -21.911  -3.606 -12.723  0.00  0.00    -0.079 N 
HETATM   20  H           1     -21.744  -4.629 -12.848  0.00  0.00     0.274 HD
HETATM   21  H           1     -22.056  -3.159 -13.657  0.00  0.00     0.274 HD
HETATM   22  H           1     -21.084  -3.172 -12.253  0.00  0.00     0.274 HD
ENDBRANCH  18  19
ENDBRANCH  17  18
ENDBRANCH  16  17
ENDBRANCH  15  16
ENDBRANCH   1  15
TORSDOF 8
ENDMDL
MODEL 4
REMARK VINA RESULT:      -5.6      4.229      8.332
REMARK  8 active torsions:
REMARK  status: ('A' for Active; 'I' for Inactive)
REMARK    1  A    between atoms: C_2  and  C_14 
REMARK    2  A    between atoms: N_10  and  C_16 
REMARK    3  A    between atoms: C_11  and  C_19 
REMARK       I    between atoms: C_14  and  N_18 
REMARK    4  A    between atoms: C_15  and  C_16 
REMARK    5  A    between atoms: C_15  and  C_20 
REMARK    6  A    between atoms: N_18  and  C_19 
REMARK    7  A    between atoms: C_19  and  C_21 
REMARK    8  A    between atoms: C_20  and  C_21 
ROOT
HETATM    1  C           1     -21.275  -6.486  -4.490  0.00  0.00     0.185 C 
ENDROOT
BRANCH   1   2
HETATM    2  C           1     -21.437  -7.884  -5.035  0.00  0.00     0.196 C 
HETATM    3  O           1     -21.848  -8.801  -4.292  0.00  0.00    -0.646 OA
HETATM    4  O           1     -21.160  -8.125  -6.230  0.00  0.00    -0.646 OA
ENDBRANCH   1   2
BRANCH   1   5
HETATM    5  N           1     -21.668  -5.527  -5.504  0.00  0.00    -0.345 N 
HETATM    6  H           1     -22.629  -5.484  -5.816  0.00  0.00     0.163 HD
HETATM    7  C           1     -20.737  -4.676  -6.039  0.00  0.00     0.251 C 
HETATM    8  O           1     -19.589  -4.727  -5.668  0.00  0.00    -0.271 OA
BRANCH   7   9
HETATM    9  C           1     -21.145  -3.678  -7.094  0.00  0.00     0.311 C 
HETATM   10  N           1     -20.157  -3.622  -8.168  0.00  0.00     0.097 N 
HETATM   11  C           1     -20.428  -4.797  -8.991  0.00  0.00     0.271 C 
HETATM   12  H           1     -20.278  -2.779  -8.728  0.00  0.00     0.317 HD
HETATM   13  C           1     -21.946  -4.863  -9.041  0.00  0.00     0.033 C 
HETATM   14  C           1     -22.417  -4.122  -7.795  0.00  0.00     0.047 C 
ENDBRANCH   7   9
ENDBRANCH   1   5
BRANCH   1  15
HETATM   15  C           1     -22.156  -6.315  -3.260  0.00  0.00     0.036 C 
BRANCH  15  16
HETATM   16  C           1     -21.364  -6.681  -2.013  0.00  0.00     0.004 C 
BRANCH  16  17
HETATM   17  C           1     -22.325  -6.987  -0.871  0.00  0.00     0.027 C 
BRANCH  17  18
HETATM   18  C           1     -21.979  -8.341  -0.264  0.00  0.00     0.229 C 
BRANCH  18  19
HETATM   19  N           1     -22.163  -9.415  -1.295  0.00  0.00    -0.079 N 
HETATM   20  H           1     -22.727 -10.195  -0.890  0.00  0.00     0.274 HD
HETATM   21  H           1     -22.661  -9.019  -2.124  0.00  0.00     0.274 HD
HETATM   22  H           1     -21.227  -9.777  -1.590  0.00  0.00     0.274 HD
ENDBRANCH  18  19
ENDBRANCH  17  18
ENDBRANCH  16  17
ENDBRANCH  15  16
ENDBRANCH   1  15
TORSDOF 8
ENDMDL
MODEL 5
REMARK VINA RESULT:      -5.6      1.612      2.008
REMARK  8 active torsions:
REMARK  status: ('A' for Active; 'I' for Inactive)
REMARK    1  A    between atoms: C_2  and  C_14 
REMARK    2  A    between atoms: N_10  and  C_16 
REMARK    3  A    between atoms: C_11  and  C_19 
REMARK       I    between atoms: C_14  and  N_18 
REMARK    4  A    between atoms: C_15  and  C_16 
REMARK    5  A    between atoms: C_15  and  C_20 
REMARK    6  A    between atoms: N_18  and  C_19 
REMARK    7  A    between atoms: C_19  and  C_21 
REMARK    8  A    between atoms: C_20  and  C_21 
ROOT
HETATM    1  C           1     -22.158  -3.783  -9.604  0.00  0.00     0.185 C 
ENDROOT
BRANCH   1   2
HETATM    2  C           1     -23.585  -4.231  -9.402  0.00  0.00     0.196 C 
HETATM    3  O           1     -24.460  -3.403  -9.072  0.00  0.00    -0.646 OA
HETATM    4  O           1     -23.892  -5.432  -9.567  0.00  0.00    -0.646 OA
ENDBRANCH   1   2
BRANCH   1   5
HETATM    5  N           1     -21.286  -4.550  -8.736  0.00  0.00    -0.345 N 
HETATM    6  H           1     -20.931  -5.448  -9.039  0.00  0.00     0.163 HD
HETATM    7  C           1     -20.940  -4.058  -7.505  0.00  0.00     0.251 C 
HETATM    8  O           1     -21.363  -2.986  -7.144  0.00  0.00    -0.271 OA
BRANCH   7   9
HETATM    9  C           1     -20.032  -4.855  -6.602  0.00  0.00     0.311 C 
HETATM   10  N           1     -20.545  -4.873  -5.235  0.00  0.00     0.097 N 
HETATM   11  C           1     -21.617  -5.864  -5.247  0.00  0.00     0.271 C 
HETATM   12  H           1     -19.820  -5.164  -4.580  0.00  0.00     0.317 HD
HETATM   13  C           1     -21.067  -6.983  -6.115  0.00  0.00     0.033 C 
HETATM   14  C           1     -20.020  -6.319  -7.003  0.00  0.00     0.047 C 
ENDBRANCH   7   9
ENDBRANCH   1   5
BRANCH   1  15
HETATM   15  C           1     -21.756  -4.008 -11.055  0.00  0.00     0.036 C 
BRANCH  15  16
HETATM   16  C           1     -21.725  -2.673 -11.787  0.00  0.00     0.004 C 
BRANCH  16  17
HETATM   17  C           1     -22.672  -2.725 -12.980  0.00  0.00     0.027 C 
BRANCH  17  18
HETATM   18  C           1     -23.731  -3.794 -12.742  0.00  0.00     0.229 C 
BRANCH  18  19
HETATM   19  N           1     -25.022  -3.141 -12.348  0.00  0.00    -0.079 N 
HETATM   20  H           1     -24.843  -2.146 -12.086  0.00  0.00     0.274 HD
HETATM   21  H           1     -25.689  -3.175 -13.152  0.00  0.00     0.274 HD
HETATM   22  H           1     -25.433  -3.648 -11.531  0.00  0.00     0.274 HD
ENDBRANCH  18  19
ENDBRANCH  17  18
ENDBRANCH  16  17
ENDBRANCH  15  16
ENDBRANCH   1  15
TORSDOF 8
ENDMDL
MODEL 6
REMARK VINA RESULT:      -5.5      4.306      6.517
REMARK  8 active torsions:
REMARK  status: ('A' for Active; 'I' for Inactive)
REMARK    1  A    between atoms: C_2  and  C_14 
REMARK    2  A    between atoms: N_10  and  C_16 
REMARK    3  A    between atoms: C_11  and  C_19 
REMARK       I    between atoms: C_14  and  N_18 
REMARK    4  A    between atoms: C_15  and  C_16 
REMARK    5  A    between atoms: C_15  and  C_20 
REMARK    6  A    between atoms: N_18  and  C_19 
REMARK    7  A    between atoms: C_19  and  C_21 
REMARK    8  A    between atoms: C_20  and  C_21 
ROOT
HETATM    1  C           1     -20.639  -6.765  -5.408  0.00  0.00     0.185 C 
ENDROOT
BRANCH   1   2
HETATM    2  C           1     -21.815  -6.284  -4.594  0.00  0.00     0.196 C 
HETATM    3  O           1     -21.653  -5.938  -3.405  0.00  0.00    -0.646 OA
HETATM    4  O           1     -22.953  -6.231  -5.111  0.00  0.00    -0.646 OA
ENDBRANCH   1   2
BRANCH   1   5
HETATM    5  N           1     -20.761  -8.192  -5.634  0.00  0.00    -0.345 N 
HETATM    6  H           1     -21.309  -8.537  -6.411  0.00  0.00     0.163 HD
HETATM    7  C           1     -20.133  -9.074  -4.795  0.00  0.00     0.251 C 
HETATM    8  O           1     -19.479  -8.663  -3.866  0.00  0.00    -0.271 OA
BRANCH   7   9
HETATM    9  C           1     -20.260 -10.559  -5.029  0.00  0.00     0.311 C 
HETATM   10  N           1     -19.779 -10.917  -6.361  0.00  0.00     0.097 N 
HETATM   11  C           1     -18.324 -10.929  -6.245  0.00  0.00     0.271 C 
HETATM   12  H           1     -20.107 -11.846  -6.626  0.00  0.00     0.317 HD
HETATM   13  C           1     -18.072 -11.574  -4.892  0.00  0.00     0.033 C 
HETATM   14  C           1     -19.349 -11.334  -4.094  0.00  0.00     0.047 C 
ENDBRANCH   7   9
ENDBRANCH   1   5
BRANCH   1  15
HETATM   15  C           1     -20.617  -6.038  -6.746  0.00  0.00     0.036 C 
BRANCH  15  16
HETATM   16  C           1     -20.180  -4.596  -6.534  0.00  0.00     0.004 C 
BRANCH  16  17
HETATM   17  C           1     -21.199  -3.657  -7.168  0.00  0.00     0.027 C 
BRANCH  17  18
HETATM   18  C           1     -22.188  -4.466  -7.997  0.00  0.00     0.229 C 
BRANCH  18  19
HETATM   19  N           1     -23.577  -4.245  -7.476  0.00  0.00    -0.079 N 
HETATM   20  H           1     -23.542  -4.087  -6.444  0.00  0.00     0.274 HD
HETATM   21  H           1     -23.994  -3.407  -7.942  0.00  0.00     0.274 HD
HETATM   22  H           1     -24.163  -5.086  -7.681  0.00  0.00     0.274 HD
ENDBRANCH  18  19
ENDBRANCH  17  18
ENDBRANCH  16  17
ENDBRANCH  15  16
ENDBRANCH   1  15
TORSDOF 8
ENDMDL
MODEL 7
REMARK VINA RESULT:      -5.4      4.312      7.986
REMARK  8 active torsions:
REMARK  status: ('A' for Active; 'I' for Inactive)
REMARK    1  A    between atoms: C_2  and  C_14 
REMARK    2  A    between atoms: N_10  and  C_16 
REMARK    3  A    between atoms: C_11  and  C_19 
REMARK       I    between atoms: C_14  and  N_18 
REMARK    4  A    between atoms: C_15  and  C_16 
REMARK    5  A    between atoms: C_15  and  C_20 
REMARK    6  A    between atoms: N_18  and  C_19 
REMARK    7  A    between atoms: C_19  and  C_21 
REMARK    8  A    between atoms: C_20  and  C_21 
ROOT
HETATM    1  C           1     -21.576  -7.289  -4.054  0.00  0.00     0.185 C 
ENDROOT
BRANCH   1   2
HETATM    2  C           1     -21.689  -6.930  -2.592  0.00  0.00     0.196 C 
HETATM    3  O           1     -22.443  -6.001  -2.233  0.00  0.00    -0.646 OA
HETATM    4  O           1     -21.027  -7.563  -1.741  0.00  0.00    -0.646 OA
ENDBRANCH   1   2
BRANCH   1   5
HETATM    5  N           1     -20.780  -6.287  -4.736  0.00  0.00    -0.345 N 
HETATM    6  H           1     -19.782  -6.239  -4.578  0.00  0.00     0.163 HD
HETATM    7  C           1     -21.380  -5.405  -5.595  0.00  0.00     0.251 C 
HETATM    8  O           1     -22.572  -5.461  -5.783  0.00  0.00    -0.271 OA
BRANCH   7   9
HETATM    9  C           1     -20.552  -4.362  -6.305  0.00  0.00     0.311 C 
HETATM   10  N           1     -19.498  -4.987  -7.098  0.00  0.00     0.097 N 
HETATM   11  C           1     -20.166  -5.464  -8.305  0.00  0.00     0.271 C 
HETATM   12  H           1     -18.783  -4.305  -7.351  0.00  0.00     0.317 HD
HETATM   13  C           1     -21.136  -4.346  -8.649  0.00  0.00     0.033 C 
HETATM   14  C           1     -21.386  -3.618  -7.333  0.00  0.00     0.047 C 
ENDBRANCH   7   9
ENDBRANCH   1   5
BRANCH   1  15
HETATM   15  C           1     -20.907  -8.649  -4.191  0.00  0.00     0.036 C 
BRANCH  15  16
HETATM   16  C           1     -19.547  -8.483  -4.855  0.00  0.00     0.004 C 
BRANCH  16  17
HETATM   17  C           1     -18.512  -9.315  -4.109  0.00  0.00     0.027 C 
BRANCH  17  18
HETATM   18  C           1     -17.566  -9.967  -5.110  0.00  0.00     0.229 C 
BRANCH  18  19
HETATM   19  N           1     -18.285 -10.186  -6.409  0.00  0.00    -0.079 N 
HETATM   20  H           1     -18.101 -11.156  -6.750  0.00  0.00     0.274 HD
HETATM   21  H           1     -19.312 -10.056  -6.264  0.00  0.00     0.274 HD
HETATM   22  H           1     -17.943  -9.496  -7.116  0.00  0.00     0.274 HD
ENDBRANCH  18  19
ENDBRANCH  17  18
ENDBRANCH  16  17
ENDBRANCH  15  16
ENDBRANCH   1  15
TORSDOF 8
ENDMDL
MODEL 8
REMARK VINA RESULT:      -5.3      6.856      9.829
REMARK  8 active torsions:
REMARK  status: ('A' for Active; 'I' for Inactive)
REMARK    1  A    between atoms: C_2  and  C_14 
REMARK    2  A    between atoms: N_10  and  C_16 
REMARK    3  A    between atoms: C_11  and  C_19 
REMARK       I    between atoms: C_14  and  N_18 
REMARK    4  A    between atoms: C_15  and  C_16 
REMARK    5  A    between atoms: C_15  and  C_20 
REMARK    6  A    between atoms: N_18  and  C_19 
REMARK    7  A    between atoms: C_19  and  C_21 
REMARK    8  A    between atoms: C_20  and  C_21 
ROOT
HETATM    1  C           1     -21.183  -7.907  -1.524  0.00  0.00     0.185 C 
ENDROOT
BRANCH   1   2
HETATM    2  C           1     -22.326  -6.981  -1.189  0.00  0.00     0.196 C 
HETATM    3  O           1     -23.068  -7.229  -0.215  0.00  0.00    -0.646 OA
HETATM    4  O           1     -22.530  -5.963  -1.886  0.00  0.00    -0.646 OA
ENDBRANCH   1   2
BRANCH   1   5
HETATM    5  N           1     -21.693  -9.250  -1.722  0.00  0.00    -0.345 N 
HETATM    6  H           1     -22.341  -9.439  -2.475  0.00  0.00     0.163 HD
HETATM    7  C           1     -21.297 -10.262  -0.889  0.00  0.00     0.251 C 
HETATM    8  O           1     -20.523 -10.036   0.011  0.00  0.00    -0.271 OA
BRANCH   7   9
HETATM    9  C           1     -21.828 -11.660  -1.095  0.00  0.00     0.311 C 
HETATM   10  N           1     -22.382 -12.193   0.147  0.00  0.00     0.097 N 
HETATM   11  C           1     -23.698 -11.572   0.269  0.00  0.00     0.271 C 
HETATM   12  H           1     -22.488 -13.205   0.090  0.00  0.00     0.317 HD
HETATM   13  C           1     -24.243 -11.591  -1.149  0.00  0.00     0.033 C 
HETATM   14  C           1     -23.011 -11.654  -2.047  0.00  0.00     0.047 C 
ENDBRANCH   7   9
ENDBRANCH   1   5
BRANCH   1  15
HETATM   15  C           1     -20.500  -7.430  -2.798  0.00  0.00     0.036 C 
BRANCH  15  16
HETATM   16  C           1     -21.031  -8.219  -3.987  0.00  0.00     0.004 C 
BRANCH  16  17
HETATM   17  C           1     -20.775  -7.439  -5.270  0.00  0.00     0.027 C 
BRANCH  17  18
HETATM   18  C           1     -21.383  -6.047  -5.149  0.00  0.00     0.229 C 
BRANCH  18  19
HETATM   19  N           1     -22.872  -6.162  -5.012  0.00  0.00    -0.079 N 
HETATM   20  H           1     -23.101  -6.755  -4.183  0.00  0.00     0.274 HD
HETATM   21  H           1     -23.284  -5.210  -4.883  0.00  0.00     0.274 HD
HETATM   22  H           1     -23.268  -6.600  -5.874  0.00  0.00     0.274 HD
ENDBRANCH  18  19
ENDBRANCH  17  18
ENDBRANCH  16  17
ENDBRANCH  15  16
ENDBRANCH   1  15
TORSDOF 8
ENDMDL
MODEL 9
REMARK VINA RESULT:      -5.2      5.412      7.981
REMARK  8 active torsions:
REMARK  status: ('A' for Active; 'I' for Inactive)
REMARK    1  A    between atoms: C_2  and  C_14 
REMARK    2  A    between atoms: N_10  and  C_16 
REMARK    3  A    between atoms: C_11  and  C_19 
REMARK       I    between atoms: C_14  and  N_18 
REMARK    4  A    between atoms: C_15  and  C_16 
REMARK    5  A    between atoms: C_15  and  C_20 
REMARK    6  A    between atoms: N_18  and  C_19 
REMARK    7  A    between atoms: C_19  and  C_21 
REMARK    8  A    between atoms: C_20  and  C_21 
ROOT
HETATM    1  C           1     -21.611  -7.685  -3.997  0.00  0.00     0.185 C 
ENDROOT
BRANCH   1   2
HETATM    2  C           1     -21.484  -8.993  -4.739  0.00  0.00     0.196 C 
HETATM    3  O           1     -21.827 -10.061  -4.189  0.00  0.00    -0.646 OA
HETATM    4  O           1     -21.037  -9.008  -5.907  0.00  0.00    -0.646 OA
ENDBRANCH   1   2
BRANCH   1   5
HETATM    5  N           1     -21.482  -7.926  -2.573  0.00  0.00    -0.345 N 
HETATM    6  H           1     -20.916  -8.695  -2.238  0.00  0.00     0.163 HD
HETATM    7  C           1     -22.127  -7.112  -1.680  0.00  0.00     0.251 C 
HETATM    8  O           1     -22.803  -6.194  -2.079  0.00  0.00    -0.271 OA
BRANCH   7   9
HETATM    9  C           1     -21.993  -7.362  -0.198  0.00  0.00     0.311 C 
HETATM   10  N           1     -23.266  -7.795   0.373  0.00  0.00     0.097 N 
HETATM   11  C           1     -23.380  -9.205   0.014  0.00  0.00     0.271 C 
HETATM   12  H           1     -23.257  -7.702   1.388  0.00  0.00     0.317 HD
HETATM   13  C           1     -21.972  -9.744   0.206  0.00  0.00     0.033 C 
HETATM   14  C           1     -21.060  -8.529   0.071  0.00  0.00     0.047 C 
ENDBRANCH   7   9
ENDBRANCH   1   5
BRANCH   1  15
HETATM   15  C           1     -20.512  -6.735  -4.453  0.00  0.00     0.036 C 
BRANCH  15  16
HETATM   16  C           1     -21.137  -5.522  -5.129  0.00  0.00     0.004 C 
BRANCH  16  17
HETATM   17  C           1     -20.311  -5.139  -6.350  0.00  0.00     0.027 C 
BRANCH  17  18
HETATM   18  C           1     -20.916  -3.904  -7.006  0.00  0.00     0.229 C 
BRANCH  18  19
HETATM   19  N           1     -22.381  -4.127  -7.236  0.00  0.00    -0.079 N 
HETATM   20  H           1     -22.608  -5.136  -7.087  0.00  0.00     0.274 HD
HETATM   21  H           1     -22.931  -3.543  -6.565  0.00  0.00     0.274 HD
HETATM   22  H           1     -22.625  -3.856  -8.216  0.00  0.00     0.274 HD
ENDBRANCH  18  19
ENDBRANCH  17  18
ENDBRANCH  16  17
ENDBRANCH  15  16
ENDBRANCH   1  15
TORSDOF 8
ENDMDL
