MODEL 1
REMARK VINA RESULT:      -6.7      0.000      0.000
REMARK  6 active torsions:
REMARK  status: ('A' for Active; 'I' for Inactive)
REMARK    1  A    between atoms: C_3  and  C_15 
REMARK    2  A    between atoms: N_8  and  C_13 
REMARK    3  A    between atoms: N_11  and  C_15 
REMARK       I    between atoms: N_11  and  C_12 
REMARK    4  A    between atoms: C_12  and  C_13 
REMARK    5  A    between atoms: C_13  and  C_16 
REMARK    6  A    between atoms: C_16  and  C_18 
ROOT
HETATM    1  H           1     -33.915  -0.956 -14.254  0.00  0.00     0.163 HD
HETATM    2  O           1     -36.474  -1.344 -12.482  0.00  0.00    -0.271 OA
HETATM    3  N           1     -34.894  -0.915 -14.000  0.00  0.00    -0.345 N 
HETATM    4  C           1     -35.306  -1.394 -12.785  0.00  0.00     0.249 C 
ENDROOT
BRANCH   4   5
HETATM    5  C           1     -34.300  -1.980 -11.825  0.00  0.00     0.278 C 
BRANCH   5   6
HETATM    6  N           1     -34.721  -1.683 -10.417  0.00  0.00    -0.066 N 
HETATM    7  H           1     -34.413  -0.718 -10.158  0.00  0.00     0.275 HD
HETATM    8  H           1     -34.282  -2.375  -9.768  0.00  0.00     0.275 HD
HETATM    9  H           1     -35.761  -1.748 -10.342  0.00  0.00     0.275 HD
ENDBRANCH   5   6
BRANCH   5  10
HETATM   10  C           1     -34.227  -3.489 -12.024  0.00  0.00     0.021 C 
HETATM   11  C           1     -32.779  -3.947 -11.902  0.00  0.00     0.012 C 
BRANCH  10  12
HETATM   12  C           1     -35.069  -4.182 -10.961  0.00  0.00     0.002 C 
HETATM   13  C           1     -34.351  -5.437 -10.483  0.00  0.00     0.005 C 
ENDBRANCH  10  12
ENDBRANCH   5  10
ENDBRANCH   4   5
BRANCH   3  14
HETATM   14  C           1     -35.859  -0.351 -14.923  0.00  0.00     0.181 C 
HETATM   15  C           1     -35.525   1.113 -15.175  0.00  0.00     0.043 C 
BRANCH  14  16
HETATM   16  C           1     -35.812  -1.111 -16.225  0.00  0.00     0.196 C 
HETATM   17  O           1     -35.035  -2.082 -16.355  0.00  0.00    -0.646 OA
HETATM   18  O           1     -36.550  -0.770 -17.175  0.00  0.00    -0.646 OA
ENDBRANCH  14  16
ENDBRANCH   3  14
TORSDOF 6
ENDMDL
MODEL 2
REMARK VINA RESULT:      -5.7      9.460     10.823
REMARK  6 active torsions:
REMARK  status: ('A' for Active; 'I' for Inactive)
REMARK    1  A    between atoms: C_3  and  C_15 
REMARK    2  A    between atoms: N_8  and  C_13 
REMARK    3  A    between atoms: N_11  and  C_15 
REMARK       I    between atoms: N_11  and  C_12 
REMARK    4  A    between atoms: C_12  and  C_13 
REMARK    5  A    between atoms: C_13  and  C_16 
REMARK    6  A    between atoms: C_16  and  C_18 
ROOT
HETATM    1  H           1     -27.524  -8.240 -18.778  0.00  0.00     0.163 HD
HETATM    2  O           1     -28.432  -5.248 -19.032  0.00  0.00    -0.271 OA
HETATM    3  N           1     -27.576  -7.306 -19.164  0.00  0.00    -0.345 N 
HETATM    4  C           1     -28.372  -6.363 -18.570  0.00  0.00     0.249 C 
ENDROOT
BRANCH   4   5
HETATM    5  C           1     -29.169  -6.715 -17.340  0.00  0.00     0.278 C 
BRANCH   5   6
HETATM    6  N           1     -29.328  -8.204 -17.255  0.00  0.00    -0.066 N 
HETATM    7  H           1     -29.182  -8.624 -18.201  0.00  0.00     0.275 HD
HETATM    8  H           1     -30.289  -8.433 -16.916  0.00  0.00     0.275 HD
HETATM    9  H           1     -28.623  -8.593 -16.590  0.00  0.00     0.275 HD
ENDBRANCH   5   6
BRANCH   5  10
HETATM   10  C           1     -28.442  -6.212 -16.100  0.00  0.00     0.021 C 
HETATM   11  C           1     -29.458  -5.863 -15.020  0.00  0.00     0.012 C 
BRANCH  10  12
HETATM   12  C           1     -27.508  -7.299 -15.584  0.00  0.00     0.002 C 
HETATM   13  C           1     -26.062  -6.874 -15.806  0.00  0.00     0.005 C 
ENDBRANCH  10  12
ENDBRANCH   5  10
ENDBRANCH   4   5
BRANCH   3  14
HETATM   14  C           1     -26.809  -6.968 -20.347  0.00  0.00     0.181 C 
HETATM   15  C           1     -25.418  -6.504 -19.934  0.00  0.00     0.043 C 
BRANCH  14  16
HETATM   16  C           1     -26.693  -8.183 -21.234  0.00  0.00     0.196 C 
HETATM   17  O           1     -27.703  -8.878 -21.477  0.00  0.00    -0.646 OA
HETATM   18  O           1     -25.587  -8.494 -21.726  0.00  0.00    -0.646 OA
ENDBRANCH  14  16
ENDBRANCH   3  14
TORSDOF 6
ENDMDL
MODEL 3
REMARK VINA RESULT:      -5.7     11.987     13.626
REMARK  6 active torsions:
REMARK  status: ('A' for Active; 'I' for Inactive)
REMARK    1  A    between atoms: C_3  and  C_15 
REMARK    2  A    between atoms: N_8  and  C_13 
REMARK    3  A    between atoms: N_11  and  C_15 
REMARK       I    between atoms: N_11  and  C_12 
REMARK    4  A    between atoms: C_12  and  C_13 
REMARK    5  A    between atoms: C_13  and  C_16 
REMARK    6  A    between atoms: C_16  and  C_18 
ROOT
HETATM    1  H           1     -24.213  -4.527  -8.795  0.00  0.00     0.163 HD
HETATM    2  O           1     -21.160  -3.862  -9.067  0.00  0.00    -0.271 OA
HETATM    3  N           1     -23.343  -4.292  -9.255  0.00  0.00    -0.345 N 
HETATM    4  C           1     -22.199  -4.143  -8.518  0.00  0.00     0.249 C 
ENDROOT
BRANCH   4   5
HETATM    5  C           1     -22.235  -4.331  -7.022  0.00  0.00     0.278 C 
BRANCH   5   6
HETATM    6  N           1     -23.635  -4.655  -6.592  0.00  0.00    -0.066 N 
HETATM    7  H           1     -24.297  -3.965  -7.014  0.00  0.00     0.275 HD
HETATM    8  H           1     -23.699  -4.607  -5.550  0.00  0.00     0.275 HD
HETATM    9  H           1     -23.884  -5.617  -6.912  0.00  0.00     0.275 HD
ENDBRANCH   5   6
BRANCH   5  10
HETATM   10  C           1     -21.307  -5.473  -6.630  0.00  0.00     0.021 C 
HETATM   11  C           1     -19.969  -4.907  -6.172  0.00  0.00     0.012 C 
BRANCH  10  12
HETATM   12  C           1     -21.935  -6.269  -5.493  0.00  0.00     0.002 C 
HETATM   13  C           1     -21.320  -7.662  -5.447  0.00  0.00     0.005 C 
ENDBRANCH  10  12
ENDBRANCH   5  10
ENDBRANCH   4   5
BRANCH   3  14
HETATM   14  C           1     -23.309  -4.111 -10.693  0.00  0.00     0.181 C 
HETATM   15  C           1     -23.401  -5.469 -11.377  0.00  0.00     0.043 C 
BRANCH  14  16
HETATM   16  C           1     -24.473  -3.252 -11.119  0.00  0.00     0.196 C 
HETATM   17  O           1     -25.443  -3.086 -10.347  0.00  0.00    -0.646 OA
HETATM   18  O           1     -24.470  -2.706 -12.243  0.00  0.00    -0.646 OA
ENDBRANCH  14  16
ENDBRANCH   3  14
TORSDOF 6
ENDMDL
MODEL 4
REMARK VINA RESULT:      -5.5     13.090     15.261
REMARK  6 active torsions:
REMARK  status: ('A' for Active; 'I' for Inactive)
REMARK    1  A    between atoms: C_3  and  C_15 
REMARK    2  A    between atoms: N_8  and  C_13 
REMARK    3  A    between atoms: N_11  and  C_15 
REMARK       I    between atoms: N_11  and  C_12 
REMARK    4  A    between atoms: C_12  and  C_13 
REMARK    5  A    between atoms: C_13  and  C_16 
REMARK    6  A    between atoms: C_16  and  C_18 
ROOT
HETATM    1  H           1     -21.952  -4.187  -7.972  0.00  0.00     0.163 HD
HETATM    2  O           1     -19.936  -4.927 -10.258  0.00  0.00    -0.271 OA
HETATM    3  N           1     -21.157  -4.632  -8.412  0.00  0.00    -0.345 N 
HETATM    4  C           1     -20.886  -4.396  -9.733  0.00  0.00     0.249 C 
ENDROOT
BRANCH   4   5
HETATM    5  C           1     -21.772  -3.474 -10.532  0.00  0.00     0.278 C 
BRANCH   5   6
HETATM    6  N           1     -21.074  -3.085 -11.802  0.00  0.00    -0.066 N 
HETATM    7  H           1     -21.333  -3.755 -12.561  0.00  0.00     0.275 HD
HETATM    8  H           1     -20.040  -3.109 -11.652  0.00  0.00     0.275 HD
HETATM    9  H           1     -21.363  -2.120 -12.077  0.00  0.00     0.275 HD
ENDBRANCH   5   6
BRANCH   5  10
HETATM   10  C           1     -23.076  -4.185 -10.868  0.00  0.00     0.021 C 
HETATM   11  C           1     -24.200  -3.617 -10.011  0.00  0.00     0.012 C 
BRANCH  10  12
HETATM   12  C           1     -23.405  -3.972 -12.340  0.00  0.00     0.002 C 
HETATM   13  C           1     -24.575  -3.005 -12.465  0.00  0.00     0.005 C 
ENDBRANCH  10  12
ENDBRANCH   5  10
ENDBRANCH   4   5
BRANCH   3  14
HETATM   14  C           1     -20.305  -5.519  -7.644  0.00  0.00     0.181 C 
HETATM   15  C           1     -19.209  -4.707  -6.965  0.00  0.00     0.043 C 
BRANCH  14  16
HETATM   16  C           1     -21.131  -6.225  -6.597  0.00  0.00     0.196 C 
HETATM   17  O           1     -20.980  -7.452  -6.406  0.00  0.00    -0.646 OA
HETATM   18  O           1     -21.965  -5.586  -5.922  0.00  0.00    -0.646 OA
ENDBRANCH  14  16
ENDBRANCH   3  14
TORSDOF 6
ENDMDL
MODEL 5
REMARK VINA RESULT:      -5.5     12.890     14.544
REMARK  6 active torsions:
REMARK  status: ('A' for Active; 'I' for Inactive)
REMARK    1  A    between atoms: C_3  and  C_15 
REMARK    2  A    between atoms: N_8  and  C_13 
REMARK    3  A    between atoms: N_11  and  C_15 
REMARK       I    between atoms: N_11  and  C_12 
REMARK    4  A    between atoms: C_12  and  C_13 
REMARK    5  A    between atoms: C_13  and  C_16 
REMARK    6  A    between atoms: C_16  and  C_18 
ROOT
HETATM    1  H           1     -22.322  -5.717  -9.375  0.00  0.00     0.163 HD
HETATM    2  O           1     -21.569  -3.740  -7.059  0.00  0.00    -0.271 OA
HETATM    3  N           1     -22.251  -4.837  -8.881  0.00  0.00    -0.345 N 
HETATM    4  C           1     -21.655  -4.791  -7.649  0.00  0.00     0.249 C 
ENDROOT
BRANCH   4   5
HETATM    5  C           1     -21.105  -6.051  -7.029  0.00  0.00     0.278 C 
BRANCH   5   6
HETATM    6  N           1     -19.636  -6.151  -7.317  0.00  0.00    -0.066 N 
HETATM    7  H           1     -19.480  -6.102  -8.350  0.00  0.00     0.275 HD
HETATM    8  H           1     -19.270  -7.059  -6.952  0.00  0.00     0.275 HD
HETATM    9  H           1     -19.135  -5.361  -6.852  0.00  0.00     0.275 HD
ENDBRANCH   5   6
BRANCH   5  10
HETATM   10  C           1     -21.324  -6.016  -5.522  0.00  0.00     0.021 C 
HETATM   11  C           1     -22.789  -6.301  -5.216  0.00  0.00     0.012 C 
BRANCH  10  12
HETATM   12  C           1     -20.452  -7.073  -4.858  0.00  0.00     0.002 C 
HETATM   13  C           1     -21.211  -8.392  -4.796  0.00  0.00     0.005 C 
ENDBRANCH  10  12
ENDBRANCH   5  10
ENDBRANCH   4   5
BRANCH   3  14
HETATM   14  C           1     -22.779  -3.626  -9.477  0.00  0.00     0.181 C 
HETATM   15  C           1     -22.109  -3.389 -10.824  0.00  0.00     0.043 C 
BRANCH  14  16
HETATM   16  C           1     -24.268  -3.772  -9.674  0.00  0.00     0.196 C 
HETATM   17  O           1     -25.012  -2.772  -9.577  0.00  0.00    -0.646 OA
HETATM   18  O           1     -24.758  -4.892  -9.934  0.00  0.00    -0.646 OA
ENDBRANCH  14  16
ENDBRANCH   3  14
TORSDOF 6
ENDMDL
MODEL 6
REMARK VINA RESULT:      -5.5     13.100     15.237
REMARK  6 active torsions:
REMARK  status: ('A' for Active; 'I' for Inactive)
REMARK    1  A    between atoms: C_3  and  C_15 
REMARK    2  A    between atoms: N_8  and  C_13 
REMARK    3  A    between atoms: N_11  and  C_15 
REMARK       I    between atoms: N_11  and  C_12 
REMARK    4  A    between atoms: C_12  and  C_13 
REMARK    5  A    between atoms: C_13  and  C_16 
REMARK    6  A    between atoms: C_16  and  C_18 
ROOT
HETATM    1  H           1     -22.563  -6.109  -7.815  0.00  0.00     0.163 HD
HETATM    2  O           1     -21.788  -3.070  -7.809  0.00  0.00    -0.271 OA
HETATM    3  N           1     -22.116  -5.257  -7.502  0.00  0.00    -0.345 N 
HETATM    4  C           1     -22.321  -4.087  -8.183  0.00  0.00     0.249 C 
ENDROOT
BRANCH   4   5
HETATM    5  C           1     -23.215  -4.068  -9.398  0.00  0.00     0.278 C 
BRANCH   5   6
HETATM    6  N           1     -24.473  -3.314  -9.082  0.00  0.00    -0.066 N 
HETATM    7  H           1     -24.808  -2.820  -9.940  0.00  0.00     0.275 HD
HETATM    8  H           1     -24.280  -2.615  -8.329  0.00  0.00     0.275 HD
HETATM    9  H           1     -25.207  -3.982  -8.756  0.00  0.00     0.275 HD
ENDBRANCH   5   6
BRANCH   5  10
HETATM   10  C           1     -22.492  -3.386 -10.552  0.00  0.00     0.021 C 
HETATM   11  C           1     -21.475  -4.348 -11.153  0.00  0.00     0.012 C 
BRANCH  10  12
HETATM   12  C           1     -23.503  -2.986 -11.618  0.00  0.00     0.002 C 
HETATM   13  C           1     -22.832  -3.001 -12.986  0.00  0.00     0.005 C 
ENDBRANCH  10  12
ENDBRANCH   5  10
ENDBRANCH   4   5
BRANCH   3  14
HETATM   14  C           1     -21.257  -5.276  -6.334  0.00  0.00     0.181 C 
HETATM   15  C           1     -21.833  -6.229  -5.296  0.00  0.00     0.043 C 
BRANCH  14  16
HETATM   16  C           1     -19.878  -5.739  -6.733  0.00  0.00     0.196 C 
HETATM   17  O           1     -19.597  -6.958  -6.711  0.00  0.00    -0.646 OA
HETATM   18  O           1     -19.015  -4.906  -7.085  0.00  0.00    -0.646 OA
ENDBRANCH  14  16
ENDBRANCH   3  14
TORSDOF 6
ENDMDL
MODEL 7
REMARK VINA RESULT:      -5.2     14.718     17.050
REMARK  6 active torsions:
REMARK  status: ('A' for Active; 'I' for Inactive)
REMARK    1  A    between atoms: C_3  and  C_15 
REMARK    2  A    between atoms: N_8  and  C_13 
REMARK    3  A    between atoms: N_11  and  C_15 
REMARK       I    between atoms: N_11  and  C_12 
REMARK    4  A    between atoms: C_12  and  C_13 
REMARK    5  A    between atoms: C_13  and  C_16 
REMARK    6  A    between atoms: C_16  and  C_18 
ROOT
HETATM    1  H           1     -19.996  -6.292  -5.110  0.00  0.00     0.163 HD
HETATM    2  O           1     -22.933  -5.526  -5.902  0.00  0.00    -0.271 OA
HETATM    3  N           1     -21.007  -6.328  -5.106  0.00  0.00    -0.345 N 
HETATM    4  C           1     -21.726  -5.481  -5.907  0.00  0.00     0.249 C 
ENDROOT
BRANCH   4   5
HETATM    5  C           1     -21.010  -4.496  -6.797  0.00  0.00     0.278 C 
BRANCH   5   6
HETATM    6  N           1     -19.529  -4.627  -6.600  0.00  0.00    -0.066 N 
HETATM    7  H           1     -19.153  -3.745  -6.184  0.00  0.00     0.275 HD
HETATM    8  H           1     -19.069  -4.802  -7.522  0.00  0.00     0.275 HD
HETATM    9  H           1     -19.332  -5.427  -5.957  0.00  0.00     0.275 HD
ENDBRANCH   5   6
BRANCH   5  10
HETATM   10  C           1     -21.355  -4.781  -8.253  0.00  0.00     0.021 C 
HETATM   11  C           1     -22.350  -3.741  -8.752  0.00  0.00     0.012 C 
BRANCH  10  12
HETATM   12  C           1     -20.088  -4.715  -9.096  0.00  0.00     0.002 C 
HETATM   13  C           1     -20.451  -4.361 -10.532  0.00  0.00     0.005 C 
ENDBRANCH  10  12
ENDBRANCH   5  10
ENDBRANCH   4   5
BRANCH   3  14
HETATM   14  C           1     -21.694  -7.275  -4.251  0.00  0.00     0.181 C 
HETATM   15  C           1     -21.056  -8.650  -4.401  0.00  0.00     0.043 C 
BRANCH  14  16
HETATM   16  C           1     -21.588  -6.825  -2.815  0.00  0.00     0.196 C 
HETATM   17  O           1     -22.324  -5.907  -2.392  0.00  0.00    -0.646 OA
HETATM   18  O           1     -20.765  -7.369  -2.048  0.00  0.00    -0.646 OA
ENDBRANCH  14  16
ENDBRANCH   3  14
TORSDOF 6
ENDMDL
MODEL 8
REMARK VINA RESULT:      -5.2     15.590     17.363
REMARK  6 active torsions:
REMARK  status: ('A' for Active; 'I' for Inactive)
REMARK    1  A    between atoms: C_3  and  C_15 
REMARK    2  A    between atoms: N_8  and  C_13 
REMARK    3  A    between atoms: N_11  and  C_15 
REMARK       I    between atoms: N_11  and  C_12 
REMARK    4  A    between atoms: C_12  and  C_13 
REMARK    5  A    between atoms: C_13  and  C_16 
REMARK    6  A    between atoms: C_16  and  C_18 
ROOT
HETATM    1  H           1     -21.056  -4.792  -4.537  0.00  0.00     0.163 HD
HETATM    2  O           1     -21.944  -7.801  -4.554  0.00  0.00    -0.271 OA
HETATM    3  N           1     -21.363  -5.676  -4.922  0.00  0.00    -0.345 N 
HETATM    4  C           1     -21.576  -6.746  -4.094  0.00  0.00     0.249 C 
ENDROOT
BRANCH   4   5
HETATM    5  C           1     -21.353  -6.607  -2.609  0.00  0.00     0.278 C 
BRANCH   5   6
HETATM    6  N           1     -22.317  -5.602  -2.050  0.00  0.00    -0.066 N 
HETATM    7  H           1     -21.880  -4.653  -2.069  0.00  0.00     0.275 HD
HETATM    8  H           1     -22.554  -5.858  -1.065  0.00  0.00     0.275 HD
HETATM    9  H           1     -23.187  -5.596  -2.627  0.00  0.00     0.275 HD
ENDBRANCH   5   6
BRANCH   5  10
HETATM   10  C           1     -21.576  -7.953  -1.932  0.00  0.00     0.021 C 
HETATM   11  C           1     -20.230  -8.605  -1.641  0.00  0.00     0.012 C 
BRANCH  10  12
HETATM   12  C           1     -22.331  -7.746  -0.626  0.00  0.00     0.002 C 
HETATM   13  C           1     -21.577  -8.425   0.510  0.00  0.00     0.005 C 
ENDBRANCH  10  12
ENDBRANCH   5  10
ENDBRANCH   4   5
BRANCH   3  14
HETATM   14  C           1     -21.577  -5.809  -6.349  0.00  0.00     0.181 C 
HETATM   15  C           1     -22.340  -4.595  -6.863  0.00  0.00     0.043 C 
BRANCH  14  16
HETATM   16  C           1     -20.245  -5.902  -7.050  0.00  0.00     0.196 C 
HETATM   17  O           1     -19.527  -6.914  -6.898  0.00  0.00    -0.646 OA
HETATM   18  O           1     -19.858  -4.966  -7.783  0.00  0.00    -0.646 OA
ENDBRANCH  14  16
ENDBRANCH   3  14
TORSDOF 6
ENDMDL
MODEL 9
REMARK VINA RESULT:      -5.2     14.259     16.503
REMARK  6 active torsions:
REMARK  status: ('A' for Active; 'I' for Inactive)
REMARK    1  A    between atoms: C_3  and  C_15 
REMARK    2  A    between atoms: N_8  and  C_13 
REMARK    3  A    between atoms: N_11  and  C_15 
REMARK       I    between atoms: N_11  and  C_12 
REMARK    4  A    between atoms: C_12  and  C_13 
REMARK    5  A    between atoms: C_13  and  C_16 
REMARK    6  A    between atoms: C_16  and  C_18 
ROOT
HETATM    1  H           1     -21.771  -7.055  -6.888  0.00  0.00     0.163 HD
HETATM    2  O           1     -20.872  -4.085  -6.430  0.00  0.00    -0.271 OA
HETATM    3  N           1     -21.317  -6.273  -6.434  0.00  0.00    -0.345 N 
HETATM    4  C           1     -21.414  -5.018  -6.973  0.00  0.00     0.249 C 
ENDROOT
BRANCH   4   5
HETATM    5  C           1     -22.199  -4.800  -8.242  0.00  0.00     0.278 C 
BRANCH   5   6
HETATM    6  N           1     -23.494  -4.116  -7.918  0.00  0.00    -0.066 N 
HETATM    7  H           1     -24.292  -4.735  -8.190  0.00  0.00     0.275 HD
HETATM    8  H           1     -23.555  -3.217  -8.447  0.00  0.00     0.275 HD
HETATM    9  H           1     -23.539  -3.921  -6.893  0.00  0.00     0.275 HD
ENDBRANCH   5   6
BRANCH   5  10
HETATM   10  C           1     -21.392  -3.931  -9.197  0.00  0.00     0.021 C 
HETATM   11  C           1     -20.165  -4.700  -9.670  0.00  0.00     0.012 C 
BRANCH  10  12
HETATM   12  C           1     -22.253  -3.564 -10.399  0.00  0.00     0.002 C 
HETATM   13  C           1     -21.601  -4.089 -11.671  0.00  0.00     0.005 C 
ENDBRANCH  10  12
ENDBRANCH   5  10
ENDBRANCH   4   5
BRANCH   3  14
HETATM   14  C           1     -20.562  -6.482  -5.214  0.00  0.00     0.181 C 
HETATM   15  C           1     -21.463  -6.232  -4.012  0.00  0.00     0.043 C 
BRANCH  14  16
HETATM   16  C           1     -20.054  -7.902  -5.176  0.00  0.00     0.196 C 
HETATM   17  O           1     -19.216  -8.289  -6.020  0.00  0.00    -0.646 OA
HETATM   18  O           1     -20.469  -8.692  -4.300  0.00  0.00    -0.646 OA
ENDBRANCH  14  16
ENDBRANCH   3  14
TORSDOF 6
ENDMDL
