MODEL 1
REMARK VINA RESULT:      -6.1      0.000      0.000
REMARK  10 active torsions:
REMARK  status: ('A' for Active; 'I' for Inactive)
REMARK    1  A    between atoms: O_1  and  C_2 
REMARK    2  A    between atoms: C_2  and  C_3 
REMARK    3  A    between atoms: C_3  and  C_4 
REMARK    4  A    between atoms: C_3  and  N_18 
REMARK    5  A    between atoms: N_9  and  C_16 
REMARK    6  A    between atoms: O_12  and  P_13 
REMARK    7  A    between atoms: P_13  and  O_14 
REMARK    8  A    between atoms: O_14  and  C_15 
REMARK    9  A    between atoms: C_15  and  C_16 
REMARK   10  A    between atoms: C_16  and  C_17 
REMARK       I    between atoms: C_17  and  N_18 
ROOT
HETATM    1  C           1     -36.066  -0.052 -12.437  0.00  0.00     0.298 C 
ENDROOT
BRANCH   1   2
HETATM    2  N           1     -34.892   0.639 -13.066  0.00  0.00    -0.064 N 
HETATM    3  H           1     -34.446   0.002 -13.764  0.00  0.00     0.275 HD
HETATM    4  H           1     -35.215   1.510 -13.545  0.00  0.00     0.275 HD
HETATM    5  H           1     -34.195   0.884 -12.326  0.00  0.00     0.275 HD
ENDBRANCH   1   2
BRANCH   1   6
HETATM    6  C           1     -37.258   0.010 -13.383  0.00  0.00     0.224 C 
BRANCH   6   7
HETATM    7  O           1     -37.072  -0.905 -14.429  0.00  0.00    -0.287 OA
BRANCH   7   8
HETATM    8  P           1     -36.409  -0.314 -15.778  0.00  0.00     0.406 P 
HETATM    9  O           1     -37.143  -0.831 -16.955  0.00  0.00    -0.624 OA
HETATM   10  O           1     -34.992  -0.735 -15.855  0.00  0.00    -0.624 OA
BRANCH   8  11
HETATM   11  O           1     -36.490   1.298 -15.758  0.00  0.00    -0.300 OA
HETATM   12  H           1     -35.599   1.590 -15.842  0.00  0.00     0.223 HD
ENDBRANCH   8  11
ENDBRANCH   7   8
ENDBRANCH   6   7
ENDBRANCH   1   6
BRANCH   1  13
HETATM   13  C           1     -35.713  -1.493 -12.164  0.00  0.00     0.251 C 
HETATM   14  O           1     -36.308  -2.109 -11.312  0.00  0.00    -0.271 OA
HETATM   15  N           1     -34.719  -2.103 -12.881  0.00  0.00    -0.343 N 
HETATM   16  H           1     -34.222  -1.587 -13.596  0.00  0.00     0.163 HD
BRANCH  15  17
HETATM   17  C           1     -34.381  -3.488 -12.618  0.00  0.00     0.209 C 
BRANCH  17  18
HETATM   18  C           1     -34.209  -4.227 -13.939  0.00  0.00     0.200 C 
BRANCH  18  19
HETATM   19  O           1     -34.382  -3.330 -15.003  0.00  0.00    -0.398 OA
HETATM   20  H           1     -34.423  -2.466 -14.629  0.00  0.00     0.209 HD
ENDBRANCH  18  19
ENDBRANCH  17  18
BRANCH  17  21
HETATM   21  C           1     -33.093  -3.550 -11.835  0.00  0.00     0.198 C 
HETATM   22  O           1     -32.264  -4.456 -12.067  0.00  0.00    -0.646 OA
HETATM   23  O           1     -32.855  -2.696 -10.954  0.00  0.00    -0.646 OA
ENDBRANCH  17  21
ENDBRANCH  15  17
ENDBRANCH   1  13
TORSDOF 10
ENDMDL
MODEL 2
REMARK VINA RESULT:      -6.0      2.275      4.883
REMARK  10 active torsions:
REMARK  status: ('A' for Active; 'I' for Inactive)
REMARK    1  A    between atoms: O_1  and  C_2 
REMARK    2  A    between atoms: C_2  and  C_3 
REMARK    3  A    between atoms: C_3  and  C_4 
REMARK    4  A    between atoms: C_3  and  N_18 
REMARK    5  A    between atoms: N_9  and  C_16 
REMARK    6  A    between atoms: O_12  and  P_13 
REMARK    7  A    between atoms: P_13  and  O_14 
REMARK    8  A    between atoms: O_14  and  C_15 
REMARK    9  A    between atoms: C_15  and  C_16 
REMARK   10  A    between atoms: C_16  and  C_17 
REMARK       I    between atoms: C_17  and  N_18 
ROOT
HETATM    1  C           1     -35.562  -1.014 -11.164  0.00  0.00     0.298 C 
ENDROOT
BRANCH   1   2
HETATM    2  N           1     -36.331  -0.429 -10.017  0.00  0.00    -0.064 N 
HETATM    3  H           1     -36.752  -1.199  -9.450  0.00  0.00     0.275 HD
HETATM    4  H           1     -35.687   0.133  -9.416  0.00  0.00     0.275 HD
HETATM    5  H           1     -37.092   0.186 -10.386  0.00  0.00     0.275 HD
ENDBRANCH   1   2
BRANCH   1   6
HETATM    6  C           1     -35.559  -2.533 -11.051  0.00  0.00     0.224 C 
BRANCH   6   7
HETATM    7  O           1     -35.347  -3.096 -12.318  0.00  0.00    -0.287 OA
BRANCH   7   8
HETATM    8  P           1     -34.030  -4.018 -12.471  0.00  0.00     0.406 P 
HETATM    9  O           1     -34.318  -5.376 -11.956  0.00  0.00    -0.624 OA
HETATM   10  O           1     -32.919  -3.422 -11.696  0.00  0.00    -0.624 OA
BRANCH   8  11
HETATM   11  O           1     -33.612  -4.110 -14.027  0.00  0.00    -0.300 OA
HETATM   12  H           1     -33.261  -4.976 -14.136  0.00  0.00     0.223 HD
ENDBRANCH   8  11
ENDBRANCH   7   8
ENDBRANCH   6   7
ENDBRANCH   1   6
BRANCH   1  13
HETATM   13  C           1     -36.212  -0.607 -12.464  0.00  0.00     0.251 C 
HETATM   14  O           1     -37.414  -0.503 -12.531  0.00  0.00    -0.271 OA
HETATM   15  N           1     -35.440  -0.354 -13.566  0.00  0.00    -0.343 N 
HETATM   16  H           1     -34.433  -0.440 -13.510  0.00  0.00     0.163 HD
BRANCH  15  17
HETATM   17  C           1     -36.065   0.038 -14.815  0.00  0.00     0.209 C 
BRANCH  17  18
HETATM   18  C           1     -35.540   1.403 -15.237  0.00  0.00     0.200 C 
BRANCH  18  19
HETATM   19  O           1     -36.445   1.998 -16.127  0.00  0.00    -0.398 OA
HETATM   20  H           1     -37.131   2.380 -15.607  0.00  0.00     0.209 HD
ENDBRANCH  18  19
ENDBRANCH  17  18
BRANCH  17  21
HETATM   21  C           1     -35.739  -0.979 -15.880  0.00  0.00     0.198 C 
HETATM   22  O           1     -36.150  -0.813 -17.049  0.00  0.00    -0.646 OA
HETATM   23  O           1     -35.057  -1.987 -15.594  0.00  0.00    -0.646 OA
ENDBRANCH  17  21
ENDBRANCH  15  17
ENDBRANCH   1  13
TORSDOF 10
ENDMDL
MODEL 3
REMARK VINA RESULT:      -5.9      2.108      2.890
REMARK  10 active torsions:
REMARK  status: ('A' for Active; 'I' for Inactive)
REMARK    1  A    between atoms: O_1  and  C_2 
REMARK    2  A    between atoms: C_2  and  C_3 
REMARK    3  A    between atoms: C_3  and  C_4 
REMARK    4  A    between atoms: C_3  and  N_18 
REMARK    5  A    between atoms: N_9  and  C_16 
REMARK    6  A    between atoms: O_12  and  P_13 
REMARK    7  A    between atoms: P_13  and  O_14 
REMARK    8  A    between atoms: O_14  and  C_15 
REMARK    9  A    between atoms: C_15  and  C_16 
REMARK   10  A    between atoms: C_16  and  C_17 
REMARK       I    between atoms: C_17  and  N_18 
ROOT
HETATM    1  C           1     -36.539  -1.108 -10.370  0.00  0.00     0.298 C 
ENDROOT
BRANCH   1   2
HETATM    2  N           1     -36.158  -0.157  -9.274  0.00  0.00    -0.064 N 
HETATM    3  H           1     -36.252  -0.635  -8.349  0.00  0.00     0.275 HD
HETATM    4  H           1     -35.168   0.151  -9.408  0.00  0.00     0.275 HD
HETATM    5  H           1     -36.789   0.675  -9.300  0.00  0.00     0.275 HD
ENDBRANCH   1   2
BRANCH   1   6
HETATM    6  C           1     -37.021  -0.320 -11.581  0.00  0.00     0.224 C 
BRANCH   6   7
HETATM    7  O           1     -36.824  -1.080 -12.742  0.00  0.00    -0.287 OA
BRANCH   7   8
HETATM    8  P           1     -36.039  -0.344 -13.946  0.00  0.00     0.406 P 
HETATM    9  O           1     -35.090   0.643 -13.383  0.00  0.00    -0.624 OA
HETATM   10  O           1     -37.014   0.349 -14.818  0.00  0.00    -0.624 OA
BRANCH   8  11
HETATM   11  O           1     -35.228  -1.439 -14.811  0.00  0.00    -0.300 OA
HETATM   12  H           1     -34.512  -0.964 -15.198  0.00  0.00     0.223 HD
ENDBRANCH   8  11
ENDBRANCH   7   8
ENDBRANCH   6   7
ENDBRANCH   1   6
BRANCH   1  13
HETATM   13  C           1     -35.339  -1.938 -10.753  0.00  0.00     0.251 C 
HETATM   14  O           1     -34.247  -1.427 -10.817  0.00  0.00    -0.271 OA
HETATM   15  N           1     -35.489  -3.271 -11.029  0.00  0.00    -0.343 N 
HETATM   16  H           1     -36.404  -3.700 -10.975  0.00  0.00     0.163 HD
BRANCH  15  17
HETATM   17  C           1     -34.335  -4.069 -11.397  0.00  0.00     0.209 C 
BRANCH  17  18
HETATM   18  C           1     -34.327  -5.355 -10.581  0.00  0.00     0.200 C 
BRANCH  18  19
HETATM   19  O           1     -33.474  -6.288 -11.187  0.00  0.00    -0.398 OA
HETATM   20  H           1     -33.913  -6.600 -11.959  0.00  0.00     0.209 HD
ENDBRANCH  18  19
ENDBRANCH  17  18
BRANCH  17  21
HETATM   21  C           1     -34.405  -4.405 -12.867  0.00  0.00     0.198 C 
HETATM   22  O           1     -35.123  -5.350 -13.257  0.00  0.00    -0.646 OA
HETATM   23  O           1     -33.745  -3.738 -13.693  0.00  0.00    -0.646 OA
ENDBRANCH  17  21
ENDBRANCH  15  17
ENDBRANCH   1  13
TORSDOF 10
ENDMDL
MODEL 4
REMARK VINA RESULT:      -5.8      3.050      5.498
REMARK  10 active torsions:
REMARK  status: ('A' for Active; 'I' for Inactive)
REMARK    1  A    between atoms: O_1  and  C_2 
REMARK    2  A    between atoms: C_2  and  C_3 
REMARK    3  A    between atoms: C_3  and  C_4 
REMARK    4  A    between atoms: C_3  and  N_18 
REMARK    5  A    between atoms: N_9  and  C_16 
REMARK    6  A    between atoms: O_12  and  P_13 
REMARK    7  A    between atoms: P_13  and  O_14 
REMARK    8  A    between atoms: O_14  and  C_15 
REMARK    9  A    between atoms: C_15  and  C_16 
REMARK   10  A    between atoms: C_16  and  C_17 
REMARK       I    between atoms: C_17  and  N_18 
ROOT
HETATM    1  C           1     -35.668  -1.647 -11.494  0.00  0.00     0.298 C 
ENDROOT
BRANCH   1   2
HETATM    2  N           1     -34.271  -1.141 -11.288  0.00  0.00    -0.064 N 
HETATM    3  H           1     -34.201  -0.158 -11.637  0.00  0.00     0.275 HD
HETATM    4  H           1     -34.037  -1.166 -10.270  0.00  0.00     0.275 HD
HETATM    5  H           1     -33.601  -1.744 -11.816  0.00  0.00     0.275 HD
ENDBRANCH   1   2
BRANCH   1   6
HETATM    6  C           1     -36.496  -1.373 -10.246  0.00  0.00     0.224 C 
BRANCH   6   7
HETATM    7  O           1     -36.006  -0.228  -9.601  0.00  0.00    -0.287 OA
BRANCH   7   8
HETATM    8  P           1     -37.093   0.650  -8.792  0.00  0.00     0.406 P 
HETATM    9  O           1     -37.876  -0.237  -7.901  0.00  0.00    -0.624 OA
HETATM   10  O           1     -38.003   1.313  -9.753  0.00  0.00    -0.624 OA
BRANCH   8  11
HETATM   11  O           1     -36.336   1.768  -7.908  0.00  0.00    -0.300 OA
HETATM   12  H           1     -35.427   1.523  -7.929  0.00  0.00     0.223 HD
ENDBRANCH   8  11
ENDBRANCH   7   8
ENDBRANCH   6   7
ENDBRANCH   1   6
BRANCH   1  13
HETATM   13  C           1     -36.288  -0.942 -12.675  0.00  0.00     0.251 C 
HETATM   14  O           1     -37.432  -0.555 -12.616  0.00  0.00    -0.271 OA
HETATM   15  N           1     -35.556  -0.739 -13.814  0.00  0.00    -0.343 N 
HETATM   16  H           1     -34.598  -1.062 -13.864  0.00  0.00     0.163 HD
BRANCH  15  17
HETATM   17  C           1     -36.152  -0.062 -14.949  0.00  0.00     0.209 C 
BRANCH  17  18
HETATM   18  C           1     -35.455   1.275 -15.164  0.00  0.00     0.200 C 
BRANCH  18  19
HETATM   19  O           1     -36.190   2.044 -16.077  0.00  0.00    -0.398 OA
HETATM   20  H           1     -36.541   1.449 -16.717  0.00  0.00     0.209 HD
ENDBRANCH  18  19
ENDBRANCH  17  18
BRANCH  17  21
HETATM   21  C           1     -35.996  -0.916 -16.183  0.00  0.00     0.198 C 
HETATM   22  O           1     -35.157  -1.841 -16.200  0.00  0.00    -0.646 OA
HETATM   23  O           1     -36.706  -0.697 -17.188  0.00  0.00    -0.646 OA
ENDBRANCH  17  21
ENDBRANCH  15  17
ENDBRANCH   1  13
TORSDOF 10
ENDMDL
MODEL 5
REMARK VINA RESULT:      -5.8     11.450     13.500
REMARK  10 active torsions:
REMARK  status: ('A' for Active; 'I' for Inactive)
REMARK    1  A    between atoms: O_1  and  C_2 
REMARK    2  A    between atoms: C_2  and  C_3 
REMARK    3  A    between atoms: C_3  and  C_4 
REMARK    4  A    between atoms: C_3  and  N_18 
REMARK    5  A    between atoms: N_9  and  C_16 
REMARK    6  A    between atoms: O_12  and  P_13 
REMARK    7  A    between atoms: P_13  and  O_14 
REMARK    8  A    between atoms: O_14  and  C_15 
REMARK    9  A    between atoms: C_15  and  C_16 
REMARK   10  A    between atoms: C_16  and  C_17 
REMARK       I    between atoms: C_17  and  N_18 
ROOT
HETATM    1  C           1     -24.027  -4.350 -10.551  0.00  0.00     0.298 C 
ENDROOT
BRANCH   1   2
HETATM    2  N           1     -25.070  -4.279  -9.475  0.00  0.00    -0.064 N 
HETATM    3  H           1     -25.301  -3.278  -9.279  0.00  0.00     0.275 HD
HETATM    4  H           1     -25.931  -4.780  -9.790  0.00  0.00     0.275 HD
HETATM    5  H           1     -24.703  -4.726  -8.605  0.00  0.00     0.275 HD
ENDBRANCH   1   2
BRANCH   1   6
HETATM    6  C           1     -23.983  -3.027 -11.304  0.00  0.00     0.224 C 
BRANCH   6   7
HETATM    7  O           1     -24.589  -3.183 -12.559  0.00  0.00    -0.287 OA
BRANCH   7   8
HETATM    8  P           1     -23.617  -3.025 -13.839  0.00  0.00     0.406 P 
HETATM    9  O           1     -23.764  -1.664 -14.402  0.00  0.00    -0.624 OA
HETATM   10  O           1     -23.986  -4.027 -14.864  0.00  0.00    -0.624 OA
BRANCH   8  11
HETATM   11  O           1     -22.085  -3.257 -13.386  0.00  0.00    -0.300 OA
HETATM   12  H           1     -21.919  -4.170 -13.543  0.00  0.00     0.223 HD
ENDBRANCH   8  11
ENDBRANCH   7   8
ENDBRANCH   6   7
ENDBRANCH   1   6
BRANCH   1  13
HETATM   13  C           1     -22.680  -4.620  -9.926  0.00  0.00     0.251 C 
HETATM   14  O           1     -21.689  -4.652 -10.617  0.00  0.00    -0.271 OA
HETATM   15  N           1     -22.580  -4.828  -8.577  0.00  0.00    -0.343 N 
HETATM   16  H           1     -23.409  -4.801  -7.997  0.00  0.00     0.163 HD
BRANCH  15  17
HETATM   17  C           1     -21.285  -5.087  -7.977  0.00  0.00     0.209 C 
BRANCH  17  18
HETATM   18  C           1     -20.633  -3.766  -7.590  0.00  0.00     0.200 C 
BRANCH  18  19
HETATM   19  O           1     -21.593  -2.921  -7.018  0.00  0.00    -0.398 OA
HETATM   20  H           1     -21.295  -2.037  -7.151  0.00  0.00     0.209 HD
ENDBRANCH  18  19
ENDBRANCH  17  18
BRANCH  17  21
HETATM   21  C           1     -21.463  -5.941  -6.746  0.00  0.00     0.198 C 
HETATM   22  O           1     -22.208  -5.554  -5.820  0.00  0.00    -0.646 OA
HETATM   23  O           1     -20.866  -7.035  -6.652  0.00  0.00    -0.646 OA
ENDBRANCH  17  21
ENDBRANCH  15  17
ENDBRANCH   1  13
TORSDOF 10
ENDMDL
MODEL 6
REMARK VINA RESULT:      -5.8     11.928     13.593
REMARK  10 active torsions:
REMARK  status: ('A' for Active; 'I' for Inactive)
REMARK    1  A    between atoms: O_1  and  C_2 
REMARK    2  A    between atoms: C_2  and  C_3 
REMARK    3  A    between atoms: C_3  and  C_4 
REMARK    4  A    between atoms: C_3  and  N_18 
REMARK    5  A    between atoms: N_9  and  C_16 
REMARK    6  A    between atoms: O_12  and  P_13 
REMARK    7  A    between atoms: P_13  and  O_14 
REMARK    8  A    between atoms: O_14  and  C_15 
REMARK    9  A    between atoms: C_15  and  C_16 
REMARK   10  A    between atoms: C_16  and  C_17 
REMARK       I    between atoms: C_17  and  N_18 
ROOT
HETATM    1  C           1     -22.680  -4.053 -11.221  0.00  0.00     0.298 C 
ENDROOT
BRANCH   1   2
HETATM    2  N           1     -23.553  -5.216 -11.590  0.00  0.00    -0.064 N 
HETATM    3  H           1     -24.531  -5.033 -11.271  0.00  0.00     0.275 HD
HETATM    4  H           1     -23.544  -5.343 -12.628  0.00  0.00     0.275 HD
HETATM    5  H           1     -23.194  -6.082 -11.129  0.00  0.00     0.275 HD
ENDBRANCH   1   2
BRANCH   1   6
HETATM    6  C           1     -23.172  -2.802 -11.936  0.00  0.00     0.224 C 
BRANCH   6   7
HETATM    7  O           1     -22.432  -2.615 -13.113  0.00  0.00    -0.287 OA
BRANCH   7   8
HETATM    8  P           1     -23.269  -2.684 -14.492  0.00  0.00     0.406 P 
HETATM    9  O           1     -22.334  -2.621 -15.638  0.00  0.00    -0.624 OA
HETATM   10  O           1     -24.208  -1.542 -14.557  0.00  0.00    -0.624 OA
BRANCH   8  11
HETATM   11  O           1     -24.099  -4.068 -14.552  0.00  0.00    -0.300 OA
HETATM   12  H           1     -25.004  -3.809 -14.567  0.00  0.00     0.223 HD
ENDBRANCH   8  11
ENDBRANCH   7   8
ENDBRANCH   6   7
ENDBRANCH   1   6
BRANCH   1  13
HETATM   13  C           1     -22.738  -3.837  -9.728  0.00  0.00     0.251 C 
HETATM   14  O           1     -23.677  -3.255  -9.239  0.00  0.00    -0.271 OA
HETATM   15  N           1     -21.727  -4.299  -8.929  0.00  0.00    -0.343 N 
HETATM   16  H           1     -20.941  -4.787  -9.339  0.00  0.00     0.163 HD
BRANCH  15  17
HETATM   17  C           1     -21.784  -4.091  -7.495  0.00  0.00     0.209 C 
BRANCH  17  18
HETATM   18  C           1     -22.748  -5.095  -6.876  0.00  0.00     0.200 C 
BRANCH  18  19
HETATM   19  O           1     -23.985  -4.475  -6.646  0.00  0.00    -0.398 OA
HETATM   20  H           1     -24.645  -5.035  -7.016  0.00  0.00     0.209 HD
ENDBRANCH  18  19
ENDBRANCH  17  18
BRANCH  17  21
HETATM   21  C           1     -20.409  -4.283  -6.905  0.00  0.00     0.198 C 
HETATM   22  O           1     -20.270  -4.399  -5.669  0.00  0.00    -0.646 OA
HETATM   23  O           1     -19.408  -4.328  -7.653  0.00  0.00    -0.646 OA
ENDBRANCH  17  21
ENDBRANCH  15  17
ENDBRANCH   1  13
TORSDOF 10
ENDMDL
MODEL 7
REMARK VINA RESULT:      -5.6      2.841      5.287
REMARK  10 active torsions:
REMARK  status: ('A' for Active; 'I' for Inactive)
REMARK    1  A    between atoms: O_1  and  C_2 
REMARK    2  A    between atoms: C_2  and  C_3 
REMARK    3  A    between atoms: C_3  and  C_4 
REMARK    4  A    between atoms: C_3  and  N_18 
REMARK    5  A    between atoms: N_9  and  C_16 
REMARK    6  A    between atoms: O_12  and  P_13 
REMARK    7  A    between atoms: P_13  and  O_14 
REMARK    8  A    between atoms: O_14  and  C_15 
REMARK    9  A    between atoms: C_15  and  C_16 
REMARK   10  A    between atoms: C_16  and  C_17 
REMARK       I    between atoms: C_17  and  N_18 
ROOT
HETATM    1  C           1     -35.132  -2.269 -11.285  0.00  0.00     0.298 C 
ENDROOT
BRANCH   1   2
HETATM    2  N           1     -33.822  -1.798 -10.726  0.00  0.00    -0.064 N 
HETATM    3  H           1     -33.307  -1.255 -11.455  0.00  0.00     0.275 HD
HETATM    4  H           1     -33.996  -1.188  -9.896  0.00  0.00     0.275 HD
HETATM    5  H           1     -33.249  -2.624 -10.440  0.00  0.00     0.275 HD
ENDBRANCH   1   2
BRANCH   1   6
HETATM    6  C           1     -36.274  -1.672 -10.473  0.00  0.00     0.224 C 
BRANCH   6   7
HETATM    7  O           1     -35.913  -0.391 -10.030  0.00  0.00    -0.287 OA
BRANCH   7   8
HETATM    8  P           1     -37.043   0.417  -9.207  0.00  0.00     0.406 P 
HETATM    9  O           1     -37.692  -0.495  -8.238  0.00  0.00    -0.624 OA
HETATM   10  O           1     -38.058   0.940 -10.149  0.00  0.00    -0.624 OA
BRANCH   8  11
HETATM   11  O           1     -36.359   1.646  -8.415  0.00  0.00    -0.300 OA
HETATM   12  H           1     -35.626   1.267  -7.962  0.00  0.00     0.223 HD
ENDBRANCH   8  11
ENDBRANCH   7   8
ENDBRANCH   6   7
ENDBRANCH   1   6
BRANCH   1  13
HETATM   13  C           1     -35.251  -1.828 -12.723  0.00  0.00     0.251 C 
HETATM   14  O           1     -34.707  -2.463 -13.596  0.00  0.00    -0.271 OA
HETATM   15  N           1     -35.976  -0.710 -13.040  0.00  0.00    -0.343 N 
HETATM   16  H           1     -36.432  -0.180 -12.309  0.00  0.00     0.163 HD
BRANCH  15  17
HETATM   17  C           1     -36.090  -0.288 -14.422  0.00  0.00     0.209 C 
BRANCH  17  18
HETATM   18  C           1     -37.559  -0.085 -14.770  0.00  0.00     0.200 C 
BRANCH  18  19
HETATM   19  O           1     -37.715  -0.092 -16.163  0.00  0.00    -0.398 OA
HETATM   20  H           1     -37.077   0.505 -16.513  0.00  0.00     0.209 HD
ENDBRANCH  18  19
ENDBRANCH  17  18
BRANCH  17  21
HETATM   21  C           1     -35.344   1.009 -14.614  0.00  0.00     0.198 C 
HETATM   22  O           1     -35.589   1.730 -15.604  0.00  0.00    -0.646 OA
HETATM   23  O           1     -34.480   1.362 -13.781  0.00  0.00    -0.646 OA
ENDBRANCH  17  21
ENDBRANCH  15  17
ENDBRANCH   1  13
TORSDOF 10
ENDMDL
MODEL 8
REMARK VINA RESULT:      -5.5      1.941      4.781
REMARK  10 active torsions:
REMARK  status: ('A' for Active; 'I' for Inactive)
REMARK    1  A    between atoms: O_1  and  C_2 
REMARK    2  A    between atoms: C_2  and  C_3 
REMARK    3  A    between atoms: C_3  and  C_4 
REMARK    4  A    between atoms: C_3  and  N_18 
REMARK    5  A    between atoms: N_9  and  C_16 
REMARK    6  A    between atoms: O_12  and  P_13 
REMARK    7  A    between atoms: P_13  and  O_14 
REMARK    8  A    between atoms: O_14  and  C_15 
REMARK    9  A    between atoms: C_15  and  C_16 
REMARK   10  A    between atoms: C_16  and  C_17 
REMARK       I    between atoms: C_17  and  N_18 
ROOT
HETATM    1  C           1     -33.847  -2.994 -12.006  0.00  0.00     0.298 C 
ENDROOT
BRANCH   1   2
HETATM    2  N           1     -34.030  -3.524 -10.614  0.00  0.00    -0.064 N 
HETATM    3  H           1     -33.111  -3.524 -10.117  0.00  0.00     0.275 HD
HETATM    4  H           1     -34.705  -2.917 -10.097  0.00  0.00     0.275 HD
HETATM    5  H           1     -34.400  -4.500 -10.659  0.00  0.00     0.275 HD
ENDBRANCH   1   2
BRANCH   1   6
HETATM    6  C           1     -34.343  -4.026 -13.011  0.00  0.00     0.224 C 
BRANCH   6   7
HETATM    7  O           1     -33.483  -4.050 -14.119  0.00  0.00    -0.287 OA
BRANCH   7   8
HETATM    8  P           1     -34.172  -4.382 -15.541  0.00  0.00     0.406 P 
HETATM    9  O           1     -34.698  -3.132 -16.136  0.00  0.00    -0.624 OA
HETATM   10  O           1     -35.283  -5.339 -15.339  0.00  0.00    -0.624 OA
BRANCH   8  11
HETATM   11  O           1     -33.076  -5.031 -16.534  0.00  0.00    -0.300 OA
HETATM   12  H           1     -32.282  -5.070 -16.030  0.00  0.00     0.223 HD
ENDBRANCH   8  11
ENDBRANCH   7   8
ENDBRANCH   6   7
ENDBRANCH   1   6
BRANCH   1  13
HETATM   13  C           1     -34.634  -1.717 -12.164  0.00  0.00     0.251 C 
HETATM   14  O           1     -34.958  -1.082 -11.189  0.00  0.00    -0.271 OA
HETATM   15  N           1     -34.982  -1.276 -13.414  0.00  0.00    -0.343 N 
HETATM   16  H           1     -34.710  -1.807 -14.231  0.00  0.00     0.163 HD
BRANCH  15  17
HETATM   17  C           1     -35.738  -0.049 -13.565  0.00  0.00     0.209 C 
BRANCH  17  18
HETATM   18  C           1     -34.874   0.996 -14.260  0.00  0.00     0.200 C 
BRANCH  18  19
HETATM   19  O           1     -35.632   1.651 -15.241  0.00  0.00    -0.398 OA
HETATM   20  H           1     -35.250   2.504 -15.357  0.00  0.00     0.209 HD
ENDBRANCH  18  19
ENDBRANCH  17  18
BRANCH  17  21
HETATM   21  C           1     -36.970  -0.317 -14.394  0.00  0.00     0.198 C 
HETATM   22  O           1     -36.885  -1.003 -15.435  0.00  0.00    -0.646 OA
HETATM   23  O           1     -38.075   0.148 -14.039  0.00  0.00    -0.646 OA
ENDBRANCH  17  21
ENDBRANCH  15  17
ENDBRANCH   1  13
TORSDOF 10
ENDMDL
MODEL 9
REMARK VINA RESULT:      -5.4     12.514     15.559
REMARK  10 active torsions:
REMARK  status: ('A' for Active; 'I' for Inactive)
REMARK    1  A    between atoms: O_1  and  C_2 
REMARK    2  A    between atoms: C_2  and  C_3 
REMARK    3  A    between atoms: C_3  and  C_4 
REMARK    4  A    between atoms: C_3  and  N_18 
REMARK    5  A    between atoms: N_9  and  C_16 
REMARK    6  A    between atoms: O_12  and  P_13 
REMARK    7  A    between atoms: P_13  and  O_14 
REMARK    8  A    between atoms: O_14  and  C_15 
REMARK    9  A    between atoms: C_15  and  C_16 
REMARK   10  A    between atoms: C_16  and  C_17 
REMARK       I    between atoms: C_17  and  N_18 
ROOT
HETATM    1  C           1     -21.197  -5.532  -7.574  0.00  0.00     0.298 C 
ENDROOT
BRANCH   1   2
HETATM    2  N           1     -19.820  -6.124  -7.633  0.00  0.00    -0.064 N 
HETATM    3  H           1     -19.420  -5.982  -8.588  0.00  0.00     0.275 HD
HETATM    4  H           1     -19.209  -5.657  -6.926  0.00  0.00     0.275 HD
HETATM    5  H           1     -19.873  -7.148  -7.428  0.00  0.00     0.275 HD
ENDBRANCH   1   2
BRANCH   1   6
HETATM    6  C           1     -21.353  -4.736  -6.285  0.00  0.00     0.224 C 
BRANCH   6   7
HETATM    7  O           1     -20.814  -5.467  -5.216  0.00  0.00    -0.287 OA
BRANCH   7   8
HETATM    8  P           1     -21.850  -6.402  -4.404  0.00  0.00     0.406 P 
HETATM    9  O           1     -21.432  -7.818  -4.523  0.00  0.00    -0.624 OA
HETATM   10  O           1     -23.208  -6.239  -4.970  0.00  0.00    -0.624 OA
BRANCH   8  11
HETATM   11  O           1     -21.860  -5.973  -2.848  0.00  0.00    -0.300 OA
HETATM   12  H           1     -21.239  -6.545  -2.432  0.00  0.00     0.223 HD
ENDBRANCH   8  11
ENDBRANCH   7   8
ENDBRANCH   6   7
ENDBRANCH   1   6
BRANCH   1  13
HETATM   13  C           1     -21.401  -4.618  -8.758  0.00  0.00     0.251 C 
HETATM   14  O           1     -20.492  -3.924  -9.148  0.00  0.00    -0.271 OA
HETATM   15  N           1     -22.615  -4.576  -9.390  0.00  0.00    -0.343 N 
HETATM   16  H           1     -23.376  -5.158  -9.063  0.00  0.00     0.163 HD
BRANCH  15  17
HETATM   17  C           1     -22.810  -3.698 -10.527  0.00  0.00     0.209 C 
BRANCH  17  18
HETATM   18  C           1     -22.467  -4.446 -11.809  0.00  0.00     0.200 C 
BRANCH  18  19
HETATM   19  O           1     -21.962  -3.545 -12.756  0.00  0.00    -0.398 OA
HETATM   20  H           1     -22.690  -3.264 -13.283  0.00  0.00     0.209 HD
ENDBRANCH  18  19
ENDBRANCH  17  18
BRANCH  17  21
HETATM   21  C           1     -24.250  -3.250 -10.575  0.00  0.00     0.198 C 
HETATM   22  O           1     -24.831  -3.133 -11.674  0.00  0.00    -0.646 OA
HETATM   23  O           1     -24.860  -2.996  -9.514  0.00  0.00    -0.646 OA
ENDBRANCH  17  21
ENDBRANCH  15  17
ENDBRANCH   1  13
TORSDOF 10
ENDMDL
