MODEL 1
REMARK VINA RESULT:      -6.5      0.000      0.000
REMARK  10 active torsions:
REMARK  status: ('A' for Active; 'I' for Inactive)
REMARK    1  A    between atoms: C_5  and  C_21 
REMARK    2  A    between atoms: C_5  and  C_15 
REMARK    3  A    between atoms: C_5  and  N_16 
REMARK    4  A    between atoms: C_6  and  C_15 
REMARK    5  A    between atoms: C_6  and  C_13 
REMARK    6  A    between atoms: C_10  and  C_23 
REMARK    7  A    between atoms: C_10  and  C_12 
REMARK    8  A    between atoms: C_12  and  C_14 
REMARK    9  A    between atoms: C_12  and  N_19 
REMARK   10  A    between atoms: C_13  and  N_22 
REMARK       I    between atoms: N_19  and  C_21 
ROOT
HETATM    1  C           1     -34.264  -4.044 -12.382  0.00  0.00     0.274 C 
ENDROOT
BRANCH   1   2
HETATM    2  C           1     -34.392  -2.597 -11.975  0.00  0.00     0.249 C 
HETATM    3  O           1     -33.601  -2.116 -11.199  0.00  0.00    -0.271 OA
HETATM    4  N           1     -35.402  -1.829 -12.487  0.00  0.00    -0.344 N 
HETATM    5  H           1     -36.065  -2.232 -13.137  0.00  0.00     0.163 HD
BRANCH   4   6
HETATM    6  C           1     -35.524  -0.438 -12.096  0.00  0.00     0.189 C 
BRANCH   6   7
HETATM    7  C           1     -35.839   0.408 -13.324  0.00  0.00     0.014 C 
HETATM    8  C           1     -34.562   1.070 -13.824  0.00  0.00     0.012 C 
BRANCH   7   9
HETATM    9  C           1     -36.412  -0.481 -14.419  0.00  0.00     0.002 C 
HETATM   10  C           1     -36.053   0.095 -15.782  0.00  0.00     0.005 C 
ENDBRANCH   7   9
ENDBRANCH   6   7
BRANCH   6  11
HETATM   11  C           1     -36.636  -0.294 -11.088  0.00  0.00     0.197 C 
HETATM   12  O           1     -36.564   0.579 -10.197  0.00  0.00    -0.646 OA
HETATM   13  O           1     -37.632  -1.049 -11.143  0.00  0.00    -0.646 OA
ENDBRANCH   6  11
ENDBRANCH   4   6
ENDBRANCH   1   2
BRANCH   1  14
HETATM   14  C           1     -33.411  -4.786 -11.361  0.00  0.00     0.044 C 
BRANCH  14  15
HETATM   15  C           1     -34.314  -5.480 -10.351  0.00  0.00     0.030 C 
BRANCH  15  16
HETATM   16  C           1     -34.344  -6.975 -10.639  0.00  0.00     0.230 C 
BRANCH  16  17
HETATM   17  N           1     -35.108  -7.679  -9.558  0.00  0.00    -0.079 N 
HETATM   18  H           1     -35.157  -8.700  -9.775  0.00  0.00     0.274 HD
HETATM   19  H           1     -36.075  -7.288  -9.503  0.00  0.00     0.274 HD
HETATM   20  H           1     -34.625  -7.541  -8.641  0.00  0.00     0.274 HD
ENDBRANCH  16  17
ENDBRANCH  15  16
ENDBRANCH  14  15
ENDBRANCH   1  14
BRANCH   1  21
HETATM   21  N           1     -33.615  -4.130 -13.731  0.00  0.00    -0.067 N 
HETATM   22  H           1     -33.523  -5.132 -14.011  0.00  0.00     0.275 HD
HETATM   23  H           1     -32.667  -3.691 -13.689  0.00  0.00     0.275 HD
HETATM   24  H           1     -34.204  -3.625 -14.432  0.00  0.00     0.275 HD
ENDBRANCH   1  21
TORSDOF 10
ENDMDL
MODEL 2
REMARK VINA RESULT:      -6.1     12.356     14.041
REMARK  10 active torsions:
REMARK  status: ('A' for Active; 'I' for Inactive)
REMARK    1  A    between atoms: C_5  and  C_21 
REMARK    2  A    between atoms: C_5  and  C_15 
REMARK    3  A    between atoms: C_5  and  N_16 
REMARK    4  A    between atoms: C_6  and  C_15 
REMARK    5  A    between atoms: C_6  and  C_13 
REMARK    6  A    between atoms: C_10  and  C_23 
REMARK    7  A    between atoms: C_10  and  C_12 
REMARK    8  A    between atoms: C_12  and  C_14 
REMARK    9  A    between atoms: C_12  and  N_19 
REMARK   10  A    between atoms: C_13  and  N_22 
REMARK       I    between atoms: N_19  and  C_21 
ROOT
HETATM    1  C           1     -21.014  -5.458  -6.907  0.00  0.00     0.274 C 
ENDROOT
BRANCH   1   2
HETATM    2  C           1     -21.662  -4.410  -7.779  0.00  0.00     0.249 C 
HETATM    3  O           1     -21.678  -3.256  -7.426  0.00  0.00    -0.271 OA
HETATM    4  N           1     -22.230  -4.769  -8.972  0.00  0.00    -0.344 N 
HETATM    5  H           1     -22.217  -5.736  -9.268  0.00  0.00     0.163 HD
BRANCH   4   6
HETATM    6  C           1     -22.852  -3.762  -9.810  0.00  0.00     0.189 C 
BRANCH   6   7
HETATM    7  C           1     -22.471  -4.008 -11.264  0.00  0.00     0.014 C 
HETATM    8  C           1     -22.937  -2.834 -12.116  0.00  0.00     0.012 C 
BRANCH   7   9
HETATM    9  C           1     -20.960  -4.148 -11.376  0.00  0.00     0.002 C 
HETATM   10  C           1     -20.306  -2.789 -11.161  0.00  0.00     0.005 C 
ENDBRANCH   7   9
ENDBRANCH   6   7
BRANCH   6  11
HETATM   11  C           1     -24.350  -3.840  -9.661  0.00  0.00     0.197 C 
HETATM   12  O           1     -25.006  -2.812  -9.386  0.00  0.00    -0.646 OA
HETATM   13  O           1     -24.938  -4.933  -9.814  0.00  0.00    -0.646 OA
ENDBRANCH   6  11
ENDBRANCH   4   6
ENDBRANCH   1   2
BRANCH   1  14
HETATM   14  C           1     -21.945  -5.803  -5.752  0.00  0.00     0.044 C 
BRANCH  14  15
HETATM   15  C           1     -21.147  -5.867  -4.457  0.00  0.00     0.030 C 
BRANCH  15  16
HETATM   16  C           1     -21.913  -6.686  -3.427  0.00  0.00     0.230 C 
BRANCH  16  17
HETATM   17  N           1     -22.283  -5.813  -2.266  0.00  0.00    -0.079 N 
HETATM   18  H           1     -23.237  -5.415  -2.421  0.00  0.00     0.274 HD
HETATM   19  H           1     -21.591  -5.035  -2.181  0.00  0.00     0.274 HD
HETATM   20  H           1     -22.281  -6.379  -1.388  0.00  0.00     0.274 HD
ENDBRANCH  16  17
ENDBRANCH  15  16
ENDBRANCH  14  15
ENDBRANCH   1  14
BRANCH   1  21
HETATM   21  N           1     -19.721  -4.927  -6.364  0.00  0.00    -0.067 N 
HETATM   22  H           1     -19.178  -4.476  -7.134  0.00  0.00     0.275 HD
HETATM   23  H           1     -19.165  -5.715  -5.960  0.00  0.00     0.275 HD
HETATM   24  H           1     -19.920  -4.222  -5.619  0.00  0.00     0.275 HD
ENDBRANCH   1  21
TORSDOF 10
ENDMDL
MODEL 3
REMARK VINA RESULT:      -6.0      2.172      3.107
REMARK  10 active torsions:
REMARK  status: ('A' for Active; 'I' for Inactive)
REMARK    1  A    between atoms: C_5  and  C_21 
REMARK    2  A    between atoms: C_5  and  C_15 
REMARK    3  A    between atoms: C_5  and  N_16 
REMARK    4  A    between atoms: C_6  and  C_15 
REMARK    5  A    between atoms: C_6  and  C_13 
REMARK    6  A    between atoms: C_10  and  C_23 
REMARK    7  A    between atoms: C_10  and  C_12 
REMARK    8  A    between atoms: C_12  and  C_14 
REMARK    9  A    between atoms: C_12  and  N_19 
REMARK   10  A    between atoms: C_13  and  N_22 
REMARK       I    between atoms: N_19  and  C_21 
ROOT
HETATM    1  C           1     -33.307  -3.011 -11.585  0.00  0.00     0.274 C 
ENDROOT
BRANCH   1   2
HETATM    2  C           1     -34.334  -2.627 -12.622  0.00  0.00     0.249 C 
HETATM    3  O           1     -34.794  -3.467 -13.358  0.00  0.00    -0.271 OA
HETATM    4  N           1     -34.745  -1.326 -12.728  0.00  0.00    -0.344 N 
HETATM    5  H           1     -34.360  -0.621 -12.112  0.00  0.00     0.163 HD
BRANCH   4   6
HETATM    6  C           1     -35.732  -0.956 -13.724  0.00  0.00     0.189 C 
BRANCH   6   7
HETATM    7  C           1     -36.654   0.114 -13.152  0.00  0.00     0.014 C 
HETATM    8  C           1     -38.069  -0.107 -13.668  0.00  0.00     0.012 C 
BRANCH   7   9
HETATM    9  C           1     -36.648   0.027 -11.632  0.00  0.00     0.002 C 
HETATM   10  C           1     -38.066  -0.213 -11.131  0.00  0.00     0.005 C 
ENDBRANCH   7   9
ENDBRANCH   6   7
BRANCH   6  11
HETATM   11  C           1     -35.034  -0.418 -14.947  0.00  0.00     0.197 C 
HETATM   12  O           1     -35.110  -1.033 -16.032  0.00  0.00    -0.646 OA
HETATM   13  O           1     -34.379   0.645 -14.877  0.00  0.00    -0.646 OA
ENDBRANCH   6  11
ENDBRANCH   4   6
ENDBRANCH   1   2
BRANCH   1  14
HETATM   14  C           1     -33.067  -4.515 -11.641  0.00  0.00     0.044 C 
BRANCH  14  15
HETATM   15  C           1     -33.883  -5.201 -10.554  0.00  0.00     0.030 C 
BRANCH  15  16
HETATM   16  C           1     -34.678  -6.348 -11.162  0.00  0.00     0.230 C 
BRANCH  16  17
HETATM   17  N           1     -34.300  -7.633 -10.487  0.00  0.00    -0.079 N 
HETATM   18  H           1     -34.587  -7.595  -9.482  0.00  0.00     0.274 HD
HETATM   19  H           1     -33.266  -7.768 -10.549  0.00  0.00     0.274 HD
HETATM   20  H           1     -34.785  -8.430 -10.958  0.00  0.00     0.274 HD
ENDBRANCH  16  17
ENDBRANCH  15  16
ENDBRANCH  14  15
ENDBRANCH   1  14
BRANCH   1  21
HETATM   21  N           1     -33.807  -2.636 -10.222  0.00  0.00    -0.067 N 
HETATM   22  H           1     -34.705  -2.110 -10.312  0.00  0.00     0.275 HD
HETATM   23  H           1     -33.097  -2.035  -9.745  0.00  0.00     0.275 HD
HETATM   24  H           1     -33.966  -3.503  -9.660  0.00  0.00     0.275 HD
ENDBRANCH   1  21
TORSDOF 10
ENDMDL
MODEL 4
REMARK VINA RESULT:      -5.9      2.786      5.121
REMARK  10 active torsions:
REMARK  status: ('A' for Active; 'I' for Inactive)
REMARK    1  A    between atoms: C_5  and  C_21 
REMARK    2  A    between atoms: C_5  and  C_15 
REMARK    3  A    between atoms: C_5  and  N_16 
REMARK    4  A    between atoms: C_6  and  C_15 
REMARK    5  A    between atoms: C_6  and  C_13 
REMARK    6  A    between atoms: C_10  and  C_23 
REMARK    7  A    between atoms: C_10  and  C_12 
REMARK    8  A    between atoms: C_12  and  C_14 
REMARK    9  A    between atoms: C_12  and  N_19 
REMARK   10  A    between atoms: C_13  and  N_22 
REMARK       I    between atoms: N_19  and  C_21 
ROOT
HETATM    1  C           1     -36.119   0.365 -14.672  0.00  0.00     0.274 C 
ENDROOT
BRANCH   1   2
HETATM    2  C           1     -36.653  -0.332 -13.445  0.00  0.00     0.249 C 
HETATM    3  O           1     -37.780  -0.766 -13.439  0.00  0.00    -0.271 OA
HETATM    4  N           1     -35.860  -0.474 -12.338  0.00  0.00    -0.344 N 
HETATM    5  H           1     -34.916  -0.110 -12.342  0.00  0.00     0.163 HD
BRANCH   4   6
HETATM    6  C           1     -36.374  -1.144 -11.159  0.00  0.00     0.189 C 
BRANCH   6   7
HETATM    7  C           1     -35.310  -2.083 -10.606  0.00  0.00     0.014 C 
HETATM    8  C           1     -35.760  -3.526 -10.794  0.00  0.00     0.012 C 
BRANCH   7   9
HETATM    9  C           1     -34.000  -1.859 -11.349  0.00  0.00     0.002 C 
HETATM   10  C           1     -33.181  -3.143 -11.334  0.00  0.00     0.005 C 
ENDBRANCH   7   9
ENDBRANCH   6   7
BRANCH   6  11
HETATM   11  C           1     -36.732  -0.118 -10.114  0.00  0.00     0.197 C 
HETATM   12  O           1     -36.145  -0.117  -9.011  0.00  0.00    -0.646 OA
HETATM   13  O           1     -37.616   0.734 -10.351  0.00  0.00    -0.646 OA
ENDBRANCH   6  11
ENDBRANCH   4   6
ENDBRANCH   1   2
BRANCH   1  14
HETATM   14  C           1     -36.464  -0.452 -15.911  0.00  0.00     0.044 C 
BRANCH  14  15
HETATM   15  C           1     -35.183  -0.948 -16.566  0.00  0.00     0.030 C 
BRANCH  15  16
HETATM   16  C           1     -35.116  -2.466 -16.469  0.00  0.00     0.230 C 
BRANCH  16  17
HETATM   17  N           1     -33.895  -2.961 -17.184  0.00  0.00    -0.079 N 
HETATM   18  H           1     -33.348  -3.584 -16.548  0.00  0.00     0.274 HD
HETATM   19  H           1     -33.304  -2.148 -17.469  0.00  0.00     0.274 HD
HETATM   20  H           1     -34.182  -3.497 -18.034  0.00  0.00     0.274 HD
ENDBRANCH  16  17
ENDBRANCH  15  16
ENDBRANCH  14  15
ENDBRANCH   1  14
BRANCH   1  21
HETATM   21  N           1     -34.629   0.500 -14.562  0.00  0.00    -0.067 N 
HETATM   22  H           1     -34.217  -0.412 -14.261  0.00  0.00     0.275 HD
HETATM   23  H           1     -34.398   1.236 -13.857  0.00  0.00     0.275 HD
HETATM   24  H           1     -34.236   0.770 -15.492  0.00  0.00     0.275 HD
ENDBRANCH   1  21
TORSDOF 10
ENDMDL
MODEL 5
REMARK VINA RESULT:      -5.7     12.213     14.831
REMARK  10 active torsions:
REMARK  status: ('A' for Active; 'I' for Inactive)
REMARK    1  A    between atoms: C_5  and  C_21 
REMARK    2  A    between atoms: C_5  and  C_15 
REMARK    3  A    between atoms: C_5  and  N_16 
REMARK    4  A    between atoms: C_6  and  C_15 
REMARK    5  A    between atoms: C_6  and  C_13 
REMARK    6  A    between atoms: C_10  and  C_23 
REMARK    7  A    between atoms: C_10  and  C_12 
REMARK    8  A    between atoms: C_12  and  C_14 
REMARK    9  A    between atoms: C_12  and  N_19 
REMARK   10  A    between atoms: C_13  and  N_22 
REMARK       I    between atoms: N_19  and  C_21 
ROOT
HETATM    1  C           1     -24.196  -4.672  -9.872  0.00  0.00     0.274 C 
ENDROOT
BRANCH   1   2
HETATM    2  C           1     -23.056  -4.159  -9.028  0.00  0.00     0.249 C 
HETATM    3  O           1     -22.916  -2.972  -8.858  0.00  0.00    -0.271 OA
HETATM    4  N           1     -22.180  -5.040  -8.452  0.00  0.00    -0.344 N 
HETATM    5  H           1     -22.297  -6.035  -8.594  0.00  0.00     0.163 HD
BRANCH   4   6
HETATM    6  C           1     -21.084  -4.548  -7.641  0.00  0.00     0.189 C 
BRANCH   6   7
HETATM    7  C           1     -20.875  -5.478  -6.453  0.00  0.00     0.014 C 
HETATM    8  C           1     -20.185  -4.717  -5.328  0.00  0.00     0.012 C 
BRANCH   7   9
HETATM    9  C           1     -22.224  -5.990  -5.967  0.00  0.00     0.002 C 
HETATM   10  C           1     -22.071  -6.579  -4.571  0.00  0.00     0.005 C 
ENDBRANCH   7   9
ENDBRANCH   6   7
BRANCH   6  11
HETATM   11  C           1     -19.826  -4.500  -8.471  0.00  0.00     0.197 C 
HETATM   12  O           1     -18.742  -4.166  -7.946  0.00  0.00    -0.646 OA
HETATM   13  O           1     -19.866  -4.796  -9.685  0.00  0.00    -0.646 OA
ENDBRANCH   6  11
ENDBRANCH   4   6
ENDBRANCH   1   2
BRANCH   1  14
HETATM   14  C           1     -23.754  -4.757 -11.327  0.00  0.00     0.044 C 
BRANCH  14  15
HETATM   15  C           1     -23.953  -3.405 -11.999  0.00  0.00     0.030 C 
BRANCH  15  16
HETATM   16  C           1     -22.721  -3.060 -12.824  0.00  0.00     0.230 C 
BRANCH  16  17
HETATM   17  N           1     -21.542  -3.831 -12.310  0.00  0.00    -0.079 N 
HETATM   18  H           1     -21.484  -3.726 -11.271  0.00  0.00     0.274 HD
HETATM   19  H           1     -20.668  -3.462 -12.747  0.00  0.00     0.274 HD
HETATM   20  H           1     -21.653  -4.841 -12.552  0.00  0.00     0.274 HD
ENDBRANCH  16  17
ENDBRANCH  15  16
ENDBRANCH  14  15
ENDBRANCH   1  14
BRANCH   1  21
HETATM   21  N           1     -25.363  -3.736  -9.758  0.00  0.00    -0.067 N 
HETATM   22  H           1     -26.156  -4.222  -9.283  0.00  0.00     0.275 HD
HETATM   23  H           1     -25.661  -3.435 -10.714  0.00  0.00     0.275 HD
HETATM   24  H           1     -25.083  -2.899  -9.200  0.00  0.00     0.275 HD
ENDBRANCH   1  21
TORSDOF 10
ENDMDL
MODEL 6
REMARK VINA RESULT:      -5.7     14.355     17.039
REMARK  10 active torsions:
REMARK  status: ('A' for Active; 'I' for Inactive)
REMARK    1  A    between atoms: C_5  and  C_21 
REMARK    2  A    between atoms: C_5  and  C_15 
REMARK    3  A    between atoms: C_5  and  N_16 
REMARK    4  A    between atoms: C_6  and  C_15 
REMARK    5  A    between atoms: C_6  and  C_13 
REMARK    6  A    between atoms: C_10  and  C_23 
REMARK    7  A    between atoms: C_10  and  C_12 
REMARK    8  A    between atoms: C_12  and  C_14 
REMARK    9  A    between atoms: C_12  and  N_19 
REMARK   10  A    between atoms: C_13  and  N_22 
REMARK       I    between atoms: N_19  and  C_21 
ROOT
HETATM    1  C           1     -20.507  -5.041  -6.435  0.00  0.00     0.274 C 
ENDROOT
BRANCH   1   2
HETATM    2  C           1     -21.347  -5.891  -5.514  0.00  0.00     0.249 C 
HETATM    3  O           1     -22.552  -5.821  -5.560  0.00  0.00    -0.271 OA
HETATM    4  N           1     -20.744  -6.743  -4.629  0.00  0.00    -0.344 N 
HETATM    5  H           1     -19.735  -6.802  -4.590  0.00  0.00     0.163 HD
BRANCH   4   6
HETATM    6  C           1     -21.552  -7.560  -3.744  0.00  0.00     0.189 C 
BRANCH   6   7
HETATM    7  C           1     -20.908  -8.932  -3.592  0.00  0.00     0.014 C 
HETATM    8  C           1     -21.818  -9.990  -4.201  0.00  0.00     0.012 C 
BRANCH   7   9
HETATM    9  C           1     -19.565  -8.943  -4.307  0.00  0.00     0.002 C 
HETATM   10  C           1     -18.470  -9.346  -3.327  0.00  0.00     0.005 C 
ENDBRANCH   7   9
ENDBRANCH   6   7
BRANCH   6  11
HETATM   11  C           1     -21.648  -6.895  -2.394  0.00  0.00     0.197 C 
HETATM   12  O           1     -21.015  -7.360  -1.422  0.00  0.00    -0.646 OA
HETATM   13  O           1     -22.360  -5.878  -2.246  0.00  0.00    -0.646 OA
ENDBRANCH   6  11
ENDBRANCH   4   6
ENDBRANCH   1   2
BRANCH   1  14
HETATM   14  C           1     -21.367  -3.936  -7.033  0.00  0.00     0.044 C 
BRANCH  14  15
HETATM   15  C           1     -21.458  -4.122  -8.542  0.00  0.00     0.030 C 
BRANCH  15  16
HETATM   16  C           1     -22.908  -3.986  -8.984  0.00  0.00     0.230 C 
BRANCH  16  17
HETATM   17  N           1     -23.811  -4.135  -7.797  0.00  0.00    -0.079 N 
HETATM   18  H           1     -24.290  -3.225  -7.607  0.00  0.00     0.274 HD
HETATM   19  H           1     -23.247  -4.412  -6.963  0.00  0.00     0.274 HD
HETATM   20  H           1     -24.527  -4.871  -7.993  0.00  0.00     0.274 HD
ENDBRANCH  16  17
ENDBRANCH  15  16
ENDBRANCH  14  15
ENDBRANCH   1  14
BRANCH   1  21
HETATM   21  N           1     -19.953  -5.895  -7.537  0.00  0.00    -0.067 N 
HETATM   22  H           1     -20.558  -6.736  -7.665  0.00  0.00     0.275 HD
HETATM   23  H           1     -18.984  -6.197  -7.289  0.00  0.00     0.275 HD
HETATM   24  H           1     -19.931  -5.343  -8.425  0.00  0.00     0.275 HD
ENDBRANCH   1  21
TORSDOF 10
ENDMDL
MODEL 7
REMARK VINA RESULT:      -5.6      2.130      6.085
REMARK  10 active torsions:
REMARK  status: ('A' for Active; 'I' for Inactive)
REMARK    1  A    between atoms: C_5  and  C_21 
REMARK    2  A    between atoms: C_5  and  C_15 
REMARK    3  A    between atoms: C_5  and  N_16 
REMARK    4  A    between atoms: C_6  and  C_15 
REMARK    5  A    between atoms: C_6  and  C_13 
REMARK    6  A    between atoms: C_10  and  C_23 
REMARK    7  A    between atoms: C_10  and  C_12 
REMARK    8  A    between atoms: C_12  and  C_14 
REMARK    9  A    between atoms: C_12  and  N_19 
REMARK   10  A    between atoms: C_13  and  N_22 
REMARK       I    between atoms: N_19  and  C_21 
ROOT
HETATM    1  C           1     -36.649  -0.600 -10.915  0.00  0.00     0.274 C 
ENDROOT
BRANCH   1   2
HETATM    2  C           1     -35.556  -1.607 -10.655  0.00  0.00     0.249 C 
HETATM    3  O           1     -34.693  -1.366  -9.846  0.00  0.00    -0.271 OA
HETATM    4  N           1     -35.544  -2.795 -11.335  0.00  0.00    -0.344 N 
HETATM    5  H           1     -36.267  -2.997 -12.013  0.00  0.00     0.163 HD
BRANCH   4   6
HETATM    6  C           1     -34.494  -3.762 -11.085  0.00  0.00     0.189 C 
BRANCH   6   7
HETATM    7  C           1     -35.101  -5.156 -10.986  0.00  0.00     0.014 C 
HETATM    8  C           1     -35.050  -5.830 -12.350  0.00  0.00     0.012 C 
BRANCH   7   9
HETATM    9  C           1     -34.313  -5.982  -9.980  0.00  0.00     0.002 C 
HETATM   10  C           1     -34.844  -7.410  -9.967  0.00  0.00     0.005 C 
ENDBRANCH   7   9
ENDBRANCH   6   7
BRANCH   6  11
HETATM   11  C           1     -33.497  -3.727 -12.216  0.00  0.00     0.197 C 
HETATM   12  O           1     -33.848  -3.324 -13.346  0.00  0.00    -0.646 OA
HETATM   13  O           1     -32.319  -4.100 -12.025  0.00  0.00    -0.646 OA
ENDBRANCH   6  11
ENDBRANCH   4   6
ENDBRANCH   1   2
BRANCH   1  14
HETATM   14  C           1     -36.613  -0.177 -12.378  0.00  0.00     0.044 C 
BRANCH  14  15
HETATM   15  C           1     -35.237   0.380 -12.713  0.00  0.00     0.030 C 
BRANCH  15  16
HETATM   16  C           1     -35.084   0.485 -14.224  0.00  0.00     0.230 C 
BRANCH  16  17
HETATM   17  N           1     -34.997  -0.890 -14.816  0.00  0.00    -0.079 N 
HETATM   18  H           1     -35.921  -1.370 -14.718  0.00  0.00     0.274 HD
HETATM   19  H           1     -34.265  -1.440 -14.313  0.00  0.00     0.274 HD
HETATM   20  H           1     -34.747  -0.820 -15.828  0.00  0.00     0.274 HD
ENDBRANCH  16  17
ENDBRANCH  15  16
ENDBRANCH  14  15
ENDBRANCH   1  14
BRANCH   1  21
HETATM   21  N           1     -36.440   0.602 -10.043  0.00  0.00    -0.067 N 
HETATM   22  H           1     -35.567   1.096 -10.333  0.00  0.00     0.275 HD
HETATM   23  H           1     -36.354   0.298  -9.046  0.00  0.00     0.275 HD
HETATM   24  H           1     -37.255   1.249 -10.142  0.00  0.00     0.275 HD
ENDBRANCH   1  21
TORSDOF 10
ENDMDL
MODEL 8
REMARK VINA RESULT:      -5.6     12.299     14.758
REMARK  10 active torsions:
REMARK  status: ('A' for Active; 'I' for Inactive)
REMARK    1  A    between atoms: C_5  and  C_21 
REMARK    2  A    between atoms: C_5  and  C_15 
REMARK    3  A    between atoms: C_5  and  N_16 
REMARK    4  A    between atoms: C_6  and  C_15 
REMARK    5  A    between atoms: C_6  and  C_13 
REMARK    6  A    between atoms: C_10  and  C_23 
REMARK    7  A    between atoms: C_10  and  C_12 
REMARK    8  A    between atoms: C_12  and  C_14 
REMARK    9  A    between atoms: C_12  and  N_19 
REMARK   10  A    between atoms: C_13  and  N_22 
REMARK       I    between atoms: N_19  and  C_21 
ROOT
HETATM    1  C           1     -23.987  -3.892 -10.085  0.00  0.00     0.274 C 
ENDROOT
BRANCH   1   2
HETATM    2  C           1     -22.744  -4.477  -9.461  0.00  0.00     0.249 C 
HETATM    3  O           1     -21.809  -4.793 -10.159  0.00  0.00    -0.271 OA
HETATM    4  N           1     -22.674  -4.649  -8.105  0.00  0.00    -0.344 N 
HETATM    5  H           1     -23.456  -4.385  -7.521  0.00  0.00     0.163 HD
BRANCH   4   6
HETATM    6  C           1     -21.479  -5.211  -7.507  0.00  0.00     0.189 C 
BRANCH   6   7
HETATM    7  C           1     -20.632  -4.091  -6.917  0.00  0.00     0.014 C 
HETATM    8  C           1     -20.053  -4.541  -5.582  0.00  0.00     0.012 C 
BRANCH   7   9
HETATM    9  C           1     -19.498  -3.754  -7.875  0.00  0.00     0.002 C 
HETATM   10  C           1     -18.207  -4.391  -7.379  0.00  0.00     0.005 C 
ENDBRANCH   7   9
ENDBRANCH   6   7
BRANCH   6  11
HETATM   11  C           1     -21.870  -6.176  -6.415  0.00  0.00     0.197 C 
HETATM   12  O           1     -21.314  -7.292  -6.338  0.00  0.00    -0.646 OA
HETATM   13  O           1     -22.749  -5.858  -5.585  0.00  0.00    -0.646 OA
ENDBRANCH   6  11
ENDBRANCH   4   6
ENDBRANCH   1   2
BRANCH   1  14
HETATM   14  C           1     -23.592  -2.862 -11.136  0.00  0.00     0.044 C 
BRANCH  14  15
HETATM   15  C           1     -24.322  -3.159 -12.438  0.00  0.00     0.030 C 
BRANCH  15  16
HETATM   16  C           1     -23.335  -3.115 -13.597  0.00  0.00     0.230 C 
BRANCH  16  17
HETATM   17  N           1     -21.971  -3.500 -13.108  0.00  0.00    -0.079 N 
HETATM   18  H           1     -21.253  -3.186 -13.800  0.00  0.00     0.274 HD
HETATM   19  H           1     -21.920  -4.537 -12.999  0.00  0.00     0.274 HD
HETATM   20  H           1     -21.789  -3.043 -12.186  0.00  0.00     0.274 HD
ENDBRANCH  16  17
ENDBRANCH  15  16
ENDBRANCH  14  15
ENDBRANCH   1  14
BRANCH   1  21
HETATM   21  N           1     -24.814  -3.230  -9.024  0.00  0.00    -0.067 N 
HETATM   22  H           1     -25.289  -2.390  -9.424  0.00  0.00     0.275 HD
HETATM   23  H           1     -24.196  -2.937  -8.233  0.00  0.00     0.275 HD
HETATM   24  H           1     -25.534  -3.903  -8.674  0.00  0.00     0.275 HD
ENDBRANCH   1  21
TORSDOF 10
ENDMDL
MODEL 9
REMARK VINA RESULT:      -5.5      2.354      5.633
REMARK  10 active torsions:
REMARK  status: ('A' for Active; 'I' for Inactive)
REMARK    1  A    between atoms: C_5  and  C_21 
REMARK    2  A    between atoms: C_5  and  C_15 
REMARK    3  A    between atoms: C_5  and  N_16 
REMARK    4  A    between atoms: C_6  and  C_15 
REMARK    5  A    between atoms: C_6  and  C_13 
REMARK    6  A    between atoms: C_10  and  C_23 
REMARK    7  A    between atoms: C_10  and  C_12 
REMARK    8  A    between atoms: C_12  and  C_14 
REMARK    9  A    between atoms: C_12  and  N_19 
REMARK   10  A    between atoms: C_13  and  N_22 
REMARK       I    between atoms: N_19  and  C_21 
ROOT
HETATM    1  C           1     -35.514   0.800 -14.037  0.00  0.00     0.274 C 
ENDROOT
BRANCH   1   2
HETATM    2  C           1     -35.850  -0.536 -13.421  0.00  0.00     0.249 C 
HETATM    3  O           1     -36.998  -0.906 -13.369  0.00  0.00    -0.271 OA
HETATM    4  N           1     -34.852  -1.330 -12.923  0.00  0.00    -0.344 N 
HETATM    5  H           1     -33.890  -1.020 -12.967  0.00  0.00     0.163 HD
BRANCH   4   6
HETATM    6  C           1     -35.174  -2.614 -12.332  0.00  0.00     0.189 C 
BRANCH   6   7
HETATM    7  C           1     -33.943  -3.511 -12.367  0.00  0.00     0.014 C 
HETATM    8  C           1     -33.003  -3.127 -11.232  0.00  0.00     0.012 C 
BRANCH   7   9
HETATM    9  C           1     -34.370  -4.963 -12.205  0.00  0.00     0.002 C 
HETATM   10  C           1     -33.709  -5.552 -10.965  0.00  0.00     0.005 C 
ENDBRANCH   7   9
ENDBRANCH   6   7
BRANCH   6  11
HETATM   11  C           1     -35.611  -2.414 -10.903  0.00  0.00     0.197 C 
HETATM   12  O           1     -35.143  -1.469 -10.232  0.00  0.00    -0.646 OA
HETATM   13  O           1     -36.443  -3.192 -10.388  0.00  0.00    -0.646 OA
ENDBRANCH   6  11
ENDBRANCH   4   6
ENDBRANCH   1   2
BRANCH   1  14
HETATM   14  C           1     -35.957   0.813 -15.495  0.00  0.00     0.044 C 
BRANCH  14  15
HETATM   15  C           1     -35.396  -0.410 -16.208  0.00  0.00     0.030 C 
BRANCH  15  16
HETATM   16  C           1     -36.525  -1.151 -16.910  0.00  0.00     0.230 C 
BRANCH  16  17
HETATM   17  N           1     -37.845  -0.636 -16.421  0.00  0.00    -0.079 N 
HETATM   18  H           1     -37.825  -0.565 -15.378  0.00  0.00     0.274 HD
HETATM   19  H           1     -38.604  -1.291 -16.711  0.00  0.00     0.274 HD
HETATM   20  H           1     -38.024   0.309 -16.830  0.00  0.00     0.274 HD
ENDBRANCH  16  17
ENDBRANCH  15  16
ENDBRANCH  14  15
ENDBRANCH   1  14
BRANCH   1  21
HETATM   21  N           1     -34.034   1.028 -13.963  0.00  0.00    -0.067 N 
HETATM   22  H           1     -33.692   1.403 -14.876  0.00  0.00     0.275 HD
HETATM   23  H           1     -33.553   0.123 -13.755  0.00  0.00     0.275 HD
HETATM   24  H           1     -33.827   1.716 -13.204  0.00  0.00     0.275 HD
ENDBRANCH   1  21
TORSDOF 10
ENDMDL
