MODEL 1
REMARK VINA RESULT:      -5.6      0.000      0.000
REMARK  5 active torsions:
REMARK  status: ('A' for Active; 'I' for Inactive)
REMARK       I    between atoms: C_1  and  N_8 
REMARK    1  A    between atoms: C_1  and  C_2 
REMARK    2  A    between atoms: C_2  and  N_5 
REMARK    3  A    between atoms: N_8  and  C_12 
REMARK    4  A    between atoms: C_10  and  C_12 
REMARK    5  A    between atoms: C_12  and  C_13 
ROOT
HETATM    1  C           1     -21.632  -4.448  -7.562  0.00  0.00     0.243 C 
HETATM    2  O           1     -21.584  -3.288  -7.230  0.00  0.00    -0.272 OA
HETATM    3  N           1     -22.145  -4.790  -8.784  0.00  0.00    -0.345 N 
HETATM    4  H           1     -22.184  -5.763  -9.062  0.00  0.00     0.163 HD
ENDROOT
BRANCH   3   5
HETATM    5  C           1     -22.635  -3.760  -9.680  0.00  0.00     0.189 C 
BRANCH   5   6
HETATM    6  C           1     -22.044  -3.972 -11.067  0.00  0.00     0.010 C 
HETATM    7  C           1     -22.383  -2.779 -11.951  0.00  0.00     0.012 C 
HETATM    8  C           1     -20.532  -4.111 -10.959  0.00  0.00     0.012 C 
ENDBRANCH   5   6
BRANCH   5   9
HETATM    9  C           1     -24.139  -3.834  -9.755  0.00  0.00     0.197 C 
HETATM   10  O           1     -24.829  -2.822  -9.506  0.00  0.00    -0.646 OA
HETATM   11  O           1     -24.698  -4.908 -10.067  0.00  0.00    -0.646 OA
ENDBRANCH   5   9
ENDBRANCH   3   5
BRANCH   1  12
HETATM   12  C           1     -21.122  -5.521  -6.630  0.00  0.00     0.332 C 
BRANCH  12  13
HETATM   13  N           1     -20.047  -6.310  -7.316  0.00  0.00    -0.071 N 
HETATM   14  H           1     -19.902  -7.213  -6.813  0.00  0.00     0.274 HD
HETATM   15  H           1     -19.157  -5.761  -7.313  0.00  0.00     0.274 HD
HETATM   16  H           1     -20.333  -6.503  -8.303  0.00  0.00     0.274 HD
ENDBRANCH  12  13
ENDBRANCH   1  12
TORSDOF 5
ENDMDL
MODEL 2
REMARK VINA RESULT:      -5.4     12.733     14.465
REMARK  5 active torsions:
REMARK  status: ('A' for Active; 'I' for Inactive)
REMARK       I    between atoms: C_1  and  N_8 
REMARK    1  A    between atoms: C_1  and  C_2 
REMARK    2  A    between atoms: C_2  and  N_5 
REMARK    3  A    between atoms: N_8  and  C_12 
REMARK    4  A    between atoms: C_10  and  C_12 
REMARK    5  A    between atoms: C_12  and  C_13 
ROOT
HETATM    1  C           1     -35.424  -0.228 -13.322  0.00  0.00     0.243 C 
HETATM    2  O           1     -36.415  -0.713 -13.813  0.00  0.00    -0.272 OA
HETATM    3  N           1     -34.987  -0.655 -12.098  0.00  0.00    -0.345 N 
HETATM    4  H           1     -34.155  -0.249 -11.688  0.00  0.00     0.163 HD
ENDROOT
BRANCH   3   5
HETATM    5  C           1     -35.714  -1.690 -11.388  0.00  0.00     0.189 C 
BRANCH   5   6
HETATM    6  C           1     -34.732  -2.554 -10.607  0.00  0.00     0.010 C 
HETATM    7  C           1     -34.974  -4.021 -10.938  0.00  0.00     0.012 C 
HETATM    8  C           1     -33.308  -2.175 -10.989  0.00  0.00     0.012 C 
ENDBRANCH   5   6
BRANCH   5   9
HETATM    9  C           1     -36.693  -1.051 -10.436  0.00  0.00     0.197 C 
HETATM   10  O           1     -37.910  -1.019 -10.718  0.00  0.00    -0.646 OA
HETATM   11  O           1     -36.288  -0.554  -9.362  0.00  0.00    -0.646 OA
ENDBRANCH   5   9
ENDBRANCH   3   5
BRANCH   1  12
HETATM   12  C           1     -34.667   0.850 -14.061  0.00  0.00     0.332 C 
BRANCH  12  13
HETATM   13  N           1     -35.590   1.545 -15.016  0.00  0.00    -0.071 N 
HETATM   14  H           1     -36.282   0.860 -15.393  0.00  0.00     0.274 HD
HETATM   15  H           1     -35.036   1.952 -15.803  0.00  0.00     0.274 HD
HETATM   16  H           1     -36.096   2.311 -14.515  0.00  0.00     0.274 HD
ENDBRANCH  12  13
ENDBRANCH   1  12
TORSDOF 5
ENDMDL
MODEL 3
REMARK VINA RESULT:      -5.1     11.969     13.661
REMARK  5 active torsions:
REMARK  status: ('A' for Active; 'I' for Inactive)
REMARK       I    between atoms: C_1  and  N_8 
REMARK    1  A    between atoms: C_1  and  C_2 
REMARK    2  A    between atoms: C_2  and  N_5 
REMARK    3  A    between atoms: N_8  and  C_12 
REMARK    4  A    between atoms: C_10  and  C_12 
REMARK    5  A    between atoms: C_12  and  C_13 
ROOT
HETATM    1  C           1     -33.995  -2.443 -11.755  0.00  0.00     0.243 C 
HETATM    2  O           1     -33.463  -1.875 -10.832  0.00  0.00    -0.272 OA
HETATM    3  N           1     -34.910  -1.784 -12.530  0.00  0.00    -0.345 N 
HETATM    4  H           1     -35.354  -2.261 -13.305  0.00  0.00     0.163 HD
ENDROOT
BRANCH   3   5
HETATM    5  C           1     -35.242  -0.402 -12.244  0.00  0.00     0.189 C 
BRANCH   5   6
HETATM    6  C           1     -35.622   0.307 -13.537  0.00  0.00     0.010 C 
HETATM    7  C           1     -34.584   1.375 -13.854  0.00  0.00     0.012 C 
HETATM    8  C           1     -35.674  -0.704 -14.674  0.00  0.00     0.012 C 
ENDBRANCH   5   6
BRANCH   5   9
HETATM    9  C           1     -36.402  -0.354 -11.281  0.00  0.00     0.197 C 
HETATM   10  O           1     -37.334  -1.180 -11.383  0.00  0.00    -0.646 OA
HETATM   11  O           1     -36.432   0.514 -10.381  0.00  0.00    -0.646 OA
ENDBRANCH   5   9
ENDBRANCH   3   5
BRANCH   1  12
HETATM   12  C           1     -33.650  -3.883 -12.054  0.00  0.00     0.332 C 
BRANCH  12  13
HETATM   13  N           1     -33.675  -4.105 -13.537  0.00  0.00    -0.071 N 
HETATM   14  H           1     -34.644  -3.951 -13.896  0.00  0.00     0.274 HD
HETATM   15  H           1     -33.375  -5.084 -13.748  0.00  0.00     0.274 HD
HETATM   16  H           1     -33.022  -3.434 -14.001  0.00  0.00     0.274 HD
ENDBRANCH  12  13
ENDBRANCH   1  12
TORSDOF 5
ENDMDL
MODEL 4
REMARK VINA RESULT:      -4.9      9.234     10.437
REMARK  5 active torsions:
REMARK  status: ('A' for Active; 'I' for Inactive)
REMARK       I    between atoms: C_1  and  N_8 
REMARK    1  A    between atoms: C_1  and  C_2 
REMARK    2  A    between atoms: C_2  and  N_5 
REMARK    3  A    between atoms: N_8  and  C_12 
REMARK    4  A    between atoms: C_10  and  C_12 
REMARK    5  A    between atoms: C_12  and  C_13 
ROOT
HETATM    1  C           1     -26.372  -6.408 -17.751  0.00  0.00     0.243 C 
HETATM    2  O           1     -26.237  -5.454 -17.023  0.00  0.00    -0.272 OA
HETATM    3  N           1     -27.594  -7.014 -17.866  0.00  0.00    -0.345 N 
HETATM    4  H           1     -27.707  -7.813 -18.477  0.00  0.00     0.163 HD
ENDROOT
BRANCH   3   5
HETATM    5  C           1     -28.727  -6.511 -17.113  0.00  0.00     0.189 C 
BRANCH   5   6
HETATM    6  C           1     -29.951  -7.367 -17.406  0.00  0.00     0.010 C 
HETATM    7  C           1     -31.206  -6.511 -17.298  0.00  0.00     0.012 C 
HETATM    8  C           1     -29.845  -7.938 -18.813  0.00  0.00     0.012 C 
ENDBRANCH   5   6
BRANCH   5   9
HETATM    9  C           1     -28.414  -6.566 -15.638  0.00  0.00     0.197 C 
HETATM   10  O           1     -28.619  -5.566 -14.917  0.00  0.00    -0.646 OA
HETATM   11  O           1     -27.949  -7.613 -15.137  0.00  0.00    -0.646 OA
ENDBRANCH   5   9
ENDBRANCH   3   5
BRANCH   1  12
HETATM   12  C           1     -25.193  -6.932 -18.535  0.00  0.00     0.332 C 
BRANCH  12  13
HETATM   13  N           1     -24.212  -7.569 -17.596  0.00  0.00    -0.071 N 
HETATM   14  H           1     -24.314  -8.607 -17.636  0.00  0.00     0.274 HD
HETATM   15  H           1     -24.395  -7.236 -16.623  0.00  0.00     0.274 HD
HETATM   16  H           1     -23.240  -7.303 -17.876  0.00  0.00     0.274 HD
ENDBRANCH  12  13
ENDBRANCH   1  12
TORSDOF 5
ENDMDL
MODEL 5
REMARK VINA RESULT:      -4.7      2.424      2.991
REMARK  5 active torsions:
REMARK  status: ('A' for Active; 'I' for Inactive)
REMARK       I    between atoms: C_1  and  N_8 
REMARK    1  A    between atoms: C_1  and  C_2 
REMARK    2  A    between atoms: C_2  and  N_5 
REMARK    3  A    between atoms: N_8  and  C_12 
REMARK    4  A    between atoms: C_10  and  C_12 
REMARK    5  A    between atoms: C_12  and  C_13 
ROOT
HETATM    1  C           1     -20.755  -4.993  -7.383  0.00  0.00     0.243 C 
HETATM    2  O           1     -20.527  -6.134  -7.707  0.00  0.00    -0.272 OA
HETATM    3  N           1     -21.315  -4.125  -8.281  0.00  0.00    -0.345 N 
HETATM    4  H           1     -21.507  -3.169  -8.010  0.00  0.00     0.163 HD
ENDROOT
BRANCH   3   5
HETATM    5  C           1     -21.632  -4.575  -9.623  0.00  0.00     0.189 C 
BRANCH   5   6
HETATM    6  C           1     -22.940  -3.938 -10.075  0.00  0.00     0.010 C 
HETATM    7  C           1     -23.577  -4.800 -11.156  0.00  0.00     0.012 C 
HETATM    8  C           1     -23.888  -3.828  -8.889  0.00  0.00     0.012 C 
ENDBRANCH   5   6
BRANCH   5   9
HETATM    9  C           1     -20.524  -4.173 -10.563  0.00  0.00     0.197 C 
HETATM   10  O           1     -20.555  -3.058 -11.127  0.00  0.00    -0.646 OA
HETATM   11  O           1     -19.572  -4.955 -10.778  0.00  0.00    -0.646 OA
ENDBRANCH   5   9
ENDBRANCH   3   5
BRANCH   1  12
HETATM   12  C           1     -20.425  -4.524  -5.986  0.00  0.00     0.332 C 
BRANCH  12  13
HETATM   13  N           1     -20.896  -5.543  -4.993  0.00  0.00    -0.071 N 
HETATM   14  H           1     -21.653  -6.123  -5.419  0.00  0.00     0.274 HD
HETATM   15  H           1     -21.264  -5.058  -4.144  0.00  0.00     0.274 HD
HETATM   16  H           1     -20.096  -6.160  -4.721  0.00  0.00     0.274 HD
ENDBRANCH  12  13
ENDBRANCH   1  12
TORSDOF 5
ENDMDL
MODEL 6
REMARK VINA RESULT:      -4.6     10.779     12.331
REMARK  5 active torsions:
REMARK  status: ('A' for Active; 'I' for Inactive)
REMARK       I    between atoms: C_1  and  N_8 
REMARK    1  A    between atoms: C_1  and  C_2 
REMARK    2  A    between atoms: C_2  and  N_5 
REMARK    3  A    between atoms: N_8  and  C_12 
REMARK    4  A    between atoms: C_10  and  C_12 
REMARK    5  A    between atoms: C_12  and  C_13 
ROOT
HETATM    1  C           1     -31.582  -4.660 -17.100  0.00  0.00     0.243 C 
HETATM    2  O           1     -30.956  -3.932 -17.834  0.00  0.00    -0.272 OA
HETATM    3  N           1     -31.154  -5.940 -16.876  0.00  0.00    -0.345 N 
HETATM    4  H           1     -31.678  -6.549 -16.260  0.00  0.00     0.163 HD
ENDROOT
BRANCH   3   5
HETATM    5  C           1     -29.948  -6.425 -17.520  0.00  0.00     0.189 C 
BRANCH   5   6
HETATM    6  C           1     -28.927  -6.814 -16.459  0.00  0.00     0.010 C 
HETATM    7  C           1     -27.535  -6.403 -16.920  0.00  0.00     0.012 C 
HETATM    8  C           1     -29.259  -6.106 -15.152  0.00  0.00     0.012 C 
ENDBRANCH   5   6
BRANCH   5   9
HETATM    9  C           1     -30.280  -7.629 -18.366  0.00  0.00     0.197 C 
HETATM   10  O           1     -29.394  -8.466 -18.638  0.00  0.00    -0.646 OA
HETATM   11  O           1     -31.444  -7.789 -18.796  0.00  0.00    -0.646 OA
ENDBRANCH   5   9
ENDBRANCH   3   5
BRANCH   1  12
HETATM   12  C           1     -32.837  -4.155 -16.429  0.00  0.00     0.332 C 
BRANCH  12  13
HETATM   13  N           1     -33.467  -3.093 -17.281  0.00  0.00    -0.071 N 
HETATM   14  H           1     -34.499  -3.085 -17.121  0.00  0.00     0.274 HD
HETATM   15  H           1     -33.270  -3.292 -18.288  0.00  0.00     0.274 HD
HETATM   16  H           1     -33.067  -2.161 -17.026  0.00  0.00     0.274 HD
ENDBRANCH  12  13
ENDBRANCH   1  12
TORSDOF 5
ENDMDL
MODEL 7
REMARK VINA RESULT:      -4.6      7.611     10.345
REMARK  5 active torsions:
REMARK  status: ('A' for Active; 'I' for Inactive)
REMARK       I    between atoms: C_1  and  N_8 
REMARK    1  A    between atoms: C_1  and  C_2 
REMARK    2  A    between atoms: C_2  and  N_5 
REMARK    3  A    between atoms: N_8  and  C_12 
REMARK    4  A    between atoms: C_10  and  C_12 
REMARK    5  A    between atoms: C_12  and  C_13 
ROOT
HETATM    1  C           1     -21.936  -7.215  -1.614  0.00  0.00     0.243 C 
HETATM    2  O           1     -22.701  -6.656  -0.866  0.00  0.00    -0.272 OA
HETATM    3  N           1     -21.630  -8.534  -1.421  0.00  0.00    -0.345 N 
HETATM    4  H           1     -20.990  -9.003  -2.049  0.00  0.00     0.163 HD
ENDROOT
BRANCH   3   5
HETATM    5  C           1     -22.224  -9.262  -0.316  0.00  0.00     0.189 C 
BRANCH   5   6
HETATM    6  C           1     -22.640 -10.650  -0.788  0.00  0.00     0.010 C 
HETATM    7  C           1     -24.034 -10.967  -0.263  0.00  0.00     0.012 C 
HETATM    8  C           1     -22.650 -10.686  -2.310  0.00  0.00     0.012 C 
ENDBRANCH   5   6
BRANCH   5   9
HETATM    9  C           1     -21.218  -9.390   0.800  0.00  0.00     0.197 C 
HETATM   10  O           1     -21.032  -8.437   1.587  0.00  0.00    -0.646 OA
HETATM   11  O           1     -20.569 -10.450   0.938  0.00  0.00    -0.646 OA
ENDBRANCH   5   9
ENDBRANCH   3   5
BRANCH   1  12
HETATM   12  C           1     -21.317  -6.457  -2.765  0.00  0.00     0.332 C 
BRANCH  12  13
HETATM   13  N           1     -22.338  -6.273  -3.848  0.00  0.00    -0.071 N 
HETATM   14  H           1     -23.264  -6.049  -3.420  0.00  0.00     0.274 HD
HETATM   15  H           1     -22.414  -7.152  -4.408  0.00  0.00     0.274 HD
HETATM   16  H           1     -22.044  -5.487  -4.473  0.00  0.00     0.274 HD
ENDBRANCH  12  13
ENDBRANCH   1  12
TORSDOF 5
ENDMDL
MODEL 8
REMARK VINA RESULT:      -4.2      7.562     10.120
REMARK  5 active torsions:
REMARK  status: ('A' for Active; 'I' for Inactive)
REMARK       I    between atoms: C_1  and  N_8 
REMARK    1  A    between atoms: C_1  and  C_2 
REMARK    2  A    between atoms: C_2  and  N_5 
REMARK    3  A    between atoms: N_8  and  C_12 
REMARK    4  A    between atoms: C_10  and  C_12 
REMARK    5  A    between atoms: C_12  and  C_13 
ROOT
HETATM    1  C           1     -21.272  -7.962  -2.584  0.00  0.00     0.243 C 
HETATM    2  O           1     -20.525  -8.686  -3.198  0.00  0.00    -0.272 OA
HETATM    3  N           1     -21.937  -8.437  -1.487  0.00  0.00    -0.345 N 
HETATM    4  H           1     -22.562  -7.830  -0.972  0.00  0.00     0.163 HD
ENDROOT
BRANCH   3   5
HETATM    5  C           1     -21.747  -9.810  -1.061  0.00  0.00     0.189 C 
BRANCH   5   6
HETATM    6  C           1     -21.654  -9.862   0.458  0.00  0.00     0.010 C 
HETATM    7  C           1     -20.478 -10.740   0.865  0.00  0.00     0.012 C 
HETATM    8  C           1     -21.449  -8.455   1.002  0.00  0.00     0.012 C 
ENDBRANCH   5   6
BRANCH   5   9
HETATM    9  C           1     -22.915 -10.645  -1.524  0.00  0.00     0.197 C 
HETATM   10  O           1     -22.914 -11.140  -2.671  0.00  0.00    -0.646 OA
HETATM   11  O           1     -23.884 -10.843  -0.759  0.00  0.00    -0.646 OA
ENDBRANCH   5   9
ENDBRANCH   3   5
BRANCH   1  12
HETATM   12  C           1     -21.470  -6.532  -3.027  0.00  0.00     0.332 C 
BRANCH  12  13
HETATM   13  N           1     -22.307  -5.807  -2.015  0.00  0.00    -0.071 N 
HETATM   14  H           1     -22.397  -4.804  -2.291  0.00  0.00     0.274 HD
HETATM   15  H           1     -21.852  -5.872  -1.077  0.00  0.00     0.274 HD
HETATM   16  H           1     -23.256  -6.243  -1.972  0.00  0.00     0.274 HD
ENDBRANCH  12  13
ENDBRANCH   1  12
TORSDOF 5
ENDMDL
MODEL 9
REMARK VINA RESULT:      -4.2      3.928      6.746
REMARK  5 active torsions:
REMARK  status: ('A' for Active; 'I' for Inactive)
REMARK       I    between atoms: C_1  and  N_8 
REMARK    1  A    between atoms: C_1  and  C_2 
REMARK    2  A    between atoms: C_2  and  N_5 
REMARK    3  A    between atoms: N_8  and  C_12 
REMARK    4  A    between atoms: C_10  and  C_12 
REMARK    5  A    between atoms: C_12  and  C_13 
ROOT
HETATM    1  C           1     -21.493  -5.497  -5.688  0.00  0.00     0.243 C 
HETATM    2  O           1     -22.690  -5.625  -5.782  0.00  0.00    -0.272 OA
HETATM    3  N           1     -20.783  -6.299  -4.837  0.00  0.00    -0.345 N 
HETATM    4  H           1     -19.779  -6.192  -4.760  0.00  0.00     0.163 HD
ENDROOT
BRANCH   3   5
HETATM    5  C           1     -21.467  -7.303  -4.046  0.00  0.00     0.189 C 
BRANCH   5   6
HETATM    6  C           1     -20.659  -8.594  -4.056  0.00  0.00     0.010 C 
HETATM    7  C           1     -21.575  -9.763  -4.392  0.00  0.00     0.012 C 
HETATM    8  C           1     -19.557  -8.495  -5.102  0.00  0.00     0.012 C 
ENDBRANCH   5   6
BRANCH   5   9
HETATM    9  C           1     -21.614  -6.810  -2.628  0.00  0.00     0.197 C 
HETATM   10  O           1     -22.444  -5.917  -2.359  0.00  0.00    -0.646 OA
HETATM   11  O           1     -20.904  -7.297  -1.720  0.00  0.00    -0.646 OA
ENDBRANCH   5   9
ENDBRANCH   3   5
BRANCH   1  12
HETATM   12  C           1     -20.780  -4.452  -6.512  0.00  0.00     0.332 C 
BRANCH  12  13
HETATM   13  N           1     -21.790  -3.596  -7.217  0.00  0.00    -0.071 N 
HETATM   14  H           1     -22.584  -4.191  -7.544  0.00  0.00     0.274 HD
HETATM   15  H           1     -21.340  -3.132  -8.038  0.00  0.00     0.274 HD
HETATM   16  H           1     -22.149  -2.867  -6.559  0.00  0.00     0.274 HD
ENDBRANCH  12  13
ENDBRANCH   1  12
TORSDOF 5
ENDMDL
