MODEL 1
REMARK VINA RESULT:      -6.5      0.000      0.000
REMARK  7 active torsions:
REMARK  status: ('A' for Active; 'I' for Inactive)
REMARK    1  A    between atoms: N_1  and  C_12 
REMARK    2  A    between atoms: C_6  and  C_8 
REMARK    3  A    between atoms: C_8  and  C_11 
REMARK    4  A    between atoms: C_8  and  N_20 
REMARK    5  A    between atoms: C_9  and  C_11 
REMARK    6  A    between atoms: C_12  and  C_13 
REMARK    7  A    between atoms: C_12  and  C_14 
REMARK       I    between atoms: C_13  and  N_20 
ROOT
HETATM    1  C           1     -34.448  -2.306 -12.048  0.00  0.00     0.249 C 
HETATM    2  H           1     -35.698  -1.916 -13.653  0.00  0.00     0.163 HD
HETATM    3  O           1     -33.868  -1.823 -11.105  0.00  0.00    -0.271 OA
HETATM    4  N           1     -35.211  -1.512 -12.863  0.00  0.00    -0.344 N 
ENDROOT
BRANCH   1   5
HETATM    5  C           1     -34.334  -3.784 -12.328  0.00  0.00     0.278 C 
BRANCH   5   6
HETATM    6  N           1     -33.867  -3.990 -13.739  0.00  0.00    -0.066 N 
HETATM    7  H           1     -33.060  -4.655 -13.745  0.00  0.00     0.275 HD
HETATM    8  H           1     -34.648  -4.385 -14.310  0.00  0.00     0.275 HD
HETATM    9  H           1     -33.565  -3.074 -14.143  0.00  0.00     0.275 HD
ENDBRANCH   5   6
BRANCH   5  10
HETATM   10  C           1     -33.331  -4.407 -11.366  0.00  0.00     0.017 C 
HETATM   11  C           1     -33.905  -5.698 -10.799  0.00  0.00     0.012 C 
HETATM   12  C           1     -32.037  -4.711 -12.109  0.00  0.00     0.012 C 
ENDBRANCH   5  10
ENDBRANCH   1   5
BRANCH   4  13
HETATM   13  C           1     -35.321  -0.091 -12.594  0.00  0.00     0.195 C 
BRANCH  13  14
HETATM   14  C           1     -36.480   0.155 -11.659  0.00  0.00     0.197 C 
HETATM   15  O           1     -37.651  -0.036 -12.052  0.00  0.00    -0.646 OA
HETATM   16  O           1     -36.268   0.550 -10.492  0.00  0.00    -0.646 OA
ENDBRANCH  13  14
BRANCH  13  17
HETATM   17  C           1     -35.555   0.655 -13.901  0.00  0.00     0.149 C 
BRANCH  17  18
HETATM   18  C           1     -35.795  -0.339 -15.011  0.00  0.00     0.175 C 
HETATM   19  O           1     -34.838  -0.745 -15.705  0.00  0.00    -0.648 OA
HETATM   20  O           1     -36.951  -0.755 -15.237  0.00  0.00    -0.648 OA
ENDBRANCH  17  18
ENDBRANCH  13  17
ENDBRANCH   4  13
TORSDOF 7
ENDMDL
MODEL 2
REMARK VINA RESULT:      -6.2      1.660      3.119
REMARK  7 active torsions:
REMARK  status: ('A' for Active; 'I' for Inactive)
REMARK    1  A    between atoms: N_1  and  C_12 
REMARK    2  A    between atoms: C_6  and  C_8 
REMARK    3  A    between atoms: C_8  and  C_11 
REMARK    4  A    between atoms: C_8  and  N_20 
REMARK    5  A    between atoms: C_9  and  C_11 
REMARK    6  A    between atoms: C_12  and  C_13 
REMARK    7  A    between atoms: C_12  and  C_14 
REMARK       I    between atoms: C_13  and  N_20 
ROOT
HETATM    1  C           1     -34.494  -2.636 -12.990  0.00  0.00     0.249 C 
HETATM    2  H           1     -34.941  -1.097 -11.679  0.00  0.00     0.163 HD
HETATM    3  O           1     -34.622  -3.042 -14.120  0.00  0.00    -0.271 OA
HETATM    4  N           1     -35.049  -1.438 -12.625  0.00  0.00    -0.344 N 
ENDROOT
BRANCH   1   5
HETATM    5  C           1     -33.721  -3.447 -11.979  0.00  0.00     0.278 C 
BRANCH   5   6
HETATM    6  N           1     -33.571  -2.656 -10.714  0.00  0.00    -0.066 N 
HETATM    7  H           1     -34.187  -1.812 -10.756  0.00  0.00     0.275 HD
HETATM    8  H           1     -33.849  -3.248  -9.898  0.00  0.00     0.275 HD
HETATM    9  H           1     -32.576  -2.356 -10.606  0.00  0.00     0.275 HD
ENDBRANCH   5   6
BRANCH   5  10
HETATM   10  C           1     -34.470  -4.740 -11.684  0.00  0.00     0.017 C 
HETATM   11  C           1     -33.523  -5.741 -11.040  0.00  0.00     0.012 C 
HETATM   12  C           1     -35.625  -4.450 -10.734  0.00  0.00     0.012 C 
ENDBRANCH   5  10
ENDBRANCH   1   5
BRANCH   4  13
HETATM   13  C           1     -35.792  -0.659 -13.597  0.00  0.00     0.195 C 
BRANCH  13  14
HETATM   14  C           1     -34.904   0.424 -14.157  0.00  0.00     0.197 C 
HETATM   15  O           1     -34.648   1.440 -13.475  0.00  0.00    -0.646 OA
HETATM   16  O           1     -34.423   0.307 -15.305  0.00  0.00    -0.646 OA
ENDBRANCH  13  14
BRANCH  13  17
HETATM   17  C           1     -37.001  -0.025 -12.919  0.00  0.00     0.149 C 
BRANCH  17  18
HETATM   18  C           1     -36.960  -0.321 -11.440  0.00  0.00     0.175 C 
HETATM   19  O           1     -36.262   0.385 -10.680  0.00  0.00    -0.648 OA
HETATM   20  O           1     -37.625  -1.271 -10.975  0.00  0.00    -0.648 OA
ENDBRANCH  17  18
ENDBRANCH  13  17
ENDBRANCH   4  13
TORSDOF 7
ENDMDL
MODEL 3
REMARK VINA RESULT:      -5.8     11.477     13.872
REMARK  7 active torsions:
REMARK  status: ('A' for Active; 'I' for Inactive)
REMARK    1  A    between atoms: N_1  and  C_12 
REMARK    2  A    between atoms: C_6  and  C_8 
REMARK    3  A    between atoms: C_8  and  C_11 
REMARK    4  A    between atoms: C_8  and  N_20 
REMARK    5  A    between atoms: C_9  and  C_11 
REMARK    6  A    between atoms: C_12  and  C_13 
REMARK    7  A    between atoms: C_12  and  C_14 
REMARK       I    between atoms: C_13  and  N_20 
ROOT
HETATM    1  C           1     -21.515  -4.616  -8.480  0.00  0.00     0.249 C 
HETATM    2  H           1     -23.061  -3.429  -9.181  0.00  0.00     0.163 HD
HETATM    3  O           1     -20.594  -5.330  -8.796  0.00  0.00    -0.271 OA
HETATM    4  N           1     -22.289  -4.029  -9.446  0.00  0.00    -0.344 N 
ENDROOT
BRANCH   1   5
HETATM    5  C           1     -21.814  -4.370  -7.021  0.00  0.00     0.278 C 
BRANCH   5   6
HETATM    6  N           1     -23.292  -4.484  -6.789  0.00  0.00    -0.066 N 
HETATM    7  H           1     -23.473  -5.197  -6.046  0.00  0.00     0.275 HD
HETATM    8  H           1     -23.668  -3.559  -6.482  0.00  0.00     0.275 HD
HETATM    9  H           1     -23.762  -4.778  -7.675  0.00  0.00     0.275 HD
ENDBRANCH   5   6
BRANCH   5  10
HETATM   10  C           1     -21.086  -5.403  -6.172  0.00  0.00     0.017 C 
HETATM   11  C           1     -20.075  -4.702  -5.275  0.00  0.00     0.012 C 
HETATM   12  C           1     -22.093  -6.153  -5.311  0.00  0.00     0.012 C 
ENDBRANCH   5  10
ENDBRANCH   1   5
BRANCH   4  13
HETATM   13  C           1     -22.002  -4.265 -10.847  0.00  0.00     0.195 C 
BRANCH  13  14
HETATM   14  C           1     -21.407  -3.020 -11.455  0.00  0.00     0.197 C 
HETATM   15  O           1     -20.217  -2.715 -11.220  0.00  0.00    -0.646 OA
HETATM   16  O           1     -22.103  -2.290 -12.195  0.00  0.00    -0.646 OA
ENDBRANCH  13  14
BRANCH  13  17
HETATM   17  C           1     -23.292  -4.620 -11.576  0.00  0.00     0.149 C 
BRANCH  17  18
HETATM   18  C           1     -24.475  -4.217 -10.728  0.00  0.00     0.175 C 
HETATM   19  O           1     -24.868  -4.965  -9.808  0.00  0.00    -0.648 OA
HETATM   20  O           1     -25.060  -3.135 -10.948  0.00  0.00    -0.648 OA
ENDBRANCH  17  18
ENDBRANCH  13  17
ENDBRANCH   4  13
TORSDOF 7
ENDMDL
MODEL 4
REMARK VINA RESULT:      -5.8     11.808     14.065
REMARK  7 active torsions:
REMARK  status: ('A' for Active; 'I' for Inactive)
REMARK    1  A    between atoms: N_1  and  C_12 
REMARK    2  A    between atoms: C_6  and  C_8 
REMARK    3  A    between atoms: C_8  and  C_11 
REMARK    4  A    between atoms: C_8  and  N_20 
REMARK    5  A    between atoms: C_9  and  C_11 
REMARK    6  A    between atoms: C_12  and  C_13 
REMARK    7  A    between atoms: C_12  and  C_14 
REMARK       I    between atoms: C_13  and  N_20 
ROOT
HETATM    1  C           1     -21.916  -4.590  -8.109  0.00  0.00     0.249 C 
HETATM    2  H           1     -22.426  -5.755  -9.743  0.00  0.00     0.163 HD
HETATM    3  O           1     -21.886  -3.467  -7.664  0.00  0.00    -0.271 OA
HETATM    4  N           1     -22.401  -4.814  -9.370  0.00  0.00    -0.344 N 
ENDROOT
BRANCH   1   5
HETATM    5  C           1     -21.419  -5.746  -7.275  0.00  0.00     0.278 C 
BRANCH   5   6
HETATM    6  N           1     -19.974  -5.999  -7.585  0.00  0.00    -0.066 N 
HETATM    7  H           1     -19.896  -6.799  -8.254  0.00  0.00     0.275 HD
HETATM    8  H           1     -19.555  -5.144  -8.016  0.00  0.00     0.275 HD
HETATM    9  H           1     -19.464  -6.232  -6.703  0.00  0.00     0.275 HD
ENDBRANCH   5   6
BRANCH   5  10
HETATM   10  C           1     -21.570  -5.408  -5.798  0.00  0.00     0.017 C 
HETATM   11  C           1     -22.026  -6.645  -5.038  0.00  0.00     0.012 C 
HETATM   12  C           1     -20.230  -4.939  -5.246  0.00  0.00     0.012 C 
ENDBRANCH   5  10
ENDBRANCH   1   5
BRANCH   4  13
HETATM   13  C           1     -22.878  -3.703 -10.171  0.00  0.00     0.195 C 
BRANCH  13  14
HETATM   14  C           1     -24.362  -3.850 -10.399  0.00  0.00     0.197 C 
HETATM   15  O           1     -24.946  -3.104 -11.214  0.00  0.00    -0.646 OA
HETATM   16  O           1     -25.008  -4.717  -9.772  0.00  0.00    -0.646 OA
ENDBRANCH  13  14
BRANCH  13  17
HETATM   17  C           1     -22.155  -3.700 -11.513  0.00  0.00     0.149 C 
BRANCH  17  18
HETATM   18  C           1     -20.672  -3.534 -11.285  0.00  0.00     0.175 C 
HETATM   19  O           1     -19.941  -4.541 -11.172  0.00  0.00    -0.648 OA
HETATM   20  O           1     -20.177  -2.389 -11.209  0.00  0.00    -0.648 OA
ENDBRANCH  17  18
ENDBRANCH  13  17
ENDBRANCH   4  13
TORSDOF 7
ENDMDL
MODEL 5
REMARK VINA RESULT:      -5.7      1.780      3.256
REMARK  7 active torsions:
REMARK  status: ('A' for Active; 'I' for Inactive)
REMARK    1  A    between atoms: N_1  and  C_12 
REMARK    2  A    between atoms: C_6  and  C_8 
REMARK    3  A    between atoms: C_8  and  C_11 
REMARK    4  A    between atoms: C_8  and  N_20 
REMARK    5  A    between atoms: C_9  and  C_11 
REMARK    6  A    between atoms: C_12  and  C_13 
REMARK    7  A    between atoms: C_12  and  C_14 
REMARK       I    between atoms: C_13  and  N_20 
ROOT
HETATM    1  C           1     -35.091  -1.928 -12.628  0.00  0.00     0.249 C 
HETATM    2  H           1     -34.023  -1.426 -14.329  0.00  0.00     0.163 HD
HETATM    3  O           1     -36.191  -1.990 -12.131  0.00  0.00    -0.271 OA
HETATM    4  N           1     -34.944  -1.477 -13.913  0.00  0.00    -0.344 N 
ENDROOT
BRANCH   1   5
HETATM    5  C           1     -33.880  -2.350 -11.833  0.00  0.00     0.278 C 
BRANCH   5   6
HETATM    6  N           1     -34.008  -1.848 -10.425  0.00  0.00    -0.066 N 
HETATM    7  H           1     -33.390  -1.015 -10.295  0.00  0.00     0.275 HD
HETATM    8  H           1     -35.001  -1.578 -10.241  0.00  0.00     0.275 HD
HETATM    9  H           1     -33.721  -2.601  -9.760  0.00  0.00     0.275 HD
ENDBRANCH   5   6
BRANCH   5  10
HETATM   10  C           1     -33.782  -3.870 -11.824  0.00  0.00     0.017 C 
HETATM   11  C           1     -32.357  -4.289 -12.156  0.00  0.00     0.012 C 
HETATM   12  C           1     -34.155  -4.393 -10.443  0.00  0.00     0.012 C 
ENDBRANCH   5  10
ENDBRANCH   1   5
BRANCH   4  13
HETATM   13  C           1     -36.109  -1.072 -14.676  0.00  0.00     0.195 C 
BRANCH  13  14
HETATM   14  C           1     -35.790  -1.135 -16.149  0.00  0.00     0.197 C 
HETATM   15  O           1     -34.682  -1.566 -16.532  0.00  0.00    -0.646 OA
HETATM   16  O           1     -36.636  -0.754 -16.989  0.00  0.00    -0.646 OA
ENDBRANCH  13  14
BRANCH  13  17
HETATM   17  C           1     -36.490   0.354 -14.299  0.00  0.00     0.149 C 
BRANCH  17  18
HETATM   18  C           1     -35.330   1.277 -14.583  0.00  0.00     0.175 C 
HETATM   19  O           1     -35.381   2.064 -15.553  0.00  0.00    -0.648 OA
HETATM   20  O           1     -34.319   1.253 -13.849  0.00  0.00    -0.648 OA
ENDBRANCH  17  18
ENDBRANCH  13  17
ENDBRANCH   4  13
TORSDOF 7
ENDMDL
MODEL 6
REMARK VINA RESULT:      -5.5      1.997      5.190
REMARK  7 active torsions:
REMARK  status: ('A' for Active; 'I' for Inactive)
REMARK    1  A    between atoms: N_1  and  C_12 
REMARK    2  A    between atoms: C_6  and  C_8 
REMARK    3  A    between atoms: C_8  and  C_11 
REMARK    4  A    between atoms: C_8  and  N_20 
REMARK    5  A    between atoms: C_9  and  C_11 
REMARK    6  A    between atoms: C_12  and  C_13 
REMARK    7  A    between atoms: C_12  and  C_14 
REMARK       I    between atoms: C_13  and  N_20 
ROOT
HETATM    1  C           1     -36.022  -0.883 -13.313  0.00  0.00     0.249 C 
HETATM    2  H           1     -34.044  -1.392 -13.655  0.00  0.00     0.163 HD
HETATM    3  O           1     -36.991  -1.086 -12.621  0.00  0.00    -0.271 OA
HETATM    4  N           1     -34.856  -1.563 -13.076  0.00  0.00    -0.344 N 
ENDROOT
BRANCH   1   5
HETATM    5  C           1     -36.094   0.120 -14.438  0.00  0.00     0.278 C 
BRANCH   5   6
HETATM    6  N           1     -34.729   0.302 -15.032  0.00  0.00    -0.066 N 
HETATM    7  H           1     -34.181   0.973 -14.446  0.00  0.00     0.275 HD
HETATM    8  H           1     -34.236  -0.619 -15.060  0.00  0.00     0.275 HD
HETATM    9  H           1     -34.819   0.681 -16.002  0.00  0.00     0.275 HD
ENDBRANCH   5   6
BRANCH   5  10
HETATM   10  C           1     -37.051  -0.386 -15.509  0.00  0.00     0.017 C 
HETATM   11  C           1     -38.047   0.710 -15.861  0.00  0.00     0.012 C 
HETATM   12  C           1     -36.261  -0.772 -16.753  0.00  0.00     0.012 C 
ENDBRANCH   5  10
ENDBRANCH   1   5
BRANCH   4  13
HETATM   13  C           1     -34.787  -2.527 -11.995  0.00  0.00     0.195 C 
BRANCH  13  14
HETATM   14  C           1     -34.308  -1.840 -10.740  0.00  0.00     0.197 C 
HETATM   15  O           1     -35.134  -1.344  -9.944  0.00  0.00    -0.646 OA
HETATM   16  O           1     -33.084  -1.766 -10.496  0.00  0.00    -0.646 OA
ENDBRANCH  13  14
BRANCH  13  17
HETATM   17  C           1     -33.813  -3.638 -12.369  0.00  0.00     0.149 C 
BRANCH  17  18
HETATM   18  C           1     -34.338  -4.959 -11.861  0.00  0.00     0.175 C 
HETATM   19  O           1     -33.996  -5.374 -10.732  0.00  0.00    -0.648 OA
HETATM   20  O           1     -35.113  -5.636 -12.568  0.00  0.00    -0.648 OA
ENDBRANCH  17  18
ENDBRANCH  13  17
ENDBRANCH   4  13
TORSDOF 7
ENDMDL
MODEL 7
REMARK VINA RESULT:      -5.5     11.687     14.044
REMARK  7 active torsions:
REMARK  status: ('A' for Active; 'I' for Inactive)
REMARK    1  A    between atoms: N_1  and  C_12 
REMARK    2  A    between atoms: C_6  and  C_8 
REMARK    3  A    between atoms: C_8  and  C_11 
REMARK    4  A    between atoms: C_8  and  N_20 
REMARK    5  A    between atoms: C_9  and  C_11 
REMARK    6  A    between atoms: C_12  and  C_13 
REMARK    7  A    between atoms: C_12  and  C_14 
REMARK       I    between atoms: C_13  and  N_20 
ROOT
HETATM    1  C           1     -22.086  -4.163  -7.674  0.00  0.00     0.249 C 
HETATM    2  H           1     -23.116  -5.569  -8.791  0.00  0.00     0.163 HD
HETATM    3  O           1     -21.627  -3.045  -7.669  0.00  0.00    -0.271 OA
HETATM    4  N           1     -22.731  -4.633  -8.787  0.00  0.00    -0.344 N 
ENDROOT
BRANCH   1   5
HETATM    5  C           1     -21.949  -5.040  -6.454  0.00  0.00     0.278 C 
BRANCH   5   6
HETATM    6  N           1     -23.310  -5.460  -5.987  0.00  0.00    -0.066 N 
HETATM    7  H           1     -23.299  -5.585  -4.948  0.00  0.00     0.275 HD
HETATM    8  H           1     -24.008  -4.724  -6.241  0.00  0.00     0.275 HD
HETATM    9  H           1     -23.572  -6.363  -6.443  0.00  0.00     0.275 HD
ENDBRANCH   5   6
BRANCH   5  10
HETATM   10  C           1     -21.129  -6.274  -6.805  0.00  0.00     0.017 C 
HETATM   11  C           1     -19.678  -5.874  -7.033  0.00  0.00     0.012 C 
HETATM   12  C           1     -21.205  -7.276  -5.660  0.00  0.00     0.012 C 
ENDBRANCH   5  10
ENDBRANCH   1   5
BRANCH   4  13
HETATM   13  C           1     -22.862  -3.790  -9.959  0.00  0.00     0.195 C 
BRANCH  13  14
HETATM   14  C           1     -24.317  -3.690 -10.345  0.00  0.00     0.197 C 
HETATM   15  O           1     -25.181  -4.323  -9.700  0.00  0.00    -0.646 OA
HETATM   16  O           1     -24.660  -2.974 -11.312  0.00  0.00    -0.646 OA
ENDBRANCH  13  14
BRANCH  13  17
HETATM   17  C           1     -22.071  -4.398 -11.111  0.00  0.00     0.149 C 
BRANCH  17  18
HETATM   18  C           1     -20.608  -4.067 -10.945  0.00  0.00     0.175 C 
HETATM   19  O           1     -20.181  -2.939 -11.274  0.00  0.00    -0.648 OA
HETATM   20  O           1     -19.823  -4.921 -10.479  0.00  0.00    -0.648 OA
ENDBRANCH  17  18
ENDBRANCH  13  17
ENDBRANCH   4  13
TORSDOF 7
ENDMDL
MODEL 8
REMARK VINA RESULT:      -5.3     12.768     15.369
REMARK  7 active torsions:
REMARK  status: ('A' for Active; 'I' for Inactive)
REMARK    1  A    between atoms: N_1  and  C_12 
REMARK    2  A    between atoms: C_6  and  C_8 
REMARK    3  A    between atoms: C_8  and  C_11 
REMARK    4  A    between atoms: C_8  and  N_20 
REMARK    5  A    between atoms: C_9  and  C_11 
REMARK    6  A    between atoms: C_12  and  C_13 
REMARK    7  A    between atoms: C_12  and  C_14 
REMARK       I    between atoms: C_13  and  N_20 
ROOT
HETATM    1  C           1     -22.340  -4.237  -8.180  0.00  0.00     0.249 C 
HETATM    2  H           1     -22.256  -6.306  -8.180  0.00  0.00     0.163 HD
HETATM    3  O           1     -21.957  -3.230  -7.633  0.00  0.00    -0.271 OA
HETATM    4  N           1     -21.936  -5.463  -7.721  0.00  0.00    -0.344 N 
ENDROOT
BRANCH   1   5
HETATM    5  C           1     -23.265  -4.144  -9.369  0.00  0.00     0.278 C 
BRANCH   5   6
HETATM    6  N           1     -24.492  -3.371  -8.988  0.00  0.00    -0.066 N 
HETATM    7  H           1     -25.342  -3.949  -9.182  0.00  0.00     0.275 HD
HETATM    8  H           1     -24.454  -3.139  -7.969  0.00  0.00     0.275 HD
HETATM    9  H           1     -24.536  -2.490  -9.547  0.00  0.00     0.275 HD
ENDBRANCH   5   6
BRANCH   5  10
HETATM   10  C           1     -22.552  -3.434 -10.513  0.00  0.00     0.017 C 
HETATM   11  C           1     -21.510  -4.363 -11.118  0.00  0.00     0.012 C 
HETATM   12  C           1     -23.568  -3.046 -11.579  0.00  0.00     0.012 C 
ENDBRANCH   5  10
ENDBRANCH   1   5
BRANCH   4  13
HETATM   13  C           1     -21.047  -5.551  -6.578  0.00  0.00     0.195 C 
BRANCH  13  14
HETATM   14  C           1     -19.631  -5.751  -7.058  0.00  0.00     0.197 C 
HETATM   15  O           1     -18.939  -4.766  -7.395  0.00  0.00    -0.646 OA
HETATM   16  O           1     -19.148  -6.903  -7.119  0.00  0.00    -0.646 OA
ENDBRANCH  13  14
BRANCH  13  17
HETATM   17  C           1     -21.460  -6.730  -5.707  0.00  0.00     0.149 C 
BRANCH  17  18
HETATM   18  C           1     -22.518  -6.285  -4.726  0.00  0.00     0.175 C 
HETATM   19  O           1     -23.670  -6.015  -5.129  0.00  0.00    -0.648 OA
HETATM   20  O           1     -22.241  -6.185  -3.512  0.00  0.00    -0.648 OA
ENDBRANCH  17  18
ENDBRANCH  13  17
ENDBRANCH   4  13
TORSDOF 7
ENDMDL
MODEL 9
REMARK VINA RESULT:      -5.3     16.252     18.447
REMARK  7 active torsions:
REMARK  status: ('A' for Active; 'I' for Inactive)
REMARK    1  A    between atoms: N_1  and  C_12 
REMARK    2  A    between atoms: C_6  and  C_8 
REMARK    3  A    between atoms: C_8  and  C_11 
REMARK    4  A    between atoms: C_8  and  N_20 
REMARK    5  A    between atoms: C_9  and  C_11 
REMARK    6  A    between atoms: C_12  and  C_13 
REMARK    7  A    between atoms: C_12  and  C_14 
REMARK       I    between atoms: C_13  and  N_20 
ROOT
HETATM    1  C           1     -21.334  -8.496  -2.210  0.00  0.00     0.249 C 
HETATM    2  H           1     -20.424  -6.943  -3.234  0.00  0.00     0.163 HD
HETATM    3  O           1     -21.751  -9.627  -2.294  0.00  0.00    -0.271 OA
HETATM    4  N           1     -20.774  -7.890  -3.304  0.00  0.00    -0.344 N 
ENDROOT
BRANCH   1   5
HETATM    5  C           1     -21.431  -7.750  -0.902  0.00  0.00     0.278 C 
BRANCH   5   6
HETATM    6  N           1     -22.329  -6.561  -1.071  0.00  0.00    -0.066 N 
HETATM    7  H           1     -23.198  -6.850  -1.575  0.00  0.00     0.275 HD
HETATM    8  H           1     -22.583  -6.181  -0.130  0.00  0.00     0.275 HD
HETATM    9  H           1     -21.834  -5.826  -1.624  0.00  0.00     0.275 HD
ENDBRANCH   5   6
BRANCH   5  10
HETATM   10  C           1     -22.003  -8.672   0.167  0.00  0.00     0.017 C 
HETATM   11  C           1     -21.057  -8.718   1.358  0.00  0.00     0.012 C 
HETATM   12  C           1     -23.359  -8.145   0.616  0.00  0.00     0.012 C 
ENDBRANCH   5  10
ENDBRANCH   1   5
BRANCH   4  13
HETATM   13  C           1     -20.682  -8.607  -4.561  0.00  0.00     0.195 C 
BRANCH  13  14
HETATM   14  C           1     -19.232  -8.879  -4.879  0.00  0.00     0.197 C 
HETATM   15  O           1     -18.824  -8.800  -6.058  0.00  0.00    -0.646 OA
HETATM   16  O           1     -18.438  -9.185  -3.963  0.00  0.00    -0.646 OA
ENDBRANCH  13  14
BRANCH  13  17
HETATM   17  C           1     -21.295  -7.763  -5.671  0.00  0.00     0.149 C 
BRANCH  17  18
HETATM   18  C           1     -21.645  -6.398  -5.130  0.00  0.00     0.175 C 
HETATM   19  O           1     -20.773  -5.503  -5.079  0.00  0.00    -0.648 OA
HETATM   20  O           1     -22.806  -6.162  -4.732  0.00  0.00    -0.648 OA
ENDBRANCH  17  18
ENDBRANCH  13  17
ENDBRANCH   4  13
TORSDOF 7
ENDMDL
