MODEL 1
REMARK VINA RESULT:      -6.8      0.000      0.000
REMARK  8 active torsions:
REMARK  status: ('A' for Active; 'I' for Inactive)
REMARK    1  A    between atoms: C_1  and  C_2 
REMARK    2  A    between atoms: C_1  and  C_10 
REMARK    3  A    between atoms: C_1  and  N_16 
REMARK    4  A    between atoms: C_2  and  O_3 
REMARK    5  A    between atoms: N_7  and  C_14 
REMARK    6  A    between atoms: C_13  and  C_14 
REMARK    7  A    between atoms: C_13  and  C_19 
REMARK    8  A    between atoms: C_14  and  C_15 
REMARK       I    between atoms: C_15  and  N_16 
ROOT
HETATM    1  C           1     -34.517  -2.294 -11.940  0.00  0.00     0.280 C 
ENDROOT
BRANCH   1   2
HETATM    2  N           1     -33.827  -1.344 -11.007  0.00  0.00    -0.066 N 
HETATM    3  H           1     -33.983  -1.651 -10.020  0.00  0.00     0.275 HD
HETATM    4  H           1     -34.216  -0.383 -11.138  0.00  0.00     0.275 HD
HETATM    5  H           1     -32.803  -1.336 -11.213  0.00  0.00     0.275 HD
ENDBRANCH   1   2
BRANCH   1   6
HETATM    6  C           1     -35.330  -3.298 -11.132  0.00  0.00     0.101 C 
BRANCH   6   7
HETATM    7  C           1     -34.591  -4.598 -11.059  0.00  0.00     0.028 A 
HETATM    8  C           1     -33.351  -4.823 -11.608  0.00  0.00     0.114 A 
HETATM    9  N           1     -33.063  -6.125 -11.308  0.00  0.00    -0.360 N 
HETATM   10  H           1     -32.189  -6.644 -11.571  0.00  0.00     0.166 HD
HETATM   11  C           1     -34.119  -6.627 -10.602  0.00  0.00     0.180 A 
HETATM   12  N           1     -35.058  -5.725 -10.436  0.00  0.00    -0.355 N 
ATOM     13  HN          1     -35.946  -5.839  -9.946  1.00  0.00     0.166 HD
ENDBRANCH   6   7
ENDBRANCH   1   6
BRANCH   1  14
HETATM   14  C           1     -35.435  -1.524 -12.855  0.00  0.00     0.249 C 
HETATM   15  O           1     -36.583  -1.328 -12.535  0.00  0.00    -0.271 OA
HETATM   16  N           1     -34.966  -1.044 -14.049  0.00  0.00    -0.343 N 
HETATM   17  H           1     -34.005  -1.208 -14.317  0.00  0.00     0.163 HD
BRANCH  16  18
HETATM   18  C           1     -35.848  -0.302 -14.929  0.00  0.00     0.209 C 
BRANCH  18  19
HETATM   19  C           1     -35.370   1.140 -15.030  0.00  0.00     0.200 C 
BRANCH  19  20
HETATM   20  O           1     -36.160   1.832 -15.959  0.00  0.00    -0.398 OA
HETATM   21  H           1     -36.939   1.318 -16.092  0.00  0.00     0.209 HD
ENDBRANCH  19  20
ENDBRANCH  18  19
BRANCH  18  22
HETATM   22  C           1     -35.837  -0.932 -16.300  0.00  0.00     0.198 C 
HETATM   23  O           1     -34.866  -1.635 -16.656  0.00  0.00    -0.646 OA
HETATM   24  O           1     -36.797  -0.752 -17.079  0.00  0.00    -0.646 OA
ENDBRANCH  18  22
ENDBRANCH  16  18
ENDBRANCH   1  14
TORSDOF 8
ENDMDL
MODEL 2
REMARK VINA RESULT:      -6.3      2.865      5.938
REMARK  8 active torsions:
REMARK  status: ('A' for Active; 'I' for Inactive)
REMARK    1  A    between atoms: C_1  and  C_2 
REMARK    2  A    between atoms: C_1  and  C_10 
REMARK    3  A    between atoms: C_1  and  N_16 
REMARK    4  A    between atoms: C_2  and  O_3 
REMARK    5  A    between atoms: N_7  and  C_14 
REMARK    6  A    between atoms: C_13  and  C_14 
REMARK    7  A    between atoms: C_13  and  C_19 
REMARK    8  A    between atoms: C_14  and  C_15 
REMARK       I    between atoms: C_15  and  N_16 
ROOT
HETATM    1  C           1     -35.932  -0.440 -12.103  0.00  0.00     0.280 C 
ENDROOT
BRANCH   1   2
HETATM    2  N           1     -36.294   0.445 -10.948  0.00  0.00    -0.066 N 
HETATM    3  H           1     -36.505   1.407 -11.299  0.00  0.00     0.275 HD
HETATM    4  H           1     -35.494   0.488 -10.277  0.00  0.00     0.275 HD
HETATM    5  H           1     -37.135   0.058 -10.463  0.00  0.00     0.275 HD
ENDBRANCH   1   2
BRANCH   1   6
HETATM    6  C           1     -35.275   0.395 -13.195  0.00  0.00     0.101 C 
BRANCH   6   7
HETATM    7  C           1     -35.765  -0.059 -14.535  0.00  0.00     0.028 A 
HETATM    8  C           1     -37.018   0.201 -15.038  0.00  0.00     0.114 A 
HETATM    9  N           1     -37.035  -0.392 -16.270  0.00  0.00    -0.360 N 
HETATM   10  H           1     -37.839  -0.397 -16.945  0.00  0.00     0.166 HD
HETATM   11  C           1     -35.815  -0.976 -16.461  0.00  0.00     0.180 A 
HETATM   12  N           1     -35.026  -0.790 -15.427  0.00  0.00    -0.355 N 
ATOM     13  HN          1     -34.067  -1.120 -15.314  1.00  0.00     0.166 HD
ENDBRANCH   6   7
ENDBRANCH   1   6
BRANCH   1  14
HETATM   14  C           1     -34.972  -1.506 -11.638  0.00  0.00     0.249 C 
HETATM   15  O           1     -33.968  -1.198 -11.042  0.00  0.00    -0.271 OA
HETATM   16  N           1     -35.240  -2.826 -11.892  0.00  0.00    -0.343 N 
HETATM   17  H           1     -36.081  -3.084 -12.390  0.00  0.00     0.163 HD
BRANCH  16  18
HETATM   18  C           1     -34.318  -3.851 -11.444  0.00  0.00     0.209 C 
BRANCH  18  19
HETATM   19  C           1     -35.085  -5.137 -11.164  0.00  0.00     0.200 C 
BRANCH  19  20
HETATM   20  O           1     -34.460  -6.207 -11.820  0.00  0.00    -0.398 OA
HETATM   21  H           1     -34.344  -6.890 -11.182  0.00  0.00     0.209 HD
ENDBRANCH  19  20
ENDBRANCH  18  19
BRANCH  18  22
HETATM   22  C           1     -33.289  -4.105 -12.518  0.00  0.00     0.198 C 
HETATM   23  O           1     -33.587  -3.937 -13.720  0.00  0.00    -0.646 OA
HETATM   24  O           1     -32.138  -4.480 -12.205  0.00  0.00    -0.646 OA
ENDBRANCH  18  22
ENDBRANCH  16  18
ENDBRANCH   1  14
TORSDOF 8
ENDMDL
MODEL 3
REMARK VINA RESULT:      -6.1     13.389     15.436
REMARK  8 active torsions:
REMARK  status: ('A' for Active; 'I' for Inactive)
REMARK    1  A    between atoms: C_1  and  C_2 
REMARK    2  A    between atoms: C_1  and  C_10 
REMARK    3  A    between atoms: C_1  and  N_16 
REMARK    4  A    between atoms: C_2  and  O_3 
REMARK    5  A    between atoms: N_7  and  C_14 
REMARK    6  A    between atoms: C_13  and  C_14 
REMARK    7  A    between atoms: C_13  and  C_19 
REMARK    8  A    between atoms: C_14  and  C_15 
REMARK       I    between atoms: C_15  and  N_16 
ROOT
HETATM    1  C           1     -21.387  -3.539 -10.702  0.00  0.00     0.280 C 
ENDROOT
BRANCH   1   2
HETATM    2  N           1     -20.328  -2.749 -11.412  0.00  0.00    -0.066 N 
HETATM    3  H           1     -19.646  -2.375 -10.714  0.00  0.00     0.275 HD
HETATM    4  H           1     -20.771  -1.953 -11.924  0.00  0.00     0.275 HD
HETATM    5  H           1     -19.830  -3.366 -12.092  0.00  0.00     0.275 HD
ENDBRANCH   1   2
BRANCH   1   6
HETATM    6  C           1     -22.178  -4.354 -11.717  0.00  0.00     0.101 C 
BRANCH   6   7
HETATM    7  C           1     -22.838  -3.432 -12.694  0.00  0.00     0.028 A 
HETATM    8  C           1     -23.960  -2.684 -12.427  0.00  0.00     0.114 A 
HETATM    9  N           1     -24.212  -1.998 -13.582  0.00  0.00    -0.360 N 
HETATM   10  H           1     -25.001  -1.324 -13.745  0.00  0.00     0.166 HD
HETATM   11  C           1     -23.251  -2.351 -14.487  0.00  0.00     0.180 A 
HETATM   12  N           1     -22.406  -3.216 -13.976  0.00  0.00    -0.355 N 
ATOM     13  HN          1     -21.599  -3.638 -14.436  1.00  0.00     0.166 HD
ENDBRANCH   6   7
ENDBRANCH   1   6
BRANCH   1  14
HETATM   14  C           1     -20.738  -4.468  -9.707  0.00  0.00     0.249 C 
HETATM   15  O           1     -19.766  -5.112 -10.024  0.00  0.00    -0.271 OA
HETATM   16  N           1     -21.250  -4.581  -8.441  0.00  0.00    -0.343 N 
HETATM   17  H           1     -22.063  -4.042  -8.175  0.00  0.00     0.163 HD
BRANCH  16  18
HETATM   18  C           1     -20.626  -5.473  -7.484  0.00  0.00     0.209 C 
BRANCH  18  19
HETATM   19  C           1     -19.487  -4.747  -6.780  0.00  0.00     0.200 C 
BRANCH  19  20
HETATM   20  O           1     -19.827  -4.535  -5.436  0.00  0.00    -0.398 OA
HETATM   21  H           1     -19.495  -5.272  -4.950  0.00  0.00     0.209 HD
ENDBRANCH  19  20
ENDBRANCH  18  19
BRANCH  18  22
HETATM   22  C           1     -21.648  -5.911  -6.464  0.00  0.00     0.198 C 
HETATM   23  O           1     -22.633  -5.182  -6.216  0.00  0.00    -0.646 OA
HETATM   24  O           1     -21.511  -7.001  -5.869  0.00  0.00    -0.646 OA
ENDBRANCH  18  22
ENDBRANCH  16  18
ENDBRANCH   1  14
TORSDOF 8
ENDMDL
MODEL 4
REMARK VINA RESULT:      -6.1     12.610     14.061
REMARK  8 active torsions:
REMARK  status: ('A' for Active; 'I' for Inactive)
REMARK    1  A    between atoms: C_1  and  C_2 
REMARK    2  A    between atoms: C_1  and  C_10 
REMARK    3  A    between atoms: C_1  and  N_16 
REMARK    4  A    between atoms: C_2  and  O_3 
REMARK    5  A    between atoms: N_7  and  C_14 
REMARK    6  A    between atoms: C_13  and  C_14 
REMARK    7  A    between atoms: C_13  and  C_19 
REMARK    8  A    between atoms: C_14  and  C_15 
REMARK       I    between atoms: C_15  and  N_16 
ROOT
HETATM    1  C           1     -20.541  -4.846  -9.272  0.00  0.00     0.280 C 
ENDROOT
BRANCH   1   2
HETATM    2  N           1     -19.692  -4.793 -10.507  0.00  0.00    -0.066 N 
HETATM    3  H           1     -20.290  -4.961 -11.348  0.00  0.00     0.275 HD
HETATM    4  H           1     -18.953  -5.530 -10.454  0.00  0.00     0.275 HD
HETATM    5  H           1     -19.241  -3.853 -10.580  0.00  0.00     0.275 HD
ENDBRANCH   1   2
BRANCH   1   6
HETATM    6  C           1     -19.730  -4.360  -8.078  0.00  0.00     0.101 C 
BRANCH   6   7
HETATM    7  C           1     -20.057  -5.195  -6.879  0.00  0.00     0.028 A 
HETATM    8  C           1     -20.383  -4.692  -5.642  0.00  0.00     0.114 A 
HETATM    9  N           1     -20.601  -5.791  -4.858  0.00  0.00    -0.360 N 
HETATM   10  H           1     -20.871  -5.787  -3.844  0.00  0.00     0.166 HD
HETATM   11  C           1     -20.404  -6.896  -5.638  0.00  0.00     0.180 A 
HETATM   12  N           1     -20.074  -6.565  -6.865  0.00  0.00    -0.355 N 
ATOM     13  HN          1     -19.874  -7.195  -7.643  1.00  0.00     0.166 HD
ENDBRANCH   6   7
ENDBRANCH   1   6
BRANCH   1  14
HETATM   14  C           1     -21.748  -3.960  -9.454  0.00  0.00     0.249 C 
HETATM   15  O           1     -22.154  -3.294  -8.532  0.00  0.00    -0.271 OA
HETATM   16  N           1     -22.384  -3.910 -10.666  0.00  0.00    -0.343 N 
HETATM   17  H           1     -22.045  -4.467 -11.439  0.00  0.00     0.163 HD
BRANCH  16  18
HETATM   18  C           1     -23.544  -3.057 -10.841  0.00  0.00     0.209 C 
BRANCH  18  19
HETATM   19  C           1     -23.810  -2.860 -12.328  0.00  0.00     0.200 C 
BRANCH  19  20
HETATM   20  O           1     -25.155  -3.143 -12.605  0.00  0.00    -0.398 OA
HETATM   21  H           1     -25.277  -4.066 -12.456  0.00  0.00     0.209 HD
ENDBRANCH  19  20
ENDBRANCH  18  19
BRANCH  18  22
HETATM   22  C           1     -24.746  -3.705 -10.198  0.00  0.00     0.198 C 
HETATM   23  O           1     -24.783  -4.946 -10.053  0.00  0.00    -0.646 OA
HETATM   24  O           1     -25.702  -3.001  -9.810  0.00  0.00    -0.646 OA
ENDBRANCH  18  22
ENDBRANCH  16  18
ENDBRANCH   1  14
TORSDOF 8
ENDMDL
MODEL 5
REMARK VINA RESULT:      -6.0     13.238     15.377
REMARK  8 active torsions:
REMARK  status: ('A' for Active; 'I' for Inactive)
REMARK    1  A    between atoms: C_1  and  C_2 
REMARK    2  A    between atoms: C_1  and  C_10 
REMARK    3  A    between atoms: C_1  and  N_16 
REMARK    4  A    between atoms: C_2  and  O_3 
REMARK    5  A    between atoms: N_7  and  C_14 
REMARK    6  A    between atoms: C_13  and  C_14 
REMARK    7  A    between atoms: C_13  and  C_19 
REMARK    8  A    between atoms: C_14  and  C_15 
REMARK       I    between atoms: C_15  and  N_16 
ROOT
HETATM    1  C           1     -22.977  -4.258  -8.973  0.00  0.00     0.280 C 
ENDROOT
BRANCH   1   2
HETATM    2  N           1     -24.209  -3.441  -8.719  0.00  0.00    -0.066 N 
HETATM    3  H           1     -25.049  -3.966  -9.053  0.00  0.00     0.275 HD
HETATM    4  H           1     -24.139  -2.535  -9.234  0.00  0.00     0.275 HD
HETATM    5  H           1     -24.298  -3.254  -7.695  0.00  0.00     0.275 HD
ENDBRANCH   1   2
BRANCH   1   6
HETATM    6  C           1     -22.112  -3.561 -10.015  0.00  0.00     0.101 C 
BRANCH   6   7
HETATM    7  C           1     -22.842  -3.514 -11.321  0.00  0.00     0.028 A 
HETATM    8  C           1     -23.389  -4.607 -11.950  0.00  0.00     0.114 A 
HETATM    9  N           1     -23.950  -4.113 -13.095  0.00  0.00    -0.360 N 
HETATM   10  H           1     -24.460  -4.668 -13.825  0.00  0.00     0.166 HD
HETATM   11  C           1     -23.725  -2.766 -13.113  0.00  0.00     0.180 A 
HETATM   12  N           1     -23.058  -2.375 -12.052  0.00  0.00    -0.355 N 
ATOM     13  HN          1     -22.763  -1.426 -11.821  1.00  0.00     0.166 HD
ENDBRANCH   6   7
ENDBRANCH   1   6
BRANCH   1  14
HETATM   14  C           1     -22.198  -4.405  -7.689  0.00  0.00     0.249 C 
HETATM   15  O           1     -21.596  -3.462  -7.236  0.00  0.00    -0.271 OA
HETATM   16  N           1     -22.176  -5.609  -7.037  0.00  0.00    -0.343 N 
HETATM   17  H           1     -22.681  -6.400  -7.416  0.00  0.00     0.163 HD
BRANCH  16  18
HETATM   18  C           1     -21.428  -5.752  -5.803  0.00  0.00     0.209 C 
BRANCH  18  19
HETATM   19  C           1     -22.319  -6.379  -4.738  0.00  0.00     0.200 C 
BRANCH  19  20
HETATM   20  O           1     -21.868  -5.996  -3.466  0.00  0.00    -0.398 OA
HETATM   21  H           1     -21.008  -6.365  -3.358  0.00  0.00     0.209 HD
ENDBRANCH  19  20
ENDBRANCH  18  19
BRANCH  18  22
HETATM   22  C           1     -20.230  -6.637  -6.040  0.00  0.00     0.198 C 
HETATM   23  O           1     -19.568  -6.522  -7.094  0.00  0.00    -0.646 OA
HETATM   24  O           1     -19.898  -7.484  -5.183  0.00  0.00    -0.646 OA
ENDBRANCH  18  22
ENDBRANCH  16  18
ENDBRANCH   1  14
TORSDOF 8
ENDMDL
MODEL 6
REMARK VINA RESULT:      -6.0     13.477     15.551
REMARK  8 active torsions:
REMARK  status: ('A' for Active; 'I' for Inactive)
REMARK    1  A    between atoms: C_1  and  C_2 
REMARK    2  A    between atoms: C_1  and  C_10 
REMARK    3  A    between atoms: C_1  and  N_16 
REMARK    4  A    between atoms: C_2  and  O_3 
REMARK    5  A    between atoms: N_7  and  C_14 
REMARK    6  A    between atoms: C_13  and  C_14 
REMARK    7  A    between atoms: C_13  and  C_19 
REMARK    8  A    between atoms: C_14  and  C_15 
REMARK       I    between atoms: C_15  and  N_16 
ROOT
HETATM    1  C           1     -21.448  -3.927 -10.465  0.00  0.00     0.280 C 
ENDROOT
BRANCH   1   2
HETATM    2  N           1     -20.162  -4.573 -10.885  0.00  0.00    -0.066 N 
HETATM    3  H           1     -20.241  -5.610 -10.776  0.00  0.00     0.275 HD
HETATM    4  H           1     -19.382  -4.219 -10.287  0.00  0.00     0.275 HD
HETATM    5  H           1     -19.966  -4.341 -11.885  0.00  0.00     0.275 HD
ENDBRANCH   1   2
BRANCH   1   6
HETATM    6  C           1     -22.606  -4.557 -11.230  0.00  0.00     0.101 C 
BRANCH   6   7
HETATM    7  C           1     -23.055  -3.625 -12.312  0.00  0.00     0.028 A 
HETATM    8  C           1     -24.213  -2.885 -12.274  0.00  0.00     0.114 A 
HETATM    9  N           1     -24.225  -2.186 -13.449  0.00  0.00    -0.360 N 
HETATM   10  H           1     -24.967  -1.513 -13.764  0.00  0.00     0.166 HD
HETATM   11  C           1     -23.096  -2.524 -14.139  0.00  0.00     0.180 A 
HETATM   12  N           1     -22.368  -3.392 -13.474  0.00  0.00    -0.355 N 
ATOM     13  HN          1     -21.481  -3.805 -13.762  1.00  0.00     0.166 HD
ENDBRANCH   6   7
ENDBRANCH   1   6
BRANCH   1  14
HETATM   14  C           1     -21.654  -4.132  -8.985  0.00  0.00     0.249 C 
HETATM   15  O           1     -22.428  -3.430  -8.379  0.00  0.00    -0.271 OA
HETATM   16  N           1     -20.964  -5.115  -8.327  0.00  0.00    -0.343 N 
HETATM   17  H           1     -20.316  -5.704  -8.834  0.00  0.00     0.163 HD
BRANCH  16  18
HETATM   18  C           1     -21.162  -5.313  -6.904  0.00  0.00     0.209 C 
BRANCH  18  19
HETATM   19  C           1     -21.284  -6.802  -6.610  0.00  0.00     0.200 C 
BRANCH  19  20
HETATM   20  O           1     -20.083  -7.269  -6.056  0.00  0.00    -0.398 OA
HETATM   21  H           1     -20.253  -8.135  -5.724  0.00  0.00     0.209 HD
ENDBRANCH  19  20
ENDBRANCH  18  19
BRANCH  18  22
HETATM   22  C           1     -19.985  -4.746  -6.150  0.00  0.00     0.198 C 
HETATM   23  O           1     -18.904  -4.540  -6.742  0.00  0.00    -0.646 OA
HETATM   24  O           1     -20.091  -4.483  -4.933  0.00  0.00    -0.646 OA
ENDBRANCH  18  22
ENDBRANCH  16  18
ENDBRANCH   1  14
TORSDOF 8
ENDMDL
MODEL 7
REMARK VINA RESULT:      -5.9     13.122     14.691
REMARK  8 active torsions:
REMARK  status: ('A' for Active; 'I' for Inactive)
REMARK    1  A    between atoms: C_1  and  C_2 
REMARK    2  A    between atoms: C_1  and  C_10 
REMARK    3  A    between atoms: C_1  and  N_16 
REMARK    4  A    between atoms: C_2  and  O_3 
REMARK    5  A    between atoms: N_7  and  C_14 
REMARK    6  A    between atoms: C_13  and  C_14 
REMARK    7  A    between atoms: C_13  and  C_19 
REMARK    8  A    between atoms: C_14  and  C_15 
REMARK       I    between atoms: C_15  and  N_16 
ROOT
HETATM    1  C           1     -21.142  -5.650  -6.874  0.00  0.00     0.280 C 
ENDROOT
BRANCH   1   2
HETATM    2  N           1     -19.913  -6.246  -7.492  0.00  0.00    -0.066 N 
HETATM    3  H           1     -20.141  -7.187  -7.884  0.00  0.00     0.275 HD
HETATM    4  H           1     -19.168  -6.343  -6.765  0.00  0.00     0.275 HD
HETATM    5  H           1     -19.571  -5.622  -8.258  0.00  0.00     0.275 HD
ENDBRANCH   1   2
BRANCH   1   6
HETATM    6  C           1     -20.802  -5.106  -5.492  0.00  0.00     0.101 C 
BRANCH   6   7
HETATM    7  C           1     -21.163  -6.120  -4.452  0.00  0.00     0.028 A 
HETATM    8  C           1     -21.287  -7.469  -4.686  0.00  0.00     0.114 A 
HETATM    9  N           1     -21.624  -8.009  -3.476  0.00  0.00    -0.360 N 
HETATM   10  H           1     -21.800  -9.025  -3.278  0.00  0.00     0.166 HD
HETATM   11  C           1     -21.690  -6.986  -2.574  0.00  0.00     0.180 A 
HETATM   12  N           1     -21.415  -5.831  -3.137  0.00  0.00    -0.355 N 
ATOM     13  HN          1     -21.393  -4.914  -2.689  1.00  0.00     0.166 HD
ENDBRANCH   6   7
ENDBRANCH   1   6
BRANCH   1  14
HETATM   14  C           1     -21.651  -4.528  -7.745  0.00  0.00     0.249 C 
HETATM   15  O           1     -21.609  -3.388  -7.349  0.00  0.00    -0.271 OA
HETATM   16  N           1     -22.159  -4.803  -8.987  0.00  0.00    -0.343 N 
HETATM   17  H           1     -22.193  -5.758  -9.319  0.00  0.00     0.163 HD
BRANCH  16  18
HETATM   18  C           1     -22.647  -3.725  -9.825  0.00  0.00     0.209 C 
BRANCH  18  19
HETATM   19  C           1     -21.908  -3.742 -11.157  0.00  0.00     0.200 C 
BRANCH  19  20
HETATM   20  O           1     -22.663  -4.452 -12.102  0.00  0.00    -0.398 OA
HETATM   21  H           1     -22.379  -5.349 -12.061  0.00  0.00     0.209 HD
ENDBRANCH  19  20
ENDBRANCH  18  19
BRANCH  18  22
HETATM   22  C           1     -24.124  -3.907 -10.068  0.00  0.00     0.198 C 
HETATM   23  O           1     -24.818  -2.940 -10.451  0.00  0.00    -0.646 OA
HETATM   24  O           1     -24.654  -5.025  -9.889  0.00  0.00    -0.646 OA
ENDBRANCH  18  22
ENDBRANCH  16  18
ENDBRANCH   1  14
TORSDOF 8
ENDMDL
MODEL 8
REMARK VINA RESULT:      -5.7     12.913     14.939
REMARK  8 active torsions:
REMARK  status: ('A' for Active; 'I' for Inactive)
REMARK    1  A    between atoms: C_1  and  C_2 
REMARK    2  A    between atoms: C_1  and  C_10 
REMARK    3  A    between atoms: C_1  and  N_16 
REMARK    4  A    between atoms: C_2  and  O_3 
REMARK    5  A    between atoms: N_7  and  C_14 
REMARK    6  A    between atoms: C_13  and  C_14 
REMARK    7  A    between atoms: C_13  and  C_19 
REMARK    8  A    between atoms: C_14  and  C_15 
REMARK       I    between atoms: C_15  and  N_16 
ROOT
HETATM    1  C           1     -23.595  -4.342  -9.862  0.00  0.00     0.280 C 
ENDROOT
BRANCH   1   2
HETATM    2  N           1     -24.890  -4.957  -9.422  0.00  0.00    -0.066 N 
HETATM    3  H           1     -24.808  -5.999  -9.449  0.00  0.00     0.275 HD
HETATM    4  H           1     -25.657  -4.653 -10.063  0.00  0.00     0.275 HD
HETATM    5  H           1     -25.108  -4.650  -8.447  0.00  0.00     0.275 HD
ENDBRANCH   1   2
BRANCH   1   6
HETATM    6  C           1     -23.869  -2.984 -10.496  0.00  0.00     0.101 C 
BRANCH   6   7
HETATM    7  C           1     -23.377  -2.984 -11.909  0.00  0.00     0.028 A 
HETATM    8  C           1     -22.196  -3.550 -12.326  0.00  0.00     0.114 A 
HETATM    9  N           1     -22.148  -3.320 -13.673  0.00  0.00    -0.360 N 
HETATM   10  H           1     -21.380  -3.615 -14.326  0.00  0.00     0.166 HD
HETATM   11  C           1     -23.280  -2.637 -14.012  0.00  0.00     0.180 A 
HETATM   12  N           1     -24.043  -2.420 -12.966  0.00  0.00    -0.355 N 
ATOM     13  HN          1     -24.940  -1.935 -12.944  1.00  0.00     0.166 HD
ENDBRANCH   6   7
ENDBRANCH   1   6
BRANCH   1  14
HETATM   14  C           1     -22.690  -4.166  -8.668  0.00  0.00     0.249 C 
HETATM   15  O           1     -22.148  -3.106  -8.471  0.00  0.00    -0.271 OA
HETATM   16  N           1     -22.485  -5.211  -7.806  0.00  0.00    -0.343 N 
HETATM   17  H           1     -22.940  -6.099  -7.970  0.00  0.00     0.163 HD
BRANCH  16  18
HETATM   18  C           1     -21.616  -5.042  -6.657  0.00  0.00     0.209 C 
BRANCH  18  19
HETATM   19  C           1     -22.043  -6.000  -5.552  0.00  0.00     0.200 C 
BRANCH  19  20
HETATM   20  O           1     -20.905  -6.555  -4.949  0.00  0.00    -0.398 OA
HETATM   21  H           1     -20.161  -6.261  -5.446  0.00  0.00     0.209 HD
ENDBRANCH  19  20
ENDBRANCH  18  19
BRANCH  18  22
HETATM   22  C           1     -20.192  -5.340  -7.057  0.00  0.00     0.198 C 
HETATM   23  O           1     -19.930  -6.371  -7.714  0.00  0.00    -0.646 OA
HETATM   24  O           1     -19.275  -4.556  -6.732  0.00  0.00    -0.646 OA
ENDBRANCH  18  22
ENDBRANCH  16  18
ENDBRANCH   1  14
TORSDOF 8
ENDMDL
MODEL 9
REMARK VINA RESULT:      -5.6      2.485      3.849
REMARK  8 active torsions:
REMARK  status: ('A' for Active; 'I' for Inactive)
REMARK    1  A    between atoms: C_1  and  C_2 
REMARK    2  A    between atoms: C_1  and  C_10 
REMARK    3  A    between atoms: C_1  and  N_16 
REMARK    4  A    between atoms: C_2  and  O_3 
REMARK    5  A    between atoms: N_7  and  C_14 
REMARK    6  A    between atoms: C_13  and  C_14 
REMARK    7  A    between atoms: C_13  and  C_19 
REMARK    8  A    between atoms: C_14  and  C_15 
REMARK       I    between atoms: C_15  and  N_16 
ROOT
HETATM    1  C           1     -35.474  -1.838 -11.698  0.00  0.00     0.280 C 
ENDROOT
BRANCH   1   2
HETATM    2  N           1     -34.293  -1.038 -11.236  0.00  0.00    -0.066 N 
HETATM    3  H           1     -34.559  -0.029 -11.172  0.00  0.00     0.275 HD
HETATM    4  H           1     -33.509  -1.148 -11.918  0.00  0.00     0.275 HD
HETATM    5  H           1     -33.987  -1.379 -10.297  0.00  0.00     0.275 HD
ENDBRANCH   1   2
BRANCH   1   6
HETATM    6  C           1     -36.469  -1.980 -10.554  0.00  0.00     0.101 C 
BRANCH   6   7
HETATM    7  C           1     -36.649  -0.655  -9.880  0.00  0.00     0.028 A 
HETATM    8  C           1     -35.984  -0.258  -8.745  0.00  0.00     0.114 A 
HETATM    9  N           1     -36.447   1.001  -8.484  0.00  0.00    -0.360 N 
HETATM   10  H           1     -36.156   1.617  -7.685  0.00  0.00     0.166 HD
HETATM   11  C           1     -37.358   1.312  -9.454  0.00  0.00     0.180 A 
HETATM   12  N           1     -37.500   0.329 -10.312  0.00  0.00    -0.355 N 
ATOM     13  HN          1     -38.113   0.303 -11.128  1.00  0.00     0.166 HD
ENDBRANCH   6   7
ENDBRANCH   1   6
BRANCH   1  14
HETATM   14  C           1     -36.137  -1.134 -12.856  0.00  0.00     0.249 C 
HETATM   15  O           1     -37.331  -0.954 -12.852  0.00  0.00    -0.271 OA
HETATM   16  N           1     -35.383  -0.697 -13.913  0.00  0.00    -0.343 N 
HETATM   17  H           1     -34.383  -0.847 -13.917  0.00  0.00     0.163 HD
BRANCH  16  18
HETATM   18  C           1     -36.019  -0.020 -15.026  0.00  0.00     0.209 C 
BRANCH  18  19
HETATM   19  C           1     -35.399   1.361 -15.203  0.00  0.00     0.200 C 
BRANCH  19  20
HETATM   20  O           1     -36.167   2.106 -16.108  0.00  0.00    -0.398 OA
HETATM   21  H           1     -35.905   3.006 -16.014  0.00  0.00     0.209 HD
ENDBRANCH  19  20
ENDBRANCH  18  19
BRANCH  18  22
HETATM   22  C           1     -35.818  -0.825 -16.286  0.00  0.00     0.198 C 
HETATM   23  O           1     -34.804  -1.545 -16.411  0.00  0.00    -0.646 OA
HETATM   24  O           1     -36.665  -0.773 -17.203  0.00  0.00    -0.646 OA
ENDBRANCH  18  22
ENDBRANCH  16  18
ENDBRANCH   1  14
TORSDOF 8
ENDMDL
