MODEL 1
REMARK VINA RESULT:      -6.4      0.000      0.000
REMARK  10 active torsions:
REMARK  status: ('A' for Active; 'I' for Inactive)
REMARK    1  A    between atoms: C_4  and  O_12 
REMARK    2  A    between atoms: C_4  and  C_18 
REMARK    3  A    between atoms: C_5  and  C_20 
REMARK    4  A    between atoms: C_5  and  C_23 
REMARK    5  A    between atoms: C_5  and  N_15 
REMARK    6  A    between atoms: N_7  and  C_8 
REMARK    7  A    between atoms: C_8  and  C_9 
REMARK    8  A    between atoms: C_9  and  C_23 
REMARK    9  A    between atoms: C_17  and  C_18 
REMARK   10  A    between atoms: C_18  and  N_21 
REMARK       I    between atoms: C_20  and  N_21 
ROOT
HETATM    1  C           1     -34.314  -2.388 -11.913  0.00  0.00     0.274 C 
ENDROOT
BRANCH   1   2
HETATM    2  C           1     -35.362  -1.685 -12.739  0.00  0.00     0.249 C 
HETATM    3  O           1     -36.479  -1.539 -12.302  0.00  0.00    -0.271 OA
HETATM    4  N           1     -35.048  -1.215 -13.986  0.00  0.00    -0.343 N 
HETATM    5  H           1     -34.114  -1.338 -14.353  0.00  0.00     0.163 HD
BRANCH   4   6
HETATM    6  C           1     -36.056  -0.540 -14.781  0.00  0.00     0.214 C 
BRANCH   6   7
HETATM    7  C           1     -35.890   0.967 -14.635  0.00  0.00     0.147 C 
HETATM    8  C           1     -34.525   1.271 -14.033  0.00  0.00     0.042 C 
BRANCH   7   9
HETATM    9  O           1     -35.991   1.572 -15.897  0.00  0.00    -0.393 OA
HETATM   10  H           1     -36.060   2.500 -15.750  0.00  0.00     0.210 HD
ENDBRANCH   7   9
ENDBRANCH   6   7
BRANCH   6  11
HETATM   11  C           1     -35.895  -0.926 -16.230  0.00  0.00     0.199 C 
HETATM   12  O           1     -34.808  -1.391 -16.636  0.00  0.00    -0.646 OA
HETATM   13  O           1     -36.849  -0.781 -17.025  0.00  0.00    -0.646 OA
ENDBRANCH   6  11
ENDBRANCH   4   6
ENDBRANCH   1   2
BRANCH   1  14
HETATM   14  C           1     -34.903  -3.663 -11.322  0.00  0.00     0.044 C 
BRANCH  14  15
HETATM   15  C           1     -33.807  -4.447 -10.613  0.00  0.00     0.030 C 
BRANCH  15  16
HETATM   16  C           1     -34.104  -5.939 -10.709  0.00  0.00     0.248 C 
BRANCH  16  17
HETATM   17  N           1     -34.707  -6.243 -12.048  0.00  0.00    -0.079 N 
HETATM   18  H           1     -33.945  -6.408 -12.745  0.00  0.00     0.274 HD
HETATM   19  H           1     -35.293  -5.435 -12.359  0.00  0.00     0.274 HD
HETATM   20  H           1     -35.304  -7.098 -11.976  0.00  0.00     0.274 HD
ENDBRANCH  16  17
ENDBRANCH  15  16
ENDBRANCH  14  15
ENDBRANCH   1  14
BRANCH   1  21
HETATM   21  N           1     -33.864  -1.485 -10.803  0.00  0.00    -0.067 N 
HETATM   22  H           1     -34.102  -0.495 -11.040  0.00  0.00     0.275 HD
HETATM   23  H           1     -34.346  -1.757  -9.917  0.00  0.00     0.275 HD
HETATM   24  H           1     -32.830  -1.573 -10.679  0.00  0.00     0.257 HD
ENDBRANCH   1  21
TORSDOF 10
ENDMDL
MODEL 2
REMARK VINA RESULT:      -6.2     13.110     14.603
REMARK  10 active torsions:
REMARK  status: ('A' for Active; 'I' for Inactive)
REMARK    1  A    between atoms: C_4  and  O_12 
REMARK    2  A    between atoms: C_4  and  C_18 
REMARK    3  A    between atoms: C_5  and  C_20 
REMARK    4  A    between atoms: C_5  and  C_23 
REMARK    5  A    between atoms: C_5  and  N_15 
REMARK    6  A    between atoms: N_7  and  C_8 
REMARK    7  A    between atoms: C_8  and  C_9 
REMARK    8  A    between atoms: C_9  and  C_23 
REMARK    9  A    between atoms: C_17  and  C_18 
REMARK   10  A    between atoms: C_18  and  N_21 
REMARK       I    between atoms: C_20  and  N_21 
ROOT
HETATM    1  C           1     -21.108  -5.862  -6.901  0.00  0.00     0.274 C 
ENDROOT
BRANCH   1   2
HETATM    2  C           1     -21.680  -4.643  -7.583  0.00  0.00     0.249 C 
HETATM    3  O           1     -21.638  -3.568  -7.034  0.00  0.00    -0.271 OA
HETATM    4  N           1     -22.249  -4.757  -8.823  0.00  0.00    -0.343 N 
HETATM    5  H           1     -22.285  -5.657  -9.282  0.00  0.00     0.163 HD
BRANCH   4   6
HETATM    6  C           1     -22.799  -3.586  -9.478  0.00  0.00     0.214 C 
BRANCH   6   7
HETATM    7  C           1     -22.114  -3.389 -10.823  0.00  0.00     0.147 C 
HETATM    8  C           1     -21.006  -4.421 -10.984  0.00  0.00     0.042 C 
BRANCH   7   9
HETATM    9  O           1     -23.053  -3.546 -11.853  0.00  0.00    -0.393 OA
HETATM   10  H           1     -23.517  -2.729 -11.927  0.00  0.00     0.210 HD
ENDBRANCH   7   9
ENDBRANCH   6   7
BRANCH   6  11
HETATM   11  C           1     -24.280  -3.779  -9.691  0.00  0.00     0.199 C 
HETATM   12  O           1     -25.055  -2.801  -9.622  0.00  0.00    -0.646 OA
HETATM   13  O           1     -24.733  -4.918  -9.937  0.00  0.00    -0.646 OA
ENDBRANCH   6  11
ENDBRANCH   4   6
ENDBRANCH   1   2
BRANCH   1  14
HETATM   14  C           1     -20.976  -5.594  -5.407  0.00  0.00     0.044 C 
BRANCH  14  15
HETATM   15  C           1     -22.004  -6.424  -4.650  0.00  0.00     0.030 C 
BRANCH  15  16
HETATM   16  C           1     -21.521  -6.655  -3.224  0.00  0.00     0.248 C 
BRANCH  16  17
HETATM   17  N           1     -22.404  -5.907  -2.270  0.00  0.00    -0.079 N 
HETATM   18  H           1     -22.732  -6.554  -1.518  0.00  0.00     0.274 HD
HETATM   19  H           1     -23.228  -5.523  -2.785  0.00  0.00     0.274 HD
HETATM   20  H           1     -21.865  -5.119  -1.841  0.00  0.00     0.274 HD
ENDBRANCH  16  17
ENDBRANCH  15  16
ENDBRANCH  14  15
ENDBRANCH   1  14
BRANCH   1  21
HETATM   21  N           1     -19.756  -6.166  -7.475  0.00  0.00    -0.067 N 
HETATM   22  H           1     -19.550  -7.185  -7.363  0.00  0.00     0.275 HD
HETATM   23  H           1     -19.745  -5.917  -8.490  0.00  0.00     0.275 HD
HETATM   24  H           1     -19.030  -5.608  -6.971  0.00  0.00     0.257 HD
ENDBRANCH   1  21
TORSDOF 10
ENDMDL
MODEL 3
REMARK VINA RESULT:      -6.0      2.433      5.673
REMARK  10 active torsions:
REMARK  status: ('A' for Active; 'I' for Inactive)
REMARK    1  A    between atoms: C_4  and  O_12 
REMARK    2  A    between atoms: C_4  and  C_18 
REMARK    3  A    between atoms: C_5  and  C_20 
REMARK    4  A    between atoms: C_5  and  C_23 
REMARK    5  A    between atoms: C_5  and  N_15 
REMARK    6  A    between atoms: N_7  and  C_8 
REMARK    7  A    between atoms: C_8  and  C_9 
REMARK    8  A    between atoms: C_9  and  C_23 
REMARK    9  A    between atoms: C_17  and  C_18 
REMARK   10  A    between atoms: C_18  and  N_21 
REMARK       I    between atoms: C_20  and  N_21 
ROOT
HETATM    1  C           1     -36.162   0.045 -13.358  0.00  0.00     0.274 C 
ENDROOT
BRANCH   1   2
HETATM    2  C           1     -35.371  -1.235 -13.467  0.00  0.00     0.249 C 
HETATM    3  O           1     -34.995  -1.622 -14.548  0.00  0.00    -0.271 OA
HETATM    4  N           1     -35.081  -1.958 -12.341  0.00  0.00    -0.343 N 
HETATM    5  H           1     -35.397  -1.635 -11.436  0.00  0.00     0.163 HD
BRANCH   4   6
HETATM    6  C           1     -34.321  -3.189 -12.446  0.00  0.00     0.214 C 
BRANCH   6   7
HETATM    7  C           1     -33.121  -3.125 -11.511  0.00  0.00     0.147 C 
HETATM    8  C           1     -33.341  -2.028 -10.478  0.00  0.00     0.042 C 
BRANCH   7   9
HETATM    9  O           1     -32.972  -4.358 -10.859  0.00  0.00    -0.393 OA
HETATM   10  H           1     -33.527  -4.334 -10.099  0.00  0.00     0.210 HD
ENDBRANCH   7   9
ENDBRANCH   6   7
BRANCH   6  11
HETATM   11  C           1     -35.198  -4.355 -12.062  0.00  0.00     0.199 C 
HETATM   12  O           1     -35.199  -5.393 -12.758  0.00  0.00    -0.646 OA
HETATM   13  O           1     -35.924  -4.284 -11.046  0.00  0.00    -0.646 OA
ENDBRANCH   6  11
ENDBRANCH   4   6
ENDBRANCH   1   2
BRANCH   1  14
HETATM   14  C           1     -37.574  -0.182 -13.883  0.00  0.00     0.044 C 
BRANCH  14  15
HETATM   15  C           1     -37.707   0.439 -15.266  0.00  0.00     0.030 C 
BRANCH  15  16
HETATM   16  C           1     -37.801  -0.663 -16.313  0.00  0.00     0.248 C 
BRANCH  16  17
HETATM   17  N           1     -36.496  -0.769 -17.046  0.00  0.00    -0.079 N 
HETATM   18  H           1     -36.376  -1.743 -17.405  0.00  0.00     0.274 HD
HETATM   19  H           1     -35.711  -0.537 -16.397  0.00  0.00     0.274 HD
HETATM   20  H           1     -36.492  -0.098 -17.849  0.00  0.00     0.274 HD
ENDBRANCH  16  17
ENDBRANCH  15  16
ENDBRANCH  14  15
ENDBRANCH   1  14
BRANCH   1  21
HETATM   21  N           1     -35.494   1.116 -14.169  0.00  0.00    -0.067 N 
HETATM   22  H           1     -36.072   1.325 -15.014  0.00  0.00     0.275 HD
HETATM   23  H           1     -35.396   1.980 -13.590  0.00  0.00     0.275 HD
HETATM   24  H           1     -34.548   0.787 -14.468  0.00  0.00     0.257 HD
ENDBRANCH   1  21
TORSDOF 10
ENDMDL
MODEL 4
REMARK VINA RESULT:      -5.6     10.912     12.110
REMARK  10 active torsions:
REMARK  status: ('A' for Active; 'I' for Inactive)
REMARK    1  A    between atoms: C_4  and  O_12 
REMARK    2  A    between atoms: C_4  and  C_18 
REMARK    3  A    between atoms: C_5  and  C_20 
REMARK    4  A    between atoms: C_5  and  C_23 
REMARK    5  A    between atoms: C_5  and  N_15 
REMARK    6  A    between atoms: N_7  and  C_8 
REMARK    7  A    between atoms: C_8  and  C_9 
REMARK    8  A    between atoms: C_9  and  C_23 
REMARK    9  A    between atoms: C_17  and  C_18 
REMARK   10  A    between atoms: C_18  and  N_21 
REMARK       I    between atoms: C_20  and  N_21 
ROOT
HETATM    1  C           1     -25.383  -6.689 -19.450  0.00  0.00     0.274 C 
ENDROOT
BRANCH   1   2
HETATM    2  C           1     -26.760  -6.381 -18.913  0.00  0.00     0.249 C 
HETATM    3  O           1     -27.531  -5.723 -19.570  0.00  0.00    -0.271 OA
HETATM    4  N           1     -27.133  -6.847 -17.681  0.00  0.00    -0.343 N 
HETATM    5  H           1     -26.487  -7.397 -17.131  0.00  0.00     0.163 HD
BRANCH   4   6
HETATM    6  C           1     -28.455  -6.551 -17.165  0.00  0.00     0.214 C 
BRANCH   6   7
HETATM    7  C           1     -29.423  -7.647 -17.591  0.00  0.00     0.147 C 
HETATM    8  C           1     -30.845  -7.103 -17.575  0.00  0.00     0.042 C 
BRANCH   7   9
HETATM    9  O           1     -29.100  -8.076 -18.887  0.00  0.00    -0.393 OA
HETATM   10  H           1     -28.428  -7.499 -19.207  0.00  0.00     0.210 HD
ENDBRANCH   7   9
ENDBRANCH   6   7
BRANCH   6  11
HETATM   11  C           1     -28.403  -6.483 -15.659  0.00  0.00     0.199 C 
HETATM   12  O           1     -28.836  -5.473 -15.063  0.00  0.00    -0.646 OA
HETATM   13  O           1     -27.927  -7.438 -15.006  0.00  0.00    -0.646 OA
ENDBRANCH   6  11
ENDBRANCH   4   6
ENDBRANCH   1   2
BRANCH   1  14
HETATM   14  C           1     -25.503  -7.604 -20.662  0.00  0.00     0.044 C 
BRANCH  14  15
HETATM   15  C           1     -24.622  -7.076 -21.786  0.00  0.00     0.030 C 
BRANCH  15  16
HETATM   16  C           1     -23.727  -8.196 -22.301  0.00  0.00     0.248 C 
BRANCH  16  17
HETATM   17  N           1     -23.037  -8.856 -21.144  0.00  0.00    -0.079 N 
HETATM   18  H           1     -22.900  -8.160 -20.376  0.00  0.00     0.274 HD
HETATM   19  H           1     -22.108  -9.221 -21.454  0.00  0.00     0.274 HD
HETATM   20  H           1     -23.622  -9.650 -20.795  0.00  0.00     0.274 HD
ENDBRANCH  16  17
ENDBRANCH  15  16
ENDBRANCH  14  15
ENDBRANCH   1  14
BRANCH   1  21
HETATM   21  N           1     -24.573  -7.370 -18.388  0.00  0.00    -0.067 N 
HETATM   22  H           1     -25.191  -8.002 -17.828  0.00  0.00     0.275 HD
HETATM   23  H           1     -23.815  -7.932 -18.836  0.00  0.00     0.275 HD
HETATM   24  H           1     -24.150  -6.651 -17.758  0.00  0.00     0.257 HD
ENDBRANCH   1  21
TORSDOF 10
ENDMDL
MODEL 5
REMARK VINA RESULT:      -5.6     13.238     15.133
REMARK  10 active torsions:
REMARK  status: ('A' for Active; 'I' for Inactive)
REMARK    1  A    between atoms: C_4  and  O_12 
REMARK    2  A    between atoms: C_4  and  C_18 
REMARK    3  A    between atoms: C_5  and  C_20 
REMARK    4  A    between atoms: C_5  and  C_23 
REMARK    5  A    between atoms: C_5  and  N_15 
REMARK    6  A    between atoms: N_7  and  C_8 
REMARK    7  A    between atoms: C_8  and  C_9 
REMARK    8  A    between atoms: C_9  and  C_23 
REMARK    9  A    between atoms: C_17  and  C_18 
REMARK   10  A    between atoms: C_18  and  N_21 
REMARK       I    between atoms: C_20  and  N_21 
ROOT
HETATM    1  C           1     -24.168  -4.709  -9.850  0.00  0.00     0.274 C 
ENDROOT
BRANCH   1   2
HETATM    2  C           1     -23.043  -4.205  -8.980  0.00  0.00     0.249 C 
HETATM    3  O           1     -22.912  -3.019  -8.788  0.00  0.00    -0.271 OA
HETATM    4  N           1     -22.169  -5.091  -8.408  0.00  0.00    -0.343 N 
HETATM    5  H           1     -22.278  -6.084  -8.569  0.00  0.00     0.163 HD
BRANCH   4   6
HETATM    6  C           1     -21.088  -4.606  -7.573  0.00  0.00     0.214 C 
BRANCH   6   7
HETATM    7  C           1     -20.873  -5.569  -6.413  0.00  0.00     0.147 C 
HETATM    8  C           1     -22.220  -5.946  -5.810  0.00  0.00     0.042 C 
BRANCH   7   9
HETATM    9  O           1     -20.229  -6.725  -6.879  0.00  0.00    -0.393 OA
HETATM   10  H           1     -20.780  -7.455  -6.654  0.00  0.00     0.210 HD
ENDBRANCH   7   9
ENDBRANCH   6   7
BRANCH   6  11
HETATM   11  C           1     -19.824  -4.513  -8.390  0.00  0.00     0.199 C 
HETATM   12  O           1     -19.846  -4.785  -9.610  0.00  0.00    -0.646 OA
HETATM   13  O           1     -18.753  -4.161  -7.848  0.00  0.00    -0.646 OA
ENDBRANCH   6  11
ENDBRANCH   4   6
ENDBRANCH   1   2
BRANCH   1  14
HETATM   14  C           1     -23.686  -4.819 -11.291  0.00  0.00     0.044 C 
BRANCH  14  15
HETATM   15  C           1     -23.922  -3.497 -12.007  0.00  0.00     0.030 C 
BRANCH  15  16
HETATM   16  C           1     -22.656  -3.087 -12.751  0.00  0.00     0.248 C 
BRANCH  16  17
HETATM   17  N           1     -21.498  -3.897 -12.249  0.00  0.00    -0.079 N 
HETATM   18  H           1     -21.477  -4.818 -12.743  0.00  0.00     0.274 HD
HETATM   19  H           1     -21.601  -4.055 -11.221  0.00  0.00     0.274 HD
HETATM   20  H           1     -20.606  -3.382 -12.433  0.00  0.00     0.274 HD
ENDBRANCH  16  17
ENDBRANCH  15  16
ENDBRANCH  14  15
ENDBRANCH   1  14
BRANCH   1  21
HETATM   21  N           1     -25.321  -3.752  -9.780  0.00  0.00    -0.067 N 
HETATM   22  H           1     -26.216  -4.288  -9.713  0.00  0.00     0.275 HD
HETATM   23  H           1     -25.215  -3.142  -8.939  0.00  0.00     0.275 HD
HETATM   24  H           1     -25.334  -3.160 -10.642  0.00  0.00     0.257 HD
ENDBRANCH   1  21
TORSDOF 10
ENDMDL
MODEL 6
REMARK VINA RESULT:      -5.4     15.077     17.628
REMARK  10 active torsions:
REMARK  status: ('A' for Active; 'I' for Inactive)
REMARK    1  A    between atoms: C_4  and  O_12 
REMARK    2  A    between atoms: C_4  and  C_18 
REMARK    3  A    between atoms: C_5  and  C_20 
REMARK    4  A    between atoms: C_5  and  C_23 
REMARK    5  A    between atoms: C_5  and  N_15 
REMARK    6  A    between atoms: N_7  and  C_8 
REMARK    7  A    between atoms: C_8  and  C_9 
REMARK    8  A    between atoms: C_9  and  C_23 
REMARK    9  A    between atoms: C_17  and  C_18 
REMARK   10  A    between atoms: C_18  and  N_21 
REMARK       I    between atoms: C_20  and  N_21 
ROOT
HETATM    1  C           1     -20.505  -4.761  -6.440  0.00  0.00     0.274 C 
ENDROOT
BRANCH   1   2
HETATM    2  C           1     -21.348  -5.685  -5.595  0.00  0.00     0.249 C 
HETATM    3  O           1     -22.552  -5.663  -5.693  0.00  0.00    -0.271 OA
HETATM    4  N           1     -20.747  -6.546  -4.716  0.00  0.00    -0.343 N 
HETATM    5  H           1     -19.739  -6.563  -4.634  0.00  0.00     0.163 HD
BRANCH   4   6
HETATM    6  C           1     -21.557  -7.433  -3.904  0.00  0.00     0.214 C 
BRANCH   6   7
HETATM    7  C           1     -20.917  -8.815  -3.870  0.00  0.00     0.147 C 
HETATM    8  C           1     -21.168  -9.522  -5.195  0.00  0.00     0.042 C 
BRANCH   7   9
HETATM    9  O           1     -19.536  -8.684  -3.664  0.00  0.00    -0.393 OA
HETATM   10  H           1     -19.313  -9.246  -2.941  0.00  0.00     0.210 HD
ENDBRANCH   7   9
ENDBRANCH   6   7
BRANCH   6  11
HETATM   11  C           1     -21.648  -6.886  -2.501  0.00  0.00     0.199 C 
HETATM   12  O           1     -22.399  -5.918  -2.255  0.00  0.00    -0.646 OA
HETATM   13  O           1     -20.972  -7.402  -1.584  0.00  0.00    -0.646 OA
ENDBRANCH   6  11
ENDBRANCH   4   6
ENDBRANCH   1   2
BRANCH   1  14
HETATM   14  C           1     -21.403  -3.743  -7.131  0.00  0.00     0.044 C 
BRANCH  14  15
HETATM   15  C           1     -21.444  -4.032  -8.625  0.00  0.00     0.030 C 
BRANCH  15  16
HETATM   16  C           1     -22.880  -3.932  -9.125  0.00  0.00     0.248 C 
BRANCH  16  17
HETATM   17  N           1     -23.823  -4.087  -7.969  0.00  0.00    -0.079 N 
HETATM   18  H           1     -23.687  -3.296  -7.299  0.00  0.00     0.274 HD
HETATM   19  H           1     -23.634  -4.992  -7.483  0.00  0.00     0.274 HD
HETATM   20  H           1     -24.809  -4.081  -8.320  0.00  0.00     0.274 HD
ENDBRANCH  16  17
ENDBRANCH  15  16
ENDBRANCH  14  15
ENDBRANCH   1  14
BRANCH   1  21
HETATM   21  N           1     -19.771  -5.561  -7.475  0.00  0.00    -0.067 N 
HETATM   22  H           1     -19.089  -4.946  -7.974  0.00  0.00     0.275 HD
HETATM   23  H           1     -19.258  -6.343  -7.009  0.00  0.00     0.275 HD
HETATM   24  H           1     -20.454  -5.953  -8.162  0.00  0.00     0.257 HD
ENDBRANCH   1  21
TORSDOF 10
ENDMDL
MODEL 7
REMARK VINA RESULT:      -5.4     13.066     14.494
REMARK  10 active torsions:
REMARK  status: ('A' for Active; 'I' for Inactive)
REMARK    1  A    between atoms: C_4  and  O_12 
REMARK    2  A    between atoms: C_4  and  C_18 
REMARK    3  A    between atoms: C_5  and  C_20 
REMARK    4  A    between atoms: C_5  and  C_23 
REMARK    5  A    between atoms: C_5  and  N_15 
REMARK    6  A    between atoms: N_7  and  C_8 
REMARK    7  A    between atoms: C_8  and  C_9 
REMARK    8  A    between atoms: C_9  and  C_23 
REMARK    9  A    between atoms: C_17  and  C_18 
REMARK   10  A    between atoms: C_18  and  N_21 
REMARK       I    between atoms: C_20  and  N_21 
ROOT
HETATM    1  C           1     -22.070  -4.321  -6.955  0.00  0.00     0.274 C 
ENDROOT
BRANCH   1   2
HETATM    2  C           1     -21.733  -4.690  -8.378  0.00  0.00     0.249 C 
HETATM    3  O           1     -20.792  -5.413  -8.608  0.00  0.00    -0.271 OA
HETATM    4  N           1     -22.491  -4.204  -9.409  0.00  0.00    -0.343 N 
HETATM    5  H           1     -23.278  -3.598  -9.217  0.00  0.00     0.163 HD
BRANCH   4   6
HETATM    6  C           1     -22.166  -4.559 -10.777  0.00  0.00     0.214 C 
BRANCH   6   7
HETATM    7  C           1     -23.415  -4.443 -11.641  0.00  0.00     0.147 C 
HETATM    8  C           1     -24.389  -3.466 -10.996  0.00  0.00     0.042 C 
BRANCH   7   9
HETATM    9  O           1     -23.059  -3.978 -12.915  0.00  0.00    -0.393 OA
HETATM   10  H           1     -23.403  -4.595 -13.538  0.00  0.00     0.210 HD
ENDBRANCH   7   9
ENDBRANCH   6   7
BRANCH   6  11
HETATM   11  C           1     -21.104  -3.624 -11.300  0.00  0.00     0.199 C 
HETATM   12  O           1     -21.366  -2.415 -11.474  0.00  0.00    -0.646 OA
HETATM   13  O           1     -19.961  -4.060 -11.560  0.00  0.00    -0.646 OA
ENDBRANCH   6  11
ENDBRANCH   4   6
ENDBRANCH   1   2
BRANCH   1  14
HETATM   14  C           1     -21.238  -5.166  -5.999  0.00  0.00     0.044 C 
BRANCH  14  15
HETATM   15  C           1     -22.136  -6.182  -5.306  0.00  0.00     0.030 C 
BRANCH  15  16
HETATM   16  C           1     -21.495  -6.618  -3.994  0.00  0.00     0.248 C 
BRANCH  16  17
HETATM   17  N           1     -22.271  -6.048  -2.845  0.00  0.00    -0.079 N 
HETATM   18  H           1     -22.112  -6.632  -1.993  0.00  0.00     0.274 HD
HETATM   19  H           1     -23.290  -6.045  -3.079  0.00  0.00     0.274 HD
HETATM   20  H           1     -21.954  -5.069  -2.660  0.00  0.00     0.274 HD
ENDBRANCH  16  17
ENDBRANCH  15  16
ENDBRANCH  14  15
ENDBRANCH   1  14
BRANCH   1  21
HETATM   21  N           1     -23.528  -4.574  -6.705  0.00  0.00    -0.067 N 
HETATM   22  H           1     -24.046  -3.666  -6.713  0.00  0.00     0.275 HD
HETATM   23  H           1     -23.905  -5.197  -7.454  0.00  0.00     0.275 HD
HETATM   24  H           1     -23.647  -5.034  -5.774  0.00  0.00     0.257 HD
ENDBRANCH   1  21
TORSDOF 10
ENDMDL
MODEL 8
REMARK VINA RESULT:      -5.3     13.459     15.597
REMARK  10 active torsions:
REMARK  status: ('A' for Active; 'I' for Inactive)
REMARK    1  A    between atoms: C_4  and  O_12 
REMARK    2  A    between atoms: C_4  and  C_18 
REMARK    3  A    between atoms: C_5  and  C_20 
REMARK    4  A    between atoms: C_5  and  C_23 
REMARK    5  A    between atoms: C_5  and  N_15 
REMARK    6  A    between atoms: N_7  and  C_8 
REMARK    7  A    between atoms: C_8  and  C_9 
REMARK    8  A    between atoms: C_9  and  C_23 
REMARK    9  A    between atoms: C_17  and  C_18 
REMARK   10  A    between atoms: C_18  and  N_21 
REMARK       I    between atoms: C_20  and  N_21 
ROOT
HETATM    1  C           1     -23.413  -4.231  -9.231  0.00  0.00     0.274 C 
ENDROOT
BRANCH   1   2
HETATM    2  C           1     -22.458  -4.196  -8.064  0.00  0.00     0.249 C 
HETATM    3  O           1     -21.895  -3.167  -7.774  0.00  0.00    -0.271 OA
HETATM    4  N           1     -22.227  -5.331  -7.333  0.00  0.00    -0.343 N 
HETATM    5  H           1     -22.697  -6.193  -7.576  0.00  0.00     0.163 HD
BRANCH   4   6
HETATM    6  C           1     -21.309  -5.297  -6.212  0.00  0.00     0.214 C 
BRANCH   6   7
HETATM    7  C           1     -21.775  -6.278  -5.145  0.00  0.00     0.147 C 
HETATM    8  C           1     -21.118  -5.931  -3.815  0.00  0.00     0.042 C 
BRANCH   7   9
HETATM    9  O           1     -23.169  -6.195  -5.013  0.00  0.00    -0.393 OA
HETATM   10  H           1     -23.342  -5.805  -4.173  0.00  0.00     0.210 HD
ENDBRANCH   7   9
ENDBRANCH   6   7
BRANCH   6  11
HETATM   11  C           1     -19.928  -5.683  -6.681  0.00  0.00     0.199 C 
HETATM   12  O           1     -19.074  -4.799  -6.907  0.00  0.00    -0.646 OA
HETATM   13  O           1     -19.638  -6.889  -6.844  0.00  0.00    -0.646 OA
ENDBRANCH   6  11
ENDBRANCH   4   6
ENDBRANCH   1   2
BRANCH   1  14
HETATM   14  C           1     -22.668  -3.871 -10.510  0.00  0.00     0.044 C 
BRANCH  14  15
HETATM   15  C           1     -23.290  -4.612 -11.686  0.00  0.00     0.030 C 
BRANCH  15  16
HETATM   16  C           1     -23.988  -3.616 -12.603  0.00  0.00     0.248 C 
BRANCH  16  17
HETATM   17  N           1     -23.346  -2.268 -12.459  0.00  0.00    -0.079 N 
HETATM   18  H           1     -24.067  -1.566 -12.179  0.00  0.00     0.274 HD
HETATM   19  H           1     -22.920  -1.985 -13.371  0.00  0.00     0.274 HD
HETATM   20  H           1     -22.600  -2.313 -11.727  0.00  0.00     0.274 HD
ENDBRANCH  16  17
ENDBRANCH  15  16
ENDBRANCH  14  15
ENDBRANCH   1  14
BRANCH   1  21
HETATM   21  N           1     -24.518  -3.243  -9.002  0.00  0.00    -0.067 N 
HETATM   22  H           1     -25.441  -3.710  -9.155  0.00  0.00     0.275 HD
HETATM   23  H           1     -24.467  -2.885  -8.022  0.00  0.00     0.275 HD
HETATM   24  H           1     -24.417  -2.446  -9.670  0.00  0.00     0.257 HD
ENDBRANCH   1  21
TORSDOF 10
ENDMDL
MODEL 9
REMARK VINA RESULT:      -5.2      2.349      5.620
REMARK  10 active torsions:
REMARK  status: ('A' for Active; 'I' for Inactive)
REMARK    1  A    between atoms: C_4  and  O_12 
REMARK    2  A    between atoms: C_4  and  C_18 
REMARK    3  A    between atoms: C_5  and  C_20 
REMARK    4  A    between atoms: C_5  and  C_23 
REMARK    5  A    between atoms: C_5  and  N_15 
REMARK    6  A    between atoms: N_7  and  C_8 
REMARK    7  A    between atoms: C_8  and  C_9 
REMARK    8  A    between atoms: C_9  and  C_23 
REMARK    9  A    between atoms: C_17  and  C_18 
REMARK   10  A    between atoms: C_18  and  N_21 
REMARK       I    between atoms: C_20  and  N_21 
ROOT
HETATM    1  C           1     -35.501   0.728 -13.957  0.00  0.00     0.274 C 
ENDROOT
BRANCH   1   2
HETATM    2  C           1     -35.766  -0.632 -13.361  0.00  0.00     0.249 C 
HETATM    3  O           1     -36.900  -1.033 -13.250  0.00  0.00    -0.271 OA
HETATM    4  N           1     -34.720  -1.413 -12.945  0.00  0.00    -0.343 N 
HETATM    5  H           1     -33.771  -1.077 -13.038  0.00  0.00     0.163 HD
BRANCH   4   6
HETATM    6  C           1     -34.975  -2.720 -12.372  0.00  0.00     0.214 C 
BRANCH   6   7
HETATM    7  C           1     -33.719  -3.575 -12.482  0.00  0.00     0.147 C 
HETATM    8  C           1     -33.845  -4.781 -11.561  0.00  0.00     0.042 C 
BRANCH   7   9
HETATM    9  O           1     -33.566  -4.011 -13.806  0.00  0.00    -0.393 OA
HETATM   10  H           1     -33.189  -4.873 -13.768  0.00  0.00     0.210 HD
ENDBRANCH   7   9
ENDBRANCH   6   7
BRANCH   6  11
HETATM   11  C           1     -35.354  -2.567 -10.920  0.00  0.00     0.199 C 
HETATM   12  O           1     -36.385  -3.121 -10.482  0.00  0.00    -0.646 OA
HETATM   13  O           1     -34.637  -1.886 -10.155  0.00  0.00    -0.646 OA
ENDBRANCH   6  11
ENDBRANCH   4   6
ENDBRANCH   1   2
BRANCH   1  14
HETATM   14  C           1     -36.071   0.785 -15.369  0.00  0.00     0.044 C 
BRANCH  14  15
HETATM   15  C           1     -35.449  -0.319 -16.212  0.00  0.00     0.030 C 
BRANCH  15  16
HETATM   16  C           1     -36.551  -1.150 -16.857  0.00  0.00     0.248 C 
BRANCH  16  17
HETATM   17  N           1     -37.887  -0.665 -16.379  0.00  0.00    -0.079 N 
HETATM   18  H           1     -38.137  -1.151 -15.488  0.00  0.00     0.274 HD
HETATM   19  H           1     -38.612  -0.870 -17.103  0.00  0.00     0.274 HD
HETATM   20  H           1     -37.845   0.367 -16.213  0.00  0.00     0.274 HD
ENDBRANCH  16  17
ENDBRANCH  15  16
ENDBRANCH  14  15
ENDBRANCH   1  14
BRANCH   1  21
HETATM   21  N           1     -34.022   0.973 -14.005  0.00  0.00    -0.067 N 
HETATM   22  H           1     -33.688   1.284 -13.064  0.00  0.00     0.275 HD
HETATM   23  H           1     -33.532   0.091 -14.276  0.00  0.00     0.275 HD
HETATM   24  H           1     -33.815   1.718 -14.710  0.00  0.00     0.257 HD
ENDBRANCH   1  21
TORSDOF 10
ENDMDL
