MODEL 1
REMARK VINA RESULT:      -6.3      0.000      0.000
REMARK  9 active torsions:
REMARK  status: ('A' for Active; 'I' for Inactive)
REMARK    1  A    between atoms: N_1  and  C_6 
REMARK       I    between atoms: N_1  and  C_16 
REMARK    2  A    between atoms: C_3  and  C_16 
REMARK    3  A    between atoms: C_3  and  C_18 
REMARK    4  A    between atoms: C_3  and  N_14 
REMARK    5  A    between atoms: C_5  and  C_6 
REMARK    6  A    between atoms: C_6  and  C_15 
REMARK    7  A    between atoms: C_10  and  C_23 
REMARK    8  A    between atoms: C_10  and  C_15 
REMARK    9  A    between atoms: N_22  and  C_23 
ROOT
HETATM    1  N           1     -35.073  -1.472 -12.756  0.00  0.00    -0.345 N 
HETATM    2  H           1     -35.539  -1.819 -13.584  0.00  0.00     0.163 HD
HETATM    3  O           1     -33.811  -1.918 -10.967  0.00  0.00    -0.271 OA
HETATM    4  C           1     -34.367  -2.332 -11.957  0.00  0.00     0.249 C 
ENDROOT
BRANCH   1   5
HETATM    5  C           1     -35.151  -0.066 -12.415  0.00  0.00     0.185 C 
BRANCH   5   6
HETATM    6  C           1     -36.406   0.188 -11.615  0.00  0.00     0.196 C 
HETATM    7  O           1     -37.526  -0.009 -12.131  0.00  0.00    -0.646 OA
HETATM    8  O           1     -36.323   0.594 -10.435  0.00  0.00    -0.646 OA
ENDBRANCH   5   6
BRANCH   5   9
HETATM    9  C           1     -35.186   0.765 -13.692  0.00  0.00     0.038 C 
BRANCH   9  10
HETATM   10  C           1     -35.444  -0.146 -14.884  0.00  0.00     0.030 C 
BRANCH  10  11
HETATM   11  C           1     -36.745   0.262 -15.563  0.00  0.00     0.230 C 
BRANCH  11  12
HETATM   12  N           1     -36.630   1.675 -16.056  0.00  0.00    -0.079 N 
HETATM   13  H           1     -37.435   2.236 -15.694  0.00  0.00     0.274 HD
HETATM   14  H           1     -36.642   1.682 -17.100  0.00  0.00     0.274 HD
HETATM   15  H           1     -35.734   2.090 -15.715  0.00  0.00     0.274 HD
ENDBRANCH  11  12
ENDBRANCH  10  11
ENDBRANCH   9  10
ENDBRANCH   5   9
ENDBRANCH   1   5
BRANCH   4  16
HETATM   16  C           1     -34.285  -3.796 -12.312  0.00  0.00     0.278 C 
BRANCH  16  17
HETATM   17  C           1     -33.282  -4.486 -11.396  0.00  0.00     0.017 C 
HETATM   18  C           1     -31.988  -4.734 -12.157  0.00  0.00     0.012 C 
HETATM   19  C           1     -33.855  -5.815 -10.923  0.00  0.00     0.012 C 
ENDBRANCH  16  17
BRANCH  16  20
HETATM   20  N           1     -33.840  -3.940 -13.736  0.00  0.00    -0.066 N 
HETATM   21  H           1     -33.721  -2.993 -14.162  0.00  0.00     0.275 HD
HETATM   22  H           1     -32.929  -4.452 -13.767  0.00  0.00     0.275 HD
HETATM   23  H           1     -34.559  -4.475 -14.274  0.00  0.00     0.275 HD
ENDBRANCH  16  20
ENDBRANCH   4  16
TORSDOF 9
ENDMDL
MODEL 2
REMARK VINA RESULT:      -6.0     11.484     13.762
REMARK  9 active torsions:
REMARK  status: ('A' for Active; 'I' for Inactive)
REMARK    1  A    between atoms: N_1  and  C_6 
REMARK       I    between atoms: N_1  and  C_16 
REMARK    2  A    between atoms: C_3  and  C_16 
REMARK    3  A    between atoms: C_3  and  C_18 
REMARK    4  A    between atoms: C_3  and  N_14 
REMARK    5  A    between atoms: C_5  and  C_6 
REMARK    6  A    between atoms: C_6  and  C_15 
REMARK    7  A    between atoms: C_10  and  C_23 
REMARK    8  A    between atoms: C_10  and  C_15 
REMARK    9  A    between atoms: N_22  and  C_23 
ROOT
HETATM    1  N           1     -22.500  -4.688  -8.292  0.00  0.00    -0.345 N 
HETATM    2  H           1     -22.783  -5.656  -8.364  0.00  0.00     0.163 HD
HETATM    3  O           1     -21.489  -3.095  -7.096  0.00  0.00    -0.271 OA
HETATM    4  C           1     -21.827  -4.252  -7.183  0.00  0.00     0.249 C 
ENDROOT
BRANCH   1   5
HETATM    5  C           1     -22.807  -3.761  -9.364  0.00  0.00     0.185 C 
BRANCH   5   6
HETATM    6  C           1     -24.287  -3.808  -9.659  0.00  0.00     0.196 C 
HETATM    7  O           1     -24.843  -4.901  -9.893  0.00  0.00    -0.646 OA
HETATM    8  O           1     -24.954  -2.751  -9.670  0.00  0.00    -0.646 OA
ENDBRANCH   5   6
BRANCH   5   9
HETATM    9  C           1     -22.026  -4.153 -10.612  0.00  0.00     0.038 C 
BRANCH   9  10
HETATM   10  C           1     -21.827  -2.927 -11.493  0.00  0.00     0.030 C 
BRANCH  10  11
HETATM   11  C           1     -22.575  -3.118 -12.806  0.00  0.00     0.230 C 
BRANCH  11  12
HETATM   12  N           1     -23.880  -2.381 -12.750  0.00  0.00    -0.079 N 
HETATM   13  H           1     -24.298  -2.485 -11.798  0.00  0.00     0.274 HD
HETATM   14  H           1     -24.535  -2.777 -13.462  0.00  0.00     0.274 HD
HETATM   15  H           1     -23.717  -1.369 -12.951  0.00  0.00     0.274 HD
ENDBRANCH  11  12
ENDBRANCH  10  11
ENDBRANCH   9  10
ENDBRANCH   5   9
ENDBRANCH   1   5
BRANCH   4  16
HETATM   16  C           1     -21.507  -5.216  -6.067  0.00  0.00     0.278 C 
BRANCH  16  17
HETATM   17  C           1     -20.640  -6.347  -6.606  0.00  0.00     0.017 C 
HETATM   18  C           1     -20.261  -7.282  -5.466  0.00  0.00     0.012 C 
HETATM   19  C           1     -19.376  -5.767  -7.227  0.00  0.00     0.012 C 
ENDBRANCH  16  17
BRANCH  16  20
HETATM   20  N           1     -22.781  -5.783  -5.517  0.00  0.00    -0.066 N 
HETATM   21  H           1     -22.801  -6.816  -5.674  0.00  0.00     0.275 HD
HETATM   22  H           1     -22.836  -5.587  -4.491  0.00  0.00     0.275 HD
HETATM   23  H           1     -23.596  -5.343  -6.000  0.00  0.00     0.275 HD
ENDBRANCH  16  20
ENDBRANCH   4  16
TORSDOF 9
ENDMDL
MODEL 3
REMARK VINA RESULT:      -5.8      2.252      3.336
REMARK  9 active torsions:
REMARK  status: ('A' for Active; 'I' for Inactive)
REMARK    1  A    between atoms: N_1  and  C_6 
REMARK       I    between atoms: N_1  and  C_16 
REMARK    2  A    between atoms: C_3  and  C_16 
REMARK    3  A    between atoms: C_3  and  C_18 
REMARK    4  A    between atoms: C_3  and  N_14 
REMARK    5  A    between atoms: C_5  and  C_6 
REMARK    6  A    between atoms: C_6  and  C_15 
REMARK    7  A    between atoms: C_10  and  C_23 
REMARK    8  A    between atoms: C_10  and  C_15 
REMARK    9  A    between atoms: N_22  and  C_23 
ROOT
HETATM    1  N           1     -35.330  -1.199 -12.154  0.00  0.00    -0.345 N 
HETATM    2  H           1     -35.183  -0.799 -11.236  0.00  0.00     0.163 HD
HETATM    3  O           1     -34.755  -2.748 -13.657  0.00  0.00    -0.271 OA
HETATM    4  C           1     -34.580  -2.270 -12.561  0.00  0.00     0.249 C 
ENDROOT
BRANCH   1   5
HETATM    5  C           1     -36.333  -0.639 -13.037  0.00  0.00     0.185 C 
BRANCH   5   6
HETATM    6  C           1     -35.720   0.472 -13.853  0.00  0.00     0.196 C 
HETATM    7  O           1     -36.181   0.748 -14.981  0.00  0.00    -0.646 OA
HETATM    8  O           1     -34.750   1.118 -13.399  0.00  0.00    -0.646 OA
ENDBRANCH   5   6
BRANCH   5   9
HETATM    9  C           1     -37.486  -0.085 -12.208  0.00  0.00     0.038 C 
BRANCH   9  10
HETATM   10  C           1     -37.295  -0.472 -10.748  0.00  0.00     0.030 C 
BRANCH  10  11
HETATM   11  C           1     -37.667   0.706  -9.857  0.00  0.00     0.230 C 
BRANCH  11  12
HETATM   12  N           1     -36.432   1.240  -9.194  0.00  0.00    -0.079 N 
HETATM   13  H           1     -35.588   0.790  -9.614  0.00  0.00     0.274 HD
HETATM   14  H           1     -36.466   1.028  -8.171  0.00  0.00     0.274 HD
HETATM   15  H           1     -36.382   2.275  -9.334  0.00  0.00     0.274 HD
ENDBRANCH  11  12
ENDBRANCH  10  11
ENDBRANCH   9  10
ENDBRANCH   5   9
ENDBRANCH   1   5
BRANCH   4  16
HETATM   16  C           1     -33.536  -2.854 -11.642  0.00  0.00     0.278 C 
BRANCH  16  17
HETATM   17  C           1     -33.522  -4.370 -11.786  0.00  0.00     0.017 C 
HETATM   18  C           1     -34.040  -5.005 -10.502  0.00  0.00     0.012 C 
HETATM   19  C           1     -32.098  -4.844 -12.046  0.00  0.00     0.012 C 
ENDBRANCH  16  17
BRANCH  16  20
HETATM   20  N           1     -33.860  -2.490 -10.224  0.00  0.00    -0.066 N 
HETATM   21  H           1     -33.112  -2.852  -9.590  0.00  0.00     0.275 HD
HETATM   22  H           1     -33.916  -1.450 -10.135  0.00  0.00     0.275 HD
HETATM   23  H           1     -34.777  -2.913  -9.956  0.00  0.00     0.275 HD
ENDBRANCH  16  20
ENDBRANCH   4  16
TORSDOF 9
ENDMDL
MODEL 4
REMARK VINA RESULT:      -5.6      1.641      5.727
REMARK  9 active torsions:
REMARK  status: ('A' for Active; 'I' for Inactive)
REMARK    1  A    between atoms: N_1  and  C_6 
REMARK       I    between atoms: N_1  and  C_16 
REMARK    2  A    between atoms: C_3  and  C_16 
REMARK    3  A    between atoms: C_3  and  C_18 
REMARK    4  A    between atoms: C_3  and  N_14 
REMARK    5  A    between atoms: C_5  and  C_6 
REMARK    6  A    between atoms: C_6  and  C_15 
REMARK    7  A    between atoms: C_10  and  C_23 
REMARK    8  A    between atoms: C_10  and  C_15 
REMARK    9  A    between atoms: N_22  and  C_23 
ROOT
HETATM    1  N           1     -34.881  -1.591 -13.057  0.00  0.00    -0.345 N 
HETATM    2  H           1     -34.065  -1.455 -13.639  0.00  0.00     0.163 HD
HETATM    3  O           1     -37.002  -1.047 -12.615  0.00  0.00    -0.271 OA
HETATM    4  C           1     -36.027  -0.884 -13.309  0.00  0.00     0.249 C 
ENDROOT
BRANCH   1   5
HETATM    5  C           1     -34.839  -2.535 -11.958  0.00  0.00     0.185 C 
BRANCH   5   6
HETATM    6  C           1     -34.306  -1.846 -10.726  0.00  0.00     0.196 C 
HETATM    7  O           1     -35.094  -1.309  -9.919  0.00  0.00    -0.646 OA
HETATM    8  O           1     -33.074  -1.815 -10.512  0.00  0.00    -0.646 OA
ENDBRANCH   5   6
BRANCH   5   9
HETATM    9  C           1     -33.928  -3.700 -12.325  0.00  0.00     0.038 C 
BRANCH   9  10
HETATM   10  C           1     -34.648  -5.014 -12.052  0.00  0.00     0.030 C 
BRANCH  10  11
HETATM   11  C           1     -34.234  -5.546 -10.687  0.00  0.00     0.230 C 
BRANCH  11  12
HETATM   12  N           1     -34.049  -7.033 -10.764  0.00  0.00    -0.079 N 
HETATM   13  H           1     -33.029  -7.253 -10.825  0.00  0.00     0.274 HD
HETATM   14  H           1     -34.536  -7.401 -11.612  0.00  0.00     0.274 HD
HETATM   15  H           1     -34.452  -7.478  -9.910  0.00  0.00     0.274 HD
ENDBRANCH  11  12
ENDBRANCH  10  11
ENDBRANCH   9  10
ENDBRANCH   5   9
ENDBRANCH   1   5
BRANCH   4  16
HETATM   16  C           1     -36.071   0.098 -14.454  0.00  0.00     0.278 C 
BRANCH  16  17
HETATM   17  C           1     -37.033  -0.407 -15.521  0.00  0.00     0.017 C 
HETATM   18  C           1     -36.250  -0.791 -16.769  0.00  0.00     0.012 C 
HETATM   19  C           1     -38.031   0.690 -15.867  0.00  0.00     0.012 C 
ENDBRANCH  16  17
BRANCH  16  20
HETATM   20  N           1     -34.700   0.238 -15.044  0.00  0.00    -0.066 N 
HETATM   21  H           1     -34.012   0.447 -14.286  0.00  0.00     0.275 HD
HETATM   22  H           1     -34.432  -0.654 -15.519  0.00  0.00     0.275 HD
HETATM   23  H           1     -34.697   1.018 -15.740  0.00  0.00     0.275 HD
ENDBRANCH  16  20
ENDBRANCH   4  16
TORSDOF 9
ENDMDL
MODEL 5
REMARK VINA RESULT:      -5.6     12.539     15.746
REMARK  9 active torsions:
REMARK  status: ('A' for Active; 'I' for Inactive)
REMARK    1  A    between atoms: N_1  and  C_6 
REMARK       I    between atoms: N_1  and  C_16 
REMARK    2  A    between atoms: C_3  and  C_16 
REMARK    3  A    between atoms: C_3  and  C_18 
REMARK    4  A    between atoms: C_3  and  N_14 
REMARK    5  A    between atoms: C_5  and  C_6 
REMARK    6  A    between atoms: C_6  and  C_15 
REMARK    7  A    between atoms: C_10  and  C_23 
REMARK    8  A    between atoms: C_10  and  C_15 
REMARK    9  A    between atoms: N_22  and  C_23 
ROOT
HETATM    1  N           1     -22.141  -5.294  -7.572  0.00  0.00    -0.345 N 
HETATM    2  H           1     -22.586  -6.157  -7.856  0.00  0.00     0.163 HD
HETATM    3  O           1     -21.857  -3.106  -7.920  0.00  0.00    -0.271 OA
HETATM    4  C           1     -22.388  -4.136  -8.260  0.00  0.00     0.249 C 
ENDROOT
BRANCH   1   5
HETATM    5  C           1     -21.242  -5.283  -6.435  0.00  0.00     0.185 C 
BRANCH   5   6
HETATM    6  C           1     -19.852  -5.657  -6.889  0.00  0.00     0.196 C 
HETATM    7  O           1     -19.519  -6.859  -6.958  0.00  0.00    -0.646 OA
HETATM    8  O           1     -19.035  -4.762  -7.198  0.00  0.00    -0.646 OA
ENDBRANCH   5   6
BRANCH   5   9
HETATM    9  C           1     -21.725  -6.288  -5.396  0.00  0.00     0.038 C 
BRANCH   9  10
HETATM   10  C           1     -21.133  -5.939  -4.037  0.00  0.00     0.030 C 
BRANCH  10  11
HETATM   11  C           1     -21.846  -6.737  -2.953  0.00  0.00     0.230 C 
BRANCH  11  12
HETATM   12  N           1     -22.292  -5.810  -1.861  0.00  0.00    -0.079 N 
HETATM   13  H           1     -22.099  -6.248  -0.932  0.00  0.00     0.274 HD
HETATM   14  H           1     -23.317  -5.629  -1.954  0.00  0.00     0.274 HD
HETATM   15  H           1     -21.770  -4.907  -1.937  0.00  0.00     0.274 HD
ENDBRANCH  11  12
ENDBRANCH  10  11
ENDBRANCH   9  10
ENDBRANCH   5   9
ENDBRANCH   1   5
BRANCH   4  16
HETATM   16  C           1     -23.324  -4.148  -9.444  0.00  0.00     0.278 C 
BRANCH  16  17
HETATM   17  C           1     -22.665  -3.438 -10.619  0.00  0.00     0.017 C 
HETATM   18  C           1     -23.731  -3.033 -11.628  0.00  0.00     0.012 C 
HETATM   19  C           1     -21.667  -4.376 -11.285  0.00  0.00     0.012 C 
ENDBRANCH  16  17
BRANCH  16  20
HETATM   20  N           1     -24.595  -3.440  -9.082  0.00  0.00    -0.066 N 
HETATM   21  H           1     -24.554  -2.452  -9.421  0.00  0.00     0.275 HD
HETATM   22  H           1     -25.405  -3.927  -9.528  0.00  0.00     0.275 HD
HETATM   23  H           1     -24.715  -3.446  -8.043  0.00  0.00     0.275 HD
ENDBRANCH  16  20
ENDBRANCH   4  16
TORSDOF 9
ENDMDL
MODEL 6
REMARK VINA RESULT:      -5.2     13.558     16.072
REMARK  9 active torsions:
REMARK  status: ('A' for Active; 'I' for Inactive)
REMARK    1  A    between atoms: N_1  and  C_6 
REMARK       I    between atoms: N_1  and  C_16 
REMARK    2  A    between atoms: C_3  and  C_16 
REMARK    3  A    between atoms: C_3  and  C_18 
REMARK    4  A    between atoms: C_3  and  N_14 
REMARK    5  A    between atoms: C_5  and  C_6 
REMARK    6  A    between atoms: C_6  and  C_15 
REMARK    7  A    between atoms: C_10  and  C_23 
REMARK    8  A    between atoms: C_10  and  C_15 
REMARK    9  A    between atoms: N_22  and  C_23 
ROOT
HETATM    1  N           1     -21.658  -5.966  -5.655  0.00  0.00    -0.345 N 
HETATM    2  H           1     -22.159  -5.340  -5.037  0.00  0.00     0.163 HD
HETATM    3  O           1     -20.827  -8.008  -6.014  0.00  0.00    -0.271 OA
HETATM    4  C           1     -21.426  -7.261  -5.276  0.00  0.00     0.249 C 
ENDROOT
BRANCH   1   5
HETATM    5  C           1     -21.186  -5.491  -6.940  0.00  0.00     0.185 C 
BRANCH   5   6
HETATM    6  C           1     -19.876  -4.764  -6.757  0.00  0.00     0.196 C 
HETATM    7  O           1     -19.153  -4.519  -7.745  0.00  0.00    -0.646 OA
HETATM    8  O           1     -19.515  -4.407  -5.614  0.00  0.00    -0.646 OA
ENDBRANCH   5   6
BRANCH   5   9
HETATM    9  C           1     -22.216  -4.541  -7.539  0.00  0.00     0.038 C 
BRANCH   9  10
HETATM   10  C           1     -22.210  -4.675  -9.056  0.00  0.00     0.030 C 
BRANCH  10  11
HETATM   11  C           1     -23.237  -3.723  -9.654  0.00  0.00     0.230 C 
BRANCH  11  12
HETATM   12  N           1     -24.386  -3.564  -8.702  0.00  0.00    -0.079 N 
HETATM   13  H           1     -24.681  -2.562  -8.678  0.00  0.00     0.274 HD
HETATM   14  H           1     -24.090  -3.862  -7.745  0.00  0.00     0.274 HD
HETATM   15  H           1     -25.186  -4.156  -9.020  0.00  0.00     0.274 HD
ENDBRANCH  11  12
ENDBRANCH  10  11
ENDBRANCH   9  10
ENDBRANCH   5   9
ENDBRANCH   1   5
BRANCH   4  16
HETATM   16  C           1     -21.918  -7.756  -3.938  0.00  0.00     0.278 C 
BRANCH  16  17
HETATM   17  C           1     -21.190  -7.015  -2.824  0.00  0.00     0.017 C 
HETATM   18  C           1     -20.487  -8.020  -1.922  0.00  0.00     0.012 C 
HETATM   19  C           1     -22.194  -6.214  -2.005  0.00  0.00     0.012 C 
ENDBRANCH  16  17
BRANCH  16  20
HETATM   20  N           1     -21.648  -9.225  -3.819  0.00  0.00    -0.066 N 
HETATM   21  H           1     -20.698  -9.438  -4.200  0.00  0.00     0.275 HD
HETATM   22  H           1     -21.690  -9.508  -2.814  0.00  0.00     0.275 HD
HETATM   23  H           1     -22.366  -9.757  -4.361  0.00  0.00     0.275 HD
ENDBRANCH  16  20
ENDBRANCH   4  16
TORSDOF 9
ENDMDL
MODEL 7
REMARK VINA RESULT:      -5.2     17.040     18.632
REMARK  9 active torsions:
REMARK  status: ('A' for Active; 'I' for Inactive)
REMARK    1  A    between atoms: N_1  and  C_6 
REMARK       I    between atoms: N_1  and  C_16 
REMARK    2  A    between atoms: C_3  and  C_16 
REMARK    3  A    between atoms: C_3  and  C_18 
REMARK    4  A    between atoms: C_3  and  N_14 
REMARK    5  A    between atoms: C_5  and  C_6 
REMARK    6  A    between atoms: C_6  and  C_15 
REMARK    7  A    between atoms: C_10  and  C_23 
REMARK    8  A    between atoms: C_10  and  C_15 
REMARK    9  A    between atoms: N_22  and  C_23 
ROOT
HETATM    1  N           1     -20.725  -7.902  -3.250  0.00  0.00    -0.345 N 
HETATM    2  H           1     -20.304  -6.988  -3.145  0.00  0.00     0.163 HD
HETATM    3  O           1     -21.872  -9.576  -2.316  0.00  0.00    -0.271 OA
HETATM    4  C           1     -21.370  -8.484  -2.192  0.00  0.00     0.249 C 
ENDROOT
BRANCH   1   5
HETATM    5  C           1     -20.647  -8.595  -4.520  0.00  0.00     0.185 C 
BRANCH   5   6
HETATM    6  C           1     -19.204  -8.911  -4.832  0.00  0.00     0.196 C 
HETATM    7  O           1     -18.419  -9.219  -3.910  0.00  0.00    -0.646 OA
HETATM    8  O           1     -18.795  -8.864  -6.012  0.00  0.00    -0.646 OA
ENDBRANCH   5   6
BRANCH   5   9
HETATM    9  C           1     -21.222  -7.709  -5.618  0.00  0.00     0.038 C 
BRANCH   9  10
HETATM   10  C           1     -21.234  -6.261  -5.149  0.00  0.00     0.030 C 
BRANCH  10  11
HETATM   11  C           1     -20.543  -5.385  -6.185  0.00  0.00     0.230 C 
BRANCH  11  12
HETATM   12  N           1     -19.932  -6.252  -7.246  0.00  0.00    -0.079 N 
HETATM   13  H           1     -18.905  -6.343  -7.072  0.00  0.00     0.274 HD
HETATM   14  H           1     -20.089  -5.819  -8.184  0.00  0.00     0.274 HD
HETATM   15  H           1     -20.375  -7.198  -7.220  0.00  0.00     0.274 HD
ENDBRANCH  11  12
ENDBRANCH  10  11
ENDBRANCH   9  10
ENDBRANCH   5   9
ENDBRANCH   1   5
BRANCH   4  16
HETATM   16  C           1     -21.452  -7.762  -0.869  0.00  0.00     0.278 C 
BRANCH  16  17
HETATM   17  C           1     -22.011  -8.704   0.190  0.00  0.00     0.017 C 
HETATM   18  C           1     -23.340  -8.162   0.699  0.00  0.00     0.012 C 
HETATM   19  C           1     -21.029  -8.807   1.349  0.00  0.00     0.012 C 
ENDBRANCH  16  17
BRANCH  16  20
HETATM   20  N           1     -22.354  -6.572  -1.005  0.00  0.00    -0.066 N 
HETATM   21  H           1     -22.946  -6.679  -1.859  0.00  0.00     0.275 HD
HETATM   22  H           1     -22.970  -6.503  -0.163  0.00  0.00     0.275 HD
HETATM   23  H           1     -21.778  -5.705  -1.088  0.00  0.00     0.275 HD
ENDBRANCH  16  20
ENDBRANCH   4  16
TORSDOF 9
ENDMDL
MODEL 8
REMARK VINA RESULT:      -5.0     14.703     17.553
REMARK  9 active torsions:
REMARK  status: ('A' for Active; 'I' for Inactive)
REMARK    1  A    between atoms: N_1  and  C_6 
REMARK       I    between atoms: N_1  and  C_16 
REMARK    2  A    between atoms: C_3  and  C_16 
REMARK    3  A    between atoms: C_3  and  C_18 
REMARK    4  A    between atoms: C_3  and  N_14 
REMARK    5  A    between atoms: C_5  and  C_6 
REMARK    6  A    between atoms: C_6  and  C_15 
REMARK    7  A    between atoms: C_10  and  C_23 
REMARK    8  A    between atoms: C_10  and  C_15 
REMARK    9  A    between atoms: N_22  and  C_23 
ROOT
HETATM    1  N           1     -20.965  -6.399  -4.952  0.00  0.00    -0.345 N 
HETATM    2  H           1     -19.954  -6.351  -4.954  0.00  0.00     0.163 HD
HETATM    3  O           1     -22.898  -5.624  -5.757  0.00  0.00    -0.271 OA
HETATM    4  C           1     -21.691  -5.566  -5.760  0.00  0.00     0.249 C 
ENDROOT
BRANCH   1   5
HETATM    5  C           1     -21.643  -7.350  -4.094  0.00  0.00     0.185 C 
BRANCH   5   6
HETATM    6  C           1     -21.631  -6.842  -2.673  0.00  0.00     0.196 C 
HETATM    7  O           1     -20.854  -7.346  -1.836  0.00  0.00    -0.646 OA
HETATM    8  O           1     -22.400  -5.916  -2.335  0.00  0.00    -0.646 OA
ENDBRANCH   5   6
BRANCH   5   9
HETATM    9  C           1     -20.926  -8.694  -4.160  0.00  0.00     0.038 C 
BRANCH   9  10
HETATM   10  C           1     -19.634  -8.542  -4.950  0.00  0.00     0.030 C 
BRANCH  10  11
HETATM   11  C           1     -18.503  -9.248  -4.213  0.00  0.00     0.230 C 
BRANCH  11  12
HETATM   12  N           1     -18.828  -9.324  -2.751  0.00  0.00    -0.079 N 
HETATM   13  H           1     -19.642  -9.964  -2.608  0.00  0.00     0.274 HD
HETATM   14  H           1     -19.070  -8.371  -2.398  0.00  0.00     0.274 HD
HETATM   15  H           1     -18.001  -9.689  -2.229  0.00  0.00     0.274 HD
ENDBRANCH  11  12
ENDBRANCH  10  11
ENDBRANCH   9  10
ENDBRANCH   5   9
ENDBRANCH   1   5
BRANCH   4  16
HETATM   16  C           1     -20.985  -4.576  -6.653  0.00  0.00     0.278 C 
BRANCH  16  17
HETATM   17  C           1     -21.358  -4.845  -8.105  0.00  0.00     0.017 C 
HETATM   18  C           1     -20.107  -4.776  -8.971  0.00  0.00     0.012 C 
HETATM   19  C           1     -22.359  -3.798  -8.576  0.00  0.00     0.012 C 
ENDBRANCH  16  17
BRANCH  16  20
HETATM   20  N           1     -19.503  -4.720  -6.484  0.00  0.00    -0.066 N 
HETATM   21  H           1     -19.205  -4.250  -5.599  0.00  0.00     0.275 HD
HETATM   22  H           1     -19.254  -5.735  -6.438  0.00  0.00     0.275 HD
HETATM   23  H           1     -19.014  -4.277  -7.294  0.00  0.00     0.275 HD
ENDBRANCH  16  20
ENDBRANCH   4  16
TORSDOF 9
ENDMDL
MODEL 9
REMARK VINA RESULT:      -5.0     16.514     18.661
REMARK  9 active torsions:
REMARK  status: ('A' for Active; 'I' for Inactive)
REMARK    1  A    between atoms: N_1  and  C_6 
REMARK       I    between atoms: N_1  and  C_16 
REMARK    2  A    between atoms: C_3  and  C_16 
REMARK    3  A    between atoms: C_3  and  C_18 
REMARK    4  A    between atoms: C_3  and  N_14 
REMARK    5  A    between atoms: C_5  and  C_6 
REMARK    6  A    between atoms: C_6  and  C_15 
REMARK    7  A    between atoms: C_10  and  C_23 
REMARK    8  A    between atoms: C_10  and  C_15 
REMARK    9  A    between atoms: N_22  and  C_23 
ROOT
HETATM    1  N           1     -21.703  -9.218  -1.698  0.00  0.00    -0.345 N 
HETATM    2  H           1     -22.269  -9.523  -2.480  0.00  0.00     0.163 HD
HETATM    3  O           1     -20.743  -9.724   0.254  0.00  0.00    -0.271 OA
HETATM    4  C           1     -21.419 -10.087  -0.679  0.00  0.00     0.249 C 
ENDROOT
BRANCH   1   5
HETATM    5  C           1     -21.190  -7.863  -1.659  0.00  0.00     0.185 C 
BRANCH   5   6
HETATM    6  C           1     -22.299  -6.919  -1.261  0.00  0.00     0.196 C 
HETATM    7  O           1     -23.010  -7.174  -0.267  0.00  0.00    -0.646 OA
HETATM    8  O           1     -22.503  -5.881  -1.927  0.00  0.00    -0.646 OA
ENDBRANCH   5   6
BRANCH   5   9
HETATM    9  C           1     -20.665  -7.479  -3.037  0.00  0.00     0.038 C 
BRANCH   9  10
HETATM   10  C           1     -21.362  -8.317  -4.099  0.00  0.00     0.030 C 
BRANCH  10  11
HETATM   11  C           1     -21.672  -7.447  -5.310  0.00  0.00     0.230 C 
BRANCH  11  12
HETATM   12  N           1     -22.498  -6.270  -4.882  0.00  0.00    -0.079 N 
HETATM   13  H           1     -23.512  -6.508  -4.964  0.00  0.00     0.274 HD
HETATM   14  H           1     -22.283  -5.451  -5.495  0.00  0.00     0.274 HD
HETATM   15  H           1     -22.274  -6.031  -3.890  0.00  0.00     0.274 HD
ENDBRANCH  11  12
ENDBRANCH  10  11
ENDBRANCH   9  10
ENDBRANCH   5   9
ENDBRANCH   1   5
BRANCH   4  16
HETATM   16  C           1     -21.953 -11.499  -0.720  0.00  0.00     0.278 C 
BRANCH  16  17
HETATM   17  C           1     -23.444 -11.469  -1.031  0.00  0.00     0.017 C 
HETATM   18  C           1     -24.170 -10.675   0.047  0.00  0.00     0.012 C 
HETATM   19  C           1     -23.985 -12.893  -1.063  0.00  0.00     0.012 C 
ENDBRANCH  16  17
BRANCH  16  20
HETATM   20  N           1     -21.733 -12.154   0.610  0.00  0.00    -0.066 N 
HETATM   21  H           1     -22.486 -12.858   0.782  0.00  0.00     0.275 HD
HETATM   22  H           1     -20.803 -12.633   0.613  0.00  0.00     0.275 HD
HETATM   23  H           1     -21.754 -11.431   1.364  0.00  0.00     0.275 HD
ENDBRANCH  16  20
ENDBRANCH   4  16
TORSDOF 9
ENDMDL
