MODEL 1
REMARK VINA RESULT:      -5.4      0.000      0.000
REMARK  6 active torsions:
REMARK  status: ('A' for Active; 'I' for Inactive)
REMARK    1  A    between atoms: N_2  and  C_9 
REMARK       I    between atoms: N_2  and  C_15 
REMARK    2  A    between atoms: C_9  and  C_10 
REMARK    3  A    between atoms: C_13  and  C_14 
REMARK    4  A    between atoms: C_13  and  S_16 
REMARK    5  A    between atoms: C_14  and  C_15 
REMARK    6  A    between atoms: C_14  and  N_17 
ROOT
HETATM    1  O           1     -36.634  -1.187 -12.607  0.00  0.00    -0.271 OA
HETATM    2  N           1     -34.988  -0.819 -14.070  0.00  0.00    -0.345 N 
HETATM    3  H           1     -34.005  -0.906 -14.295  0.00  0.00     0.163 HD
HETATM    4  C           1     -35.462  -1.290 -12.875  0.00  0.00     0.249 C 
ENDROOT
BRANCH   4   5
HETATM    5  C           1     -34.517  -1.939 -11.893  0.00  0.00     0.283 C 
BRANCH   5   6
HETATM    6  C           1     -34.591  -3.453 -12.041  0.00  0.00     0.113 C 
BRANCH   6   7
HETATM    7  S           1     -32.928  -4.160 -11.881  0.00  0.00    -0.180 SA
HETATM    8  H           1     -32.755  -3.824 -10.590  0.00  0.00     0.101 HD
ENDBRANCH   6   7
ENDBRANCH   5   6
BRANCH   5   9
HETATM    9  N           1     -34.907  -1.554 -10.497  0.00  0.00    -0.066 N 
HETATM   10  H           1     -35.609  -0.780 -10.532  0.00  0.00     0.275 HD
HETATM   11  H           1     -35.324  -2.380 -10.012  0.00  0.00     0.275 HD
HETATM   12  H           1     -34.060  -1.234  -9.975  0.00  0.00     0.275 HD
ENDBRANCH   5   9
ENDBRANCH   4   5
BRANCH   2  13
HETATM   13  C           1     -35.895  -0.195 -15.014  0.00  0.00     0.181 C 
HETATM   14  C           1     -35.496   1.261 -15.214  0.00  0.00     0.043 C 
BRANCH  13  15
HETATM   15  C           1     -35.825  -0.923 -16.335  0.00  0.00     0.196 C 
HETATM   16  O           1     -34.841  -1.649 -16.596  0.00  0.00    -0.646 OA
HETATM   17  O           1     -36.750  -0.801 -17.166  0.00  0.00    -0.646 OA
ENDBRANCH  13  15
ENDBRANCH   2  13
TORSDOF 6
ENDMDL
MODEL 2
REMARK VINA RESULT:      -5.1      1.772      1.965
REMARK  6 active torsions:
REMARK  status: ('A' for Active; 'I' for Inactive)
REMARK    1  A    between atoms: N_2  and  C_9 
REMARK       I    between atoms: N_2  and  C_15 
REMARK    2  A    between atoms: C_9  and  C_10 
REMARK    3  A    between atoms: C_13  and  C_14 
REMARK    4  A    between atoms: C_13  and  S_16 
REMARK    5  A    between atoms: C_14  and  C_15 
REMARK    6  A    between atoms: C_14  and  N_17 
ROOT
HETATM    1  O           1     -35.129  -1.140 -11.313  0.00  0.00    -0.271 OA
HETATM    2  N           1     -35.068  -1.263 -13.541  0.00  0.00    -0.345 N 
HETATM    3  H           1     -34.810  -1.793 -14.364  0.00  0.00     0.163 HD
HETATM    4  C           1     -34.821  -1.772 -12.294  0.00  0.00     0.249 C 
ENDROOT
BRANCH   4   5
HETATM    5  C           1     -34.163  -3.122 -12.147  0.00  0.00     0.283 C 
BRANCH   5   6
HETATM    6  C           1     -35.129  -4.086 -11.472  0.00  0.00     0.113 C 
BRANCH   6   7
HETATM    7  S           1     -34.198  -5.450 -10.719  0.00  0.00    -0.180 SA
HETATM    8  H           1     -33.028  -4.790 -10.632  0.00  0.00     0.101 HD
ENDBRANCH   6   7
ENDBRANCH   5   6
BRANCH   5   9
HETATM    9  N           1     -32.926  -2.986 -11.311  0.00  0.00    -0.066 N 
HETATM   10  H           1     -32.881  -3.774 -10.625  0.00  0.00     0.275 HD
HETATM   11  H           1     -32.084  -3.016 -11.929  0.00  0.00     0.275 HD
HETATM   12  H           1     -32.951  -2.077 -10.798  0.00  0.00     0.275 HD
ENDBRANCH   5   9
ENDBRANCH   4   5
BRANCH   2  13
HETATM   13  C           1     -35.700   0.035 -13.683  0.00  0.00     0.181 C 
HETATM   14  C           1     -34.687   1.035 -14.223  0.00  0.00     0.043 C 
BRANCH  13  15
HETATM   15  C           1     -36.861  -0.074 -14.641  0.00  0.00     0.196 C 
HETATM   16  O           1     -37.869  -0.743 -14.327  0.00  0.00    -0.646 OA
HETATM   17  O           1     -36.814   0.504 -15.748  0.00  0.00    -0.646 OA
ENDBRANCH  13  15
ENDBRANCH   2  13
TORSDOF 6
ENDMDL
MODEL 3
REMARK VINA RESULT:      -5.1      2.989      4.805
REMARK  6 active torsions:
REMARK  status: ('A' for Active; 'I' for Inactive)
REMARK    1  A    between atoms: N_2  and  C_9 
REMARK       I    between atoms: N_2  and  C_15 
REMARK    2  A    between atoms: C_9  and  C_10 
REMARK    3  A    between atoms: C_13  and  C_14 
REMARK    4  A    between atoms: C_13  and  S_16 
REMARK    5  A    between atoms: C_14  and  C_15 
REMARK    6  A    between atoms: C_14  and  N_17 
ROOT
HETATM    1  O           1     -35.108  -1.925 -14.372  0.00  0.00    -0.271 OA
HETATM    2  N           1     -34.552  -2.078 -12.215  0.00  0.00    -0.345 N 
HETATM    3  H           1     -34.538  -1.646 -11.300  0.00  0.00     0.163 HD
HETATM    4  C           1     -35.092  -1.409 -13.280  0.00  0.00     0.249 C 
ENDROOT
BRANCH   4   5
HETATM    5  C           1     -35.665  -0.026 -13.090  0.00  0.00     0.283 C 
BRANCH   5   6
HETATM    6  C           1     -34.884   0.968 -13.939  0.00  0.00     0.113 C 
BRANCH   6   7
HETATM    7  S           1     -35.786   1.292 -15.479  0.00  0.00    -0.180 SA
HETATM    8  H           1     -34.705   1.614 -16.212  0.00  0.00     0.101 HD
ENDBRANCH   6   7
ENDBRANCH   5   6
BRANCH   5   9
HETATM    9  N           1     -35.564   0.362 -11.645  0.00  0.00    -0.066 N 
HETATM   10  H           1     -36.495   0.239 -11.186  0.00  0.00     0.275 HD
HETATM   11  H           1     -34.860  -0.247 -11.171  0.00  0.00     0.275 HD
HETATM   12  H           1     -35.268   1.361 -11.573  0.00  0.00     0.275 HD
ENDBRANCH   5   9
ENDBRANCH   4   5
BRANCH   2  13
HETATM   13  C           1     -34.001  -3.407 -12.397  0.00  0.00     0.181 C 
HETATM   14  C           1     -32.776  -3.574 -11.507  0.00  0.00     0.043 C 
BRANCH  13  15
HETATM   15  C           1     -35.039  -4.437 -12.024  0.00  0.00     0.196 C 
HETATM   16  O           1     -35.757  -4.264 -11.015  0.00  0.00    -0.646 OA
HETATM   17  O           1     -35.182  -5.464 -12.723  0.00  0.00    -0.646 OA
ENDBRANCH  13  15
ENDBRANCH   2  13
TORSDOF 6
ENDMDL
MODEL 4
REMARK VINA RESULT:      -5.0     14.304     15.664
REMARK  6 active torsions:
REMARK  status: ('A' for Active; 'I' for Inactive)
REMARK    1  A    between atoms: N_2  and  C_9 
REMARK       I    between atoms: N_2  and  C_15 
REMARK    2  A    between atoms: C_9  and  C_10 
REMARK    3  A    between atoms: C_13  and  C_14 
REMARK    4  A    between atoms: C_13  and  S_16 
REMARK    5  A    between atoms: C_14  and  C_15 
REMARK    6  A    between atoms: C_14  and  N_17 
ROOT
HETATM    1  O           1     -20.047  -4.774 -10.933  0.00  0.00    -0.271 OA
HETATM    2  N           1     -21.180  -4.216  -9.091  0.00  0.00    -0.345 N 
HETATM    3  H           1     -21.926  -3.674  -8.674  0.00  0.00     0.163 HD
HETATM    4  C           1     -20.938  -4.128 -10.436  0.00  0.00     0.249 C 
ENDROOT
BRANCH   4   5
HETATM    5  C           1     -21.784  -3.222 -11.296  0.00  0.00     0.283 C 
BRANCH   5   6
HETATM    6  C           1     -23.244  -3.345 -10.881  0.00  0.00     0.113 C 
BRANCH   6   7
HETATM    7  S           1     -24.308  -3.125 -12.334  0.00  0.00    -0.180 SA
HETATM    8  H           1     -24.563  -4.432 -12.522  0.00  0.00     0.101 HD
ENDBRANCH   6   7
ENDBRANCH   5   6
BRANCH   5   9
HETATM    9  N           1     -21.638  -3.620 -12.735  0.00  0.00    -0.066 N 
HETATM   10  H           1     -21.196  -4.566 -12.792  0.00  0.00     0.275 HD
HETATM   11  H           1     -22.581  -3.650 -13.185  0.00  0.00     0.275 HD
HETATM   12  H           1     -21.037  -2.924 -13.230  0.00  0.00     0.275 HD
ENDBRANCH   5   9
ENDBRANCH   4   5
BRANCH   2  13
HETATM   13  C           1     -20.366  -5.087  -8.264  0.00  0.00     0.181 C 
HETATM   14  C           1     -19.241  -4.279  -7.632  0.00  0.00     0.043 C 
BRANCH  13  15
HETATM   15  C           1     -21.223  -5.693  -7.179  0.00  0.00     0.196 C 
HETATM   16  O           1     -22.166  -5.035  -6.688  0.00  0.00    -0.646 OA
HETATM   17  O           1     -20.990  -6.851  -6.771  0.00  0.00    -0.646 OA
ENDBRANCH  13  15
ENDBRANCH   2  13
TORSDOF 6
ENDMDL
MODEL 5
REMARK VINA RESULT:      -5.0     13.731     14.737
REMARK  6 active torsions:
REMARK  status: ('A' for Active; 'I' for Inactive)
REMARK    1  A    between atoms: N_2  and  C_9 
REMARK       I    between atoms: N_2  and  C_15 
REMARK    2  A    between atoms: C_9  and  C_10 
REMARK    3  A    between atoms: C_13  and  C_14 
REMARK    4  A    between atoms: C_13  and  S_16 
REMARK    5  A    between atoms: C_14  and  C_15 
REMARK    6  A    between atoms: C_14  and  N_17 
ROOT
HETATM    1  O           1     -21.408  -3.401  -7.082  0.00  0.00    -0.271 OA
HETATM    2  N           1     -22.312  -4.727  -8.635  0.00  0.00    -0.345 N 
HETATM    3  H           1     -22.486  -5.668  -8.963  0.00  0.00     0.163 HD
HETATM    4  C           1     -21.615  -4.524  -7.474  0.00  0.00     0.249 C 
ENDROOT
BRANCH   4   5
HETATM    5  C           1     -21.107  -5.706  -6.684  0.00  0.00     0.283 C 
BRANCH   5   6
HETATM    6  C           1     -20.705  -5.248  -5.288  0.00  0.00     0.113 C 
BRANCH   6   7
HETATM    7  S           1     -21.424  -6.367  -4.053  0.00  0.00    -0.180 SA
HETATM    8  H           1     -20.360  -7.186  -3.969  0.00  0.00     0.101 HD
ENDBRANCH   6   7
ENDBRANCH   5   6
BRANCH   5   9
HETATM    9  N           1     -19.916  -6.295  -7.379  0.00  0.00    -0.066 N 
HETATM   10  H           1     -19.744  -7.261  -7.018  0.00  0.00     0.275 HD
HETATM   11  H           1     -20.099  -6.336  -8.407  0.00  0.00     0.275 HD
HETATM   12  H           1     -19.077  -5.700  -7.197  0.00  0.00     0.275 HD
ENDBRANCH   5   9
ENDBRANCH   4   5
BRANCH   2  13
HETATM   13  C           1     -22.800  -3.592  -9.394  0.00  0.00     0.181 C 
HETATM   14  C           1     -22.046  -3.502 -10.714  0.00  0.00     0.043 C 
BRANCH  13  15
HETATM   15  C           1     -24.275  -3.767  -9.667  0.00  0.00     0.196 C 
HETATM   16  O           1     -25.049  -2.791  -9.565  0.00  0.00    -0.646 OA
HETATM   17  O           1     -24.721  -4.888  -9.994  0.00  0.00    -0.646 OA
ENDBRANCH  13  15
ENDBRANCH   2  13
TORSDOF 6
ENDMDL
MODEL 6
REMARK VINA RESULT:      -4.6     13.454     14.472
REMARK  6 active torsions:
REMARK  status: ('A' for Active; 'I' for Inactive)
REMARK    1  A    between atoms: N_2  and  C_9 
REMARK       I    between atoms: N_2  and  C_15 
REMARK    2  A    between atoms: C_9  and  C_10 
REMARK    3  A    between atoms: C_13  and  C_14 
REMARK    4  A    between atoms: C_13  and  S_16 
REMARK    5  A    between atoms: C_14  and  C_15 
REMARK    6  A    between atoms: C_14  and  N_17 
ROOT
HETATM    1  O           1     -20.219  -4.817 -10.087  0.00  0.00    -0.271 OA
HETATM    2  N           1     -22.205  -3.890  -9.660  0.00  0.00    -0.345 N 
HETATM    3  H           1     -22.796  -3.388  -9.008  0.00  0.00     0.163 HD
HETATM    4  C           1     -20.923  -4.218  -9.310  0.00  0.00     0.249 C 
ENDROOT
BRANCH   4   5
HETATM    5  C           1     -20.391  -3.832  -7.951  0.00  0.00     0.283 C 
BRANCH   5   6
HETATM    6  C           1     -19.787  -5.057  -7.277  0.00  0.00     0.113 C 
BRANCH   6   7
HETATM    7  S           1     -20.480  -5.234  -5.609  0.00  0.00    -0.180 SA
HETATM    8  H           1     -19.385  -5.786  -5.058  0.00  0.00     0.101 HD
ENDBRANCH   6   7
ENDBRANCH   5   6
BRANCH   5   9
HETATM    9  N           1     -21.511  -3.299  -7.109  0.00  0.00    -0.066 N 
HETATM   10  H           1     -22.077  -2.622  -7.670  0.00  0.00     0.275 HD
HETATM   11  H           1     -22.121  -4.089  -6.801  0.00  0.00     0.275 HD
HETATM   12  H           1     -21.116  -2.814  -6.271  0.00  0.00     0.275 HD
ENDBRANCH   5   9
ENDBRANCH   4   5
BRANCH   2  13
HETATM   13  C           1     -22.718  -4.260 -10.965  0.00  0.00     0.181 C 
HETATM   14  C           1     -23.749  -5.370 -10.808  0.00  0.00     0.043 C 
BRANCH  13  15
HETATM   15  C           1     -23.365  -3.059 -11.611  0.00  0.00     0.196 C 
HETATM   16  O           1     -24.603  -2.904 -11.542  0.00  0.00    -0.646 OA
HETATM   17  O           1     -22.662  -2.219 -12.214  0.00  0.00    -0.646 OA
ENDBRANCH  13  15
ENDBRANCH   2  13
TORSDOF 6
ENDMDL
MODEL 7
REMARK VINA RESULT:      -4.3     13.746     15.075
REMARK  6 active torsions:
REMARK  status: ('A' for Active; 'I' for Inactive)
REMARK    1  A    between atoms: N_2  and  C_9 
REMARK       I    between atoms: N_2  and  C_15 
REMARK    2  A    between atoms: C_9  and  C_10 
REMARK    3  A    between atoms: C_13  and  C_14 
REMARK    4  A    between atoms: C_13  and  S_16 
REMARK    5  A    between atoms: C_14  and  C_15 
REMARK    6  A    between atoms: C_14  and  N_17 
ROOT
HETATM    1  O           1     -23.738  -4.111  -7.686  0.00  0.00    -0.271 OA
HETATM    2  N           1     -21.878  -4.775  -8.728  0.00  0.00    -0.345 N 
HETATM    3  H           1     -21.421  -5.012  -9.599  0.00  0.00     0.163 HD
HETATM    4  C           1     -23.193  -4.394  -8.726  0.00  0.00     0.249 C 
ENDROOT
BRANCH   4   5
HETATM    5  C           1     -23.961  -4.329 -10.023  0.00  0.00     0.283 C 
BRANCH   5   6
HETATM    6  C           1     -23.210  -3.448 -11.014  0.00  0.00     0.113 C 
BRANCH   6   7
HETATM    7  S           1     -24.275  -3.097 -12.440  0.00  0.00    -0.180 SA
HETATM    8  H           1     -23.624  -1.987 -12.833  0.00  0.00     0.101 HD
ENDBRANCH   6   7
ENDBRANCH   5   6
BRANCH   5   9
HETATM    9  N           1     -25.321  -3.749  -9.770  0.00  0.00    -0.066 N 
HETATM   10  H           1     -25.377  -2.794 -10.190  0.00  0.00     0.275 HD
HETATM   11  H           1     -26.046  -4.363 -10.205  0.00  0.00     0.275 HD
HETATM   12  H           1     -25.487  -3.688  -8.740  0.00  0.00     0.275 HD
ENDBRANCH   5   9
ENDBRANCH   4   5
BRANCH   2  13
HETATM   13  C           1     -21.140  -4.838  -7.481  0.00  0.00     0.181 C 
HETATM   14  C           1     -21.076  -6.282  -7.001  0.00  0.00     0.043 C 
BRANCH  13  15
HETATM   15  C           1     -19.739  -4.317  -7.699  0.00  0.00     0.196 C 
HETATM   16  O           1     -18.817  -4.664  -6.930  0.00  0.00    -0.646 OA
HETATM   17  O           1     -19.503  -3.540  -8.649  0.00  0.00    -0.646 OA
ENDBRANCH  13  15
ENDBRANCH   2  13
TORSDOF 6
ENDMDL
MODEL 8
REMARK VINA RESULT:      -4.3     16.200     17.394
REMARK  6 active torsions:
REMARK  status: ('A' for Active; 'I' for Inactive)
REMARK    1  A    between atoms: N_2  and  C_9 
REMARK       I    between atoms: N_2  and  C_15 
REMARK    2  A    between atoms: C_9  and  C_10 
REMARK    3  A    between atoms: C_13  and  C_14 
REMARK    4  A    between atoms: C_13  and  S_16 
REMARK    5  A    between atoms: C_14  and  C_15 
REMARK    6  A    between atoms: C_14  and  N_17 
ROOT
HETATM    1  O           1     -22.008  -7.558  -4.768  0.00  0.00    -0.271 OA
HETATM    2  N           1     -21.278  -5.494  -5.208  0.00  0.00    -0.345 N 
HETATM    3  H           1     -20.884  -4.630  -4.857  0.00  0.00     0.163 HD
HETATM    4  C           1     -21.538  -6.527  -4.349  0.00  0.00     0.249 C 
ENDROOT
BRANCH   4   5
HETATM    5  C           1     -21.238  -6.378  -2.877  0.00  0.00     0.283 C 
BRANCH   5   6
HETATM    6  C           1     -20.871  -7.736  -2.293  0.00  0.00     0.113 C 
BRANCH   6   7
HETATM    7  S           1     -21.902  -8.068  -0.837  0.00  0.00    -0.180 SA
HETATM    8  H           1     -22.864  -8.740  -1.495  0.00  0.00     0.101 HD
ENDBRANCH   6   7
ENDBRANCH   5   6
BRANCH   5   9
HETATM    9  N           1     -22.449  -5.841  -2.173  0.00  0.00    -0.066 N 
HETATM   10  H           1     -22.799  -6.552  -1.491  0.00  0.00     0.275 HD
HETATM   11  H           1     -22.194  -4.966  -1.662  0.00  0.00     0.275 HD
HETATM   12  H           1     -23.195  -5.632  -2.874  0.00  0.00     0.275 HD
ENDBRANCH   5   9
ENDBRANCH   4   5
BRANCH   2  13
HETATM   13  C           1     -21.566  -5.637  -6.622  0.00  0.00     0.181 C 
HETATM   14  C           1     -22.302  -4.400  -7.118  0.00  0.00     0.043 C 
BRANCH  13  15
HETATM   15  C           1     -20.273  -5.793  -7.385  0.00  0.00     0.196 C 
HETATM   16  O           1     -19.477  -6.708  -7.084  0.00  0.00    -0.646 OA
HETATM   17  O           1     -19.998  -5.007  -8.318  0.00  0.00    -0.646 OA
ENDBRANCH  13  15
ENDBRANCH   2  13
TORSDOF 6
ENDMDL
MODEL 9
REMARK VINA RESULT:      -4.2     15.657     17.160
REMARK  6 active torsions:
REMARK  status: ('A' for Active; 'I' for Inactive)
REMARK    1  A    between atoms: N_2  and  C_9 
REMARK       I    between atoms: N_2  and  C_15 
REMARK    2  A    between atoms: C_9  and  C_10 
REMARK    3  A    between atoms: C_13  and  C_14 
REMARK    4  A    between atoms: C_13  and  S_16 
REMARK    5  A    between atoms: C_14  and  C_15 
REMARK    6  A    between atoms: C_14  and  N_17 
ROOT
HETATM    1  O           1     -19.676  -4.812  -5.849  0.00  0.00    -0.271 OA
HETATM    2  N           1     -21.689  -5.658  -5.381  0.00  0.00    -0.345 N 
HETATM    3  H           1     -22.682  -5.664  -5.573  0.00  0.00     0.163 HD
HETATM    4  C           1     -20.861  -4.819  -6.079  0.00  0.00     0.249 C 
ENDROOT
BRANCH   4   5
HETATM    5  C           1     -21.432  -3.904  -7.134  0.00  0.00     0.283 C 
BRANCH   5   6
HETATM    6  C           1     -22.842  -4.358  -7.491  0.00  0.00     0.113 C 
BRANCH   6   7
HETATM    7  S           1     -23.223  -3.868  -9.196  0.00  0.00    -0.180 SA
HETATM    8  H           1     -21.987  -4.081  -9.684  0.00  0.00     0.101 HD
ENDBRANCH   6   7
ENDBRANCH   5   6
BRANCH   5   9
HETATM    9  N           1     -20.566  -3.954  -8.358  0.00  0.00    -0.066 N 
HETATM   10  H           1     -19.762  -3.296  -8.243  0.00  0.00     0.275 HD
HETATM   11  H           1     -20.205  -4.925  -8.489  0.00  0.00     0.275 HD
HETATM   12  H           1     -21.128  -3.674  -9.194  0.00  0.00     0.275 HD
ENDBRANCH   5   9
ENDBRANCH   4   5
BRANCH   2  13
HETATM   13  C           1     -21.141  -6.537  -4.365  0.00  0.00     0.181 C 
HETATM   14  C           1     -21.828  -6.264  -3.034  0.00  0.00     0.043 C 
BRANCH  13  15
HETATM   15  C           1     -21.373  -7.974  -4.767  0.00  0.00     0.196 C 
HETATM   16  O           1     -21.208  -8.324  -5.955  0.00  0.00    -0.646 OA
HETATM   17  O           1     -21.730  -8.812  -3.912  0.00  0.00    -0.646 OA
ENDBRANCH  13  15
ENDBRANCH   2  13
TORSDOF 6
ENDMDL
