MODEL 1
REMARK VINA RESULT:      -7.3      0.000      0.000
REMARK  9 active torsions:
REMARK  status: ('A' for Active; 'I' for Inactive)
REMARK       I    between atoms: N_1  and  C_15 
REMARK       I    between atoms: N_2  and  C_15 
REMARK    1  A    between atoms: N_2  and  C_21 
REMARK       I    between atoms: C_5  and  N_20 
REMARK    2  A    between atoms: C_5  and  C_14 
REMARK    3  A    between atoms: C_9  and  C_24 
REMARK    4  A    between atoms: C_9  and  C_19 
REMARK    5  A    between atoms: C_9  and  N_20 
REMARK    6  A    between atoms: C_10  and  C_14 
REMARK    7  A    between atoms: C_14  and  N_26 
REMARK    8  A    between atoms: C_21  and  C_23 
REMARK    9  A    between atoms: C_23  and  C_24 
ROOT
HETATM    1  C           1     -22.824  -3.631  -9.479  0.00  0.00     0.185 C 
ENDROOT
BRANCH   1   2
HETATM    2  C           1     -22.100  -3.980 -10.772  0.00  0.00     0.038 C 
BRANCH   2   3
HETATM    3  C           1     -22.194  -2.809 -11.741  0.00  0.00     0.023 C 
BRANCH   3   4
HETATM    4  C           1     -23.074  -3.195 -12.923  0.00  0.00     0.138 C 
BRANCH   4   5
HETATM    5  N           1     -23.796  -2.009 -13.406  0.00  0.00    -0.227 N 
HETATM    6  C           1     -23.611  -1.594 -14.588  0.00  0.00     0.665 C 
HETATM    7  N           1     -22.804  -2.200 -15.353  0.00  0.00    -0.235 N 
HETATM    8  N           1     -24.249  -0.545 -15.015  0.00  0.00    -0.235 N 
HETATM    9  H           1     -22.289  -3.047 -15.008  0.00  0.00     0.174 HD
HETATM   10  H           1     -22.651  -1.855 -16.333  0.00  0.00     0.174 HD
HETATM   11  H           1     -24.096  -0.202 -15.990  0.00  0.00     0.174 HD
HETATM   12  H           1     -24.915  -0.045 -14.383  0.00  0.00     0.174 HD
HETATM   13  H           1     -24.465  -1.507 -12.772  0.00  0.00     0.177 HD
ENDBRANCH   4   5
ENDBRANCH   3   4
ENDBRANCH   2   3
ENDBRANCH   1   2
BRANCH   1  14
HETATM   14  C           1     -24.313  -3.743  -9.689  0.00  0.00     0.196 C 
HETATM   15  O           1     -24.819  -4.839 -10.016  0.00  0.00    -0.646 OA
HETATM   16  O           1     -25.044  -2.740  -9.536  0.00  0.00    -0.646 OA
ENDBRANCH   1  14
BRANCH   1  17
HETATM   17  N           1     -22.414  -4.548  -8.434  0.00  0.00    -0.345 N 
HETATM   18  C           1     -21.813  -4.070  -7.300  0.00  0.00     0.249 C 
HETATM   19  O           1     -21.625  -2.884  -7.170  0.00  0.00    -0.271 OA
HETATM   20  H           1     -22.570  -5.542  -8.542  0.00  0.00     0.163 HD
BRANCH  18  21
HETATM   21  C           1     -21.386  -5.024  -6.212  0.00  0.00     0.278 C 
BRANCH  21  22
HETATM   22  C           1     -20.380  -6.019  -6.775  0.00  0.00     0.017 C 
HETATM   23  C           1     -19.107  -5.285  -7.176  0.00  0.00     0.012 C 
HETATM   24  C           1     -20.051  -7.062  -5.714  0.00  0.00     0.012 C 
ENDBRANCH  21  22
BRANCH  21  25
HETATM   25  N           1     -22.586  -5.764  -5.697  0.00  0.00    -0.066 N 
HETATM   26  H           1     -23.411  -5.553  -6.303  0.00  0.00     0.275 HD
HETATM   27  H           1     -22.395  -6.792  -5.712  0.00  0.00     0.275 HD
HETATM   28  H           1     -22.787  -5.462  -4.718  0.00  0.00     0.275 HD
ENDBRANCH  21  25
ENDBRANCH  18  21
ENDBRANCH   1  17
TORSDOF 9
ENDMDL
MODEL 2
REMARK VINA RESULT:      -6.4      3.118      4.801
REMARK  9 active torsions:
REMARK  status: ('A' for Active; 'I' for Inactive)
REMARK       I    between atoms: N_1  and  C_15 
REMARK       I    between atoms: N_2  and  C_15 
REMARK    1  A    between atoms: N_2  and  C_21 
REMARK       I    between atoms: C_5  and  N_20 
REMARK    2  A    between atoms: C_5  and  C_14 
REMARK    3  A    between atoms: C_9  and  C_24 
REMARK    4  A    between atoms: C_9  and  C_19 
REMARK    5  A    between atoms: C_9  and  N_20 
REMARK    6  A    between atoms: C_10  and  C_14 
REMARK    7  A    between atoms: C_14  and  N_26 
REMARK    8  A    between atoms: C_21  and  C_23 
REMARK    9  A    between atoms: C_23  and  C_24 
ROOT
HETATM    1  C           1     -21.355  -5.513  -6.683  0.00  0.00     0.185 C 
ENDROOT
BRANCH   1   2
HETATM    2  C           1     -21.929  -4.176  -7.134  0.00  0.00     0.038 C 
BRANCH   2   3
HETATM    3  C           1     -23.269  -4.403  -7.821  0.00  0.00     0.023 C 
BRANCH   3   4
HETATM    4  C           1     -23.233  -3.799  -9.219  0.00  0.00     0.138 C 
BRANCH   4   5
HETATM    5  N           1     -21.841  -3.718  -9.684  0.00  0.00    -0.227 N 
HETATM    6  C           1     -21.545  -4.075 -10.861  0.00  0.00     0.665 C 
HETATM    7  N           1     -22.448  -4.503 -11.639  0.00  0.00    -0.235 N 
HETATM    8  N           1     -20.313  -4.003 -11.272  0.00  0.00    -0.235 N 
HETATM    9  H           1     -23.442  -4.561 -11.308  0.00  0.00     0.174 HD
HETATM   10  H           1     -22.202  -4.799 -12.616  0.00  0.00     0.174 HD
HETATM   11  H           1     -20.069  -4.299 -12.244  0.00  0.00     0.174 HD
HETATM   12  H           1     -19.569  -3.650 -10.630  0.00  0.00     0.174 HD
HETATM   13  H           1     -21.092  -3.363  -9.039  0.00  0.00     0.177 HD
ENDBRANCH   4   5
ENDBRANCH   3   4
ENDBRANCH   2   3
ENDBRANCH   1   2
BRANCH   1  14
HETATM   14  C           1     -20.036  -5.754  -7.374  0.00  0.00     0.196 C 
HETATM   15  O           1     -19.583  -4.904  -8.172  0.00  0.00    -0.646 OA
HETATM   16  O           1     -19.394  -6.802  -7.148  0.00  0.00    -0.646 OA
ENDBRANCH   1  14
BRANCH   1  17
HETATM   17  N           1     -21.152  -5.490  -5.248  0.00  0.00    -0.345 N 
HETATM   18  C           1     -21.572  -6.544  -4.481  0.00  0.00     0.249 C 
HETATM   19  O           1     -22.111  -7.492  -5.000  0.00  0.00    -0.271 OA
HETATM   20  H           1     -20.700  -4.696  -4.813  0.00  0.00     0.163 HD
BRANCH  18  21
HETATM   21  C           1     -21.360  -6.521  -2.987  0.00  0.00     0.278 C 
BRANCH  21  22
HETATM   22  C           1     -21.332  -7.948  -2.456  0.00  0.00     0.017 C 
HETATM   23  C           1     -19.891  -8.438  -2.389  0.00  0.00     0.012 C 
HETATM   24  C           1     -21.944  -7.982  -1.061  0.00  0.00     0.012 C 
ENDBRANCH  21  22
BRANCH  21  25
HETATM   25  N           1     -22.481  -5.767  -2.335  0.00  0.00    -0.066 N 
HETATM   26  H           1     -22.178  -4.785  -2.149  0.00  0.00     0.275 HD
HETATM   27  H           1     -23.314  -5.762  -2.967  0.00  0.00     0.275 HD
HETATM   28  H           1     -22.733  -6.230  -1.432  0.00  0.00     0.275 HD
ENDBRANCH  21  25
ENDBRANCH  18  21
ENDBRANCH   1  17
TORSDOF 9
ENDMDL
MODEL 3
REMARK VINA RESULT:      -6.3      2.605      4.251
REMARK  9 active torsions:
REMARK  status: ('A' for Active; 'I' for Inactive)
REMARK       I    between atoms: N_1  and  C_15 
REMARK       I    between atoms: N_2  and  C_15 
REMARK    1  A    between atoms: N_2  and  C_21 
REMARK       I    between atoms: C_5  and  N_20 
REMARK    2  A    between atoms: C_5  and  C_14 
REMARK    3  A    between atoms: C_9  and  C_24 
REMARK    4  A    between atoms: C_9  and  C_19 
REMARK    5  A    between atoms: C_9  and  N_20 
REMARK    6  A    between atoms: C_10  and  C_14 
REMARK    7  A    between atoms: C_14  and  N_26 
REMARK    8  A    between atoms: C_21  and  C_23 
REMARK    9  A    between atoms: C_23  and  C_24 
ROOT
HETATM    1  C           1     -21.365  -5.358  -7.031  0.00  0.00     0.185 C 
ENDROOT
BRANCH   1   2
HETATM    2  C           1     -22.394  -4.353  -7.532  0.00  0.00     0.038 C 
BRANCH   2   3
HETATM    3  C           1     -22.787  -4.697  -8.963  0.00  0.00     0.023 C 
BRANCH   3   4
HETATM    4  C           1     -22.772  -3.432  -9.813  0.00  0.00     0.138 C 
BRANCH   4   5
HETATM    5  N           1     -22.125  -3.715 -11.102  0.00  0.00    -0.227 N 
HETATM    6  C           1     -22.596  -3.223 -12.168  0.00  0.00     0.665 C 
HETATM    7  N           1     -23.626  -2.486 -12.125  0.00  0.00    -0.235 N 
HETATM    8  N           1     -22.025  -3.473 -13.309  0.00  0.00    -0.235 N 
HETATM    9  H           1     -24.088  -2.284 -11.204  0.00  0.00     0.174 HD
HETATM   10  H           1     -24.017  -2.077 -13.009  0.00  0.00     0.174 HD
HETATM   11  H           1     -22.414  -3.066 -14.189  0.00  0.00     0.174 HD
HETATM   12  H           1     -21.176  -4.081 -13.345  0.00  0.00     0.174 HD
HETATM   13  H           1     -21.272  -4.326 -11.139  0.00  0.00     0.177 HD
ENDBRANCH   4   5
ENDBRANCH   3   4
ENDBRANCH   2   3
ENDBRANCH   1   2
BRANCH   1  14
HETATM   14  C           1     -20.025  -4.679  -6.890  0.00  0.00     0.196 C 
HETATM   15  O           1     -19.414  -4.284  -7.907  0.00  0.00    -0.646 OA
HETATM   16  O           1     -19.526  -4.510  -5.757  0.00  0.00    -0.646 OA
ENDBRANCH   1  14
BRANCH   1  17
HETATM   17  N           1     -21.783  -5.875  -5.743  0.00  0.00    -0.345 N 
HETATM   18  C           1     -21.526  -7.178  -5.413  0.00  0.00     0.249 C 
HETATM   19  O           1     -20.951  -7.898  -6.194  0.00  0.00    -0.271 OA
HETATM   20  H           1     -22.265  -5.272  -5.088  0.00  0.00     0.163 HD
BRANCH  18  21
HETATM   21  C           1     -21.961  -7.716  -4.072  0.00  0.00     0.278 C 
BRANCH  21  22
HETATM   22  C           1     -21.183  -7.015  -2.966  0.00  0.00     0.017 C 
HETATM   23  C           1     -22.146  -6.223  -2.090  0.00  0.00     0.012 C 
HETATM   24  C           1     -20.461  -8.053  -2.117  0.00  0.00     0.012 C 
ENDBRANCH  21  22
BRANCH  21  25
HETATM   25  N           1     -21.691  -9.191  -4.014  0.00  0.00    -0.066 N 
HETATM   26  H           1     -22.504  -9.676  -3.573  0.00  0.00     0.275 HD
HETATM   27  H           1     -21.547  -9.559  -4.982  0.00  0.00     0.275 HD
HETATM   28  H           1     -20.831  -9.365  -3.445  0.00  0.00     0.275 HD
ENDBRANCH  21  25
ENDBRANCH  18  21
ENDBRANCH   1  17
TORSDOF 9
ENDMDL
MODEL 4
REMARK VINA RESULT:      -6.2      2.973      8.383
REMARK  9 active torsions:
REMARK  status: ('A' for Active; 'I' for Inactive)
REMARK       I    between atoms: N_1  and  C_15 
REMARK       I    between atoms: N_2  and  C_15 
REMARK    1  A    between atoms: N_2  and  C_21 
REMARK       I    between atoms: C_5  and  N_20 
REMARK    2  A    between atoms: C_5  and  C_14 
REMARK    3  A    between atoms: C_9  and  C_24 
REMARK    4  A    between atoms: C_9  and  C_19 
REMARK    5  A    between atoms: C_9  and  N_20 
REMARK    6  A    between atoms: C_10  and  C_14 
REMARK    7  A    between atoms: C_14  and  N_26 
REMARK    8  A    between atoms: C_21  and  C_23 
REMARK    9  A    between atoms: C_23  and  C_24 
ROOT
HETATM    1  C           1     -21.054  -5.587  -6.614  0.00  0.00     0.185 C 
ENDROOT
BRANCH   1   2
HETATM    2  C           1     -21.423  -6.816  -5.794  0.00  0.00     0.038 C 
BRANCH   2   3
HETATM    3  C           1     -22.316  -6.404  -4.632  0.00  0.00     0.023 C 
BRANCH   3   4
HETATM    4  C           1     -21.459  -6.134  -3.401  0.00  0.00     0.138 C 
BRANCH   4   5
HETATM    5  N           1     -22.286  -6.249  -2.192  0.00  0.00    -0.227 N 
HETATM    6  C           1     -21.987  -7.095  -1.299  0.00  0.00     0.665 C 
HETATM    7  N           1     -20.976  -7.842  -1.447  0.00  0.00    -0.235 N 
HETATM    8  N           1     -22.719  -7.197  -0.229  0.00  0.00    -0.235 N 
HETATM    9  H           1     -20.385  -7.760  -2.311  0.00  0.00     0.174 HD
HETATM   10  H           1     -20.728  -8.544  -0.706  0.00  0.00     0.174 HD
HETATM   11  H           1     -22.472  -7.895   0.508  0.00  0.00     0.174 HD
HETATM   12  H           1     -23.553  -6.580  -0.106  0.00  0.00     0.174 HD
HETATM   13  H           1     -23.125  -5.630  -2.068  0.00  0.00     0.177 HD
ENDBRANCH   4   5
ENDBRANCH   3   4
ENDBRANCH   2   3
ENDBRANCH   1   2
BRANCH   1  14
HETATM   14  C           1     -19.623  -5.700  -7.076  0.00  0.00     0.196 C 
HETATM   15  O           1     -19.123  -6.826  -7.294  0.00  0.00    -0.646 OA
HETATM   16  O           1     -18.935  -4.670  -7.243  0.00  0.00    -0.646 OA
ENDBRANCH   1  14
BRANCH   1  17
HETATM   17  N           1     -21.928  -5.495  -7.766  0.00  0.00    -0.345 N 
HETATM   18  C           1     -22.319  -4.269  -8.233  0.00  0.00     0.249 C 
HETATM   19  O           1     -21.936  -3.263  -7.685  0.00  0.00    -0.271 OA
HETATM   20  H           1     -22.250  -6.337  -8.226  0.00  0.00     0.163 HD
BRANCH  18  21
HETATM   21  C           1     -23.229  -4.174  -9.433  0.00  0.00     0.278 C 
BRANCH  21  22
HETATM   22  C           1     -22.521  -3.417 -10.549  0.00  0.00     0.017 C 
HETATM   23  C           1     -21.452  -4.308 -11.168  0.00  0.00     0.012 C 
HETATM   24  C           1     -23.534  -3.024 -11.617  0.00  0.00     0.012 C 
ENDBRANCH  21  22
BRANCH  21  25
HETATM   25  N           1     -24.483  -3.443  -9.052  0.00  0.00    -0.066 N 
HETATM   26  H           1     -24.563  -3.408  -8.011  0.00  0.00     0.275 HD
HETATM   27  H           1     -24.450  -2.470  -9.433  0.00  0.00     0.275 HD
HETATM   28  H           1     -25.311  -3.943  -9.448  0.00  0.00     0.275 HD
ENDBRANCH  21  25
ENDBRANCH  18  21
ENDBRANCH   1  17
TORSDOF 9
ENDMDL
MODEL 5
REMARK VINA RESULT:      -5.9      3.981      9.395
REMARK  9 active torsions:
REMARK  status: ('A' for Active; 'I' for Inactive)
REMARK       I    between atoms: N_1  and  C_15 
REMARK       I    between atoms: N_2  and  C_15 
REMARK    1  A    between atoms: N_2  and  C_21 
REMARK       I    between atoms: C_5  and  N_20 
REMARK    2  A    between atoms: C_5  and  C_14 
REMARK    3  A    between atoms: C_9  and  C_24 
REMARK    4  A    between atoms: C_9  and  C_19 
REMARK    5  A    between atoms: C_9  and  N_20 
REMARK    6  A    between atoms: C_10  and  C_14 
REMARK    7  A    between atoms: C_14  and  N_26 
REMARK    8  A    between atoms: C_21  and  C_23 
REMARK    9  A    between atoms: C_23  and  C_24 
ROOT
HETATM    1  C           1     -20.953  -6.576  -4.872  0.00  0.00     0.185 C 
ENDROOT
BRANCH   1   2
HETATM    2  C           1     -22.027  -6.811  -3.818  0.00  0.00     0.038 C 
BRANCH   2   3
HETATM    3  C           1     -21.702  -6.001  -2.571  0.00  0.00     0.023 C 
BRANCH   3   4
HETATM    4  C           1     -22.145  -6.773  -1.333  0.00  0.00     0.138 C 
BRANCH   4   5
HETATM    5  N           1     -21.540  -8.112  -1.348  0.00  0.00    -0.227 N 
HETATM    6  C           1     -21.339  -8.728  -0.261  0.00  0.00     0.665 C 
HETATM    7  N           1     -21.659  -8.190   0.840  0.00  0.00    -0.235 N 
HETATM    8  N           1     -20.804  -9.913  -0.273  0.00  0.00    -0.235 N 
HETATM    9  H           1     -22.091  -7.233   0.851  0.00  0.00     0.174 HD
HETATM   10  H           1     -21.493  -8.701   1.742  0.00  0.00     0.174 HD
HETATM   11  H           1     -20.639 -10.421   0.625  0.00  0.00     0.174 HD
HETATM   12  H           1     -20.540 -10.357  -1.182  0.00  0.00     0.174 HD
HETATM   13  H           1     -21.274  -8.559  -2.260  0.00  0.00     0.177 HD
ENDBRANCH   4   5
ENDBRANCH   3   4
ENDBRANCH   2   3
ENDBRANCH   1   2
BRANCH   1  14
HETATM   14  C           1     -20.061  -7.789  -4.963  0.00  0.00     0.196 C 
HETATM   15  O           1     -19.903  -8.525  -3.964  0.00  0.00    -0.646 OA
HETATM   16  O           1     -19.480  -8.059  -6.036  0.00  0.00    -0.646 OA
ENDBRANCH   1  14
BRANCH   1  17
HETATM   17  N           1     -21.581  -6.341  -6.157  0.00  0.00    -0.345 N 
HETATM   18  C           1     -21.574  -5.085  -6.703  0.00  0.00     0.249 C 
HETATM   19  O           1     -21.045  -4.173  -6.114  0.00  0.00    -0.271 OA
HETATM   20  H           1     -22.024  -7.105  -6.651  0.00  0.00     0.163 HD
BRANCH  18  21
HETATM   21  C           1     -22.228  -4.841  -8.041  0.00  0.00     0.278 C 
BRANCH  21  22
HETATM   22  C           1     -21.305  -3.998  -8.911  0.00  0.00     0.017 C 
HETATM   23  C           1     -20.046  -4.791  -9.234  0.00  0.00     0.012 C 
HETATM   24  C           1     -22.022  -3.634 -10.205  0.00  0.00     0.012 C 
ENDBRANCH  21  22
BRANCH  21  25
HETATM   25  N           1     -23.525  -4.114  -7.838  0.00  0.00    -0.066 N 
HETATM   26  H           1     -23.404  -3.108  -8.094  0.00  0.00     0.275 HD
HETATM   27  H           1     -24.263  -4.541  -8.442  0.00  0.00     0.275 HD
HETATM   28  H           1     -23.811  -4.186  -6.835  0.00  0.00     0.275 HD
ENDBRANCH  21  25
ENDBRANCH  18  21
ENDBRANCH   1  17
TORSDOF 9
ENDMDL
MODEL 6
REMARK VINA RESULT:      -5.8      3.821      6.103
REMARK  9 active torsions:
REMARK  status: ('A' for Active; 'I' for Inactive)
REMARK       I    between atoms: N_1  and  C_15 
REMARK       I    between atoms: N_2  and  C_15 
REMARK    1  A    between atoms: N_2  and  C_21 
REMARK       I    between atoms: C_5  and  N_20 
REMARK    2  A    between atoms: C_5  and  C_14 
REMARK    3  A    between atoms: C_9  and  C_24 
REMARK    4  A    between atoms: C_9  and  C_19 
REMARK    5  A    between atoms: C_9  and  N_20 
REMARK    6  A    between atoms: C_10  and  C_14 
REMARK    7  A    between atoms: C_14  and  N_26 
REMARK    8  A    between atoms: C_21  and  C_23 
REMARK    9  A    between atoms: C_23  and  C_24 
ROOT
HETATM    1  C           1     -20.699  -6.822  -5.435  0.00  0.00     0.185 C 
ENDROOT
BRANCH   1   2
HETATM    2  C           1     -20.534  -6.122  -6.778  0.00  0.00     0.038 C 
BRANCH   2   3
HETATM    3  C           1     -19.996  -4.715  -6.555  0.00  0.00     0.023 C 
BRANCH   3   4
HETATM    4  C           1     -20.625  -3.765  -7.567  0.00  0.00     0.138 C 
BRANCH   4   5
HETATM    5  N           1     -22.089  -3.804  -7.434  0.00  0.00    -0.227 N 
HETATM    6  C           1     -22.815  -3.925  -8.463  0.00  0.00     0.665 C 
HETATM    7  N           1     -22.281  -4.013  -9.608  0.00  0.00    -0.235 N 
HETATM    8  N           1     -24.109  -3.959  -8.345  0.00  0.00    -0.235 N 
HETATM    9  H           1     -21.236  -3.985  -9.703  0.00  0.00     0.174 HD
HETATM   10  H           1     -22.883  -4.113 -10.462  0.00  0.00     0.174 HD
HETATM   11  H           1     -24.708  -4.060  -9.196  0.00  0.00     0.174 HD
HETATM   12  H           1     -24.549  -3.887  -7.401  0.00  0.00     0.174 HD
HETATM   13  H           1     -22.531  -3.731  -6.485  0.00  0.00     0.177 HD
ENDBRANCH   4   5
ENDBRANCH   3   4
ENDBRANCH   2   3
ENDBRANCH   1   2
BRANCH   1  14
HETATM   14  C           1     -21.914  -6.275  -4.728  0.00  0.00     0.196 C 
HETATM   15  O           1     -22.942  -5.989  -5.381  0.00  0.00    -0.646 OA
HETATM   16  O           1     -21.895  -6.108  -3.489  0.00  0.00    -0.646 OA
ENDBRANCH   1  14
BRANCH   1  17
HETATM   17  N           1     -20.866  -8.246  -5.651  0.00  0.00    -0.345 N 
HETATM   18  C           1     -20.102  -9.139  -4.949  0.00  0.00     0.249 C 
HETATM   19  O           1     -19.288  -8.741  -4.149  0.00  0.00    -0.271 OA
HETATM   20  H           1     -21.547  -8.580  -6.321  0.00  0.00     0.163 HD
BRANCH  18  21
HETATM   21  C           1     -20.275 -10.621  -5.173  0.00  0.00     0.278 C 
BRANCH  21  22
HETATM   22  C           1     -18.912 -11.267  -5.382  0.00  0.00     0.017 C 
HETATM   23  C           1     -18.781 -12.484  -4.476  0.00  0.00     0.012 C 
HETATM   24  C           1     -18.774 -11.699  -6.836  0.00  0.00     0.012 C 
ENDBRANCH  21  22
BRANCH  21  25
HETATM   25  N           1     -21.126 -10.846  -6.388  0.00  0.00    -0.066 N 
HETATM   26  H           1     -21.036 -10.029  -7.033  0.00  0.00     0.275 HD
HETATM   27  H           1     -20.813 -11.714  -6.878  0.00  0.00     0.275 HD
HETATM   28  H           1     -22.125 -10.952  -6.098  0.00  0.00     0.275 HD
ENDBRANCH  21  25
ENDBRANCH  18  21
ENDBRANCH   1  17
TORSDOF 9
ENDMDL
MODEL 7
REMARK VINA RESULT:      -5.8      6.800      9.985
REMARK  9 active torsions:
REMARK  status: ('A' for Active; 'I' for Inactive)
REMARK       I    between atoms: N_1  and  C_15 
REMARK       I    between atoms: N_2  and  C_15 
REMARK    1  A    between atoms: N_2  and  C_21 
REMARK       I    between atoms: C_5  and  N_20 
REMARK    2  A    between atoms: C_5  and  C_14 
REMARK    3  A    between atoms: C_9  and  C_24 
REMARK    4  A    between atoms: C_9  and  C_19 
REMARK    5  A    between atoms: C_9  and  N_20 
REMARK    6  A    between atoms: C_10  and  C_14 
REMARK    7  A    between atoms: C_14  and  N_26 
REMARK    8  A    between atoms: C_21  and  C_23 
REMARK    9  A    between atoms: C_23  and  C_24 
ROOT
HETATM    1  C           1     -21.188  -8.092  -0.925  0.00  0.00     0.185 C 
ENDROOT
BRANCH   1   2
HETATM    2  C           1     -20.394  -7.692  -2.162  0.00  0.00     0.038 C 
BRANCH   2   3
HETATM    3  C           1     -20.678  -8.674  -3.290  0.00  0.00     0.023 C 
BRANCH   3   4
HETATM    4  C           1     -21.436  -7.964  -4.405  0.00  0.00     0.138 C 
BRANCH   4   5
HETATM    5  N           1     -21.079  -6.538  -4.410  0.00  0.00    -0.227 N 
HETATM    6  C           1     -20.635  -6.000  -5.466  0.00  0.00     0.665 C 
HETATM    7  N           1     -20.499  -6.691  -6.519  0.00  0.00    -0.235 N 
HETATM    8  N           1     -20.319  -4.739  -5.471  0.00  0.00    -0.235 N 
HETATM    9  H           1     -20.755  -7.709  -6.516  0.00  0.00     0.174 HD
HETATM   10  H           1     -20.132  -6.245  -7.396  0.00  0.00     0.174 HD
HETATM   11  H           1     -19.953  -4.296  -6.344  0.00  0.00     0.174 HD
HETATM   12  H           1     -20.432  -4.170  -4.602  0.00  0.00     0.174 HD
HETATM   13  H           1     -21.192  -5.965  -3.537  0.00  0.00     0.177 HD
ENDBRANCH   4   5
ENDBRANCH   3   4
ENDBRANCH   2   3
ENDBRANCH   1   2
BRANCH   1  14
HETATM   14  C           1     -22.398  -7.201  -0.793  0.00  0.00     0.196 C 
HETATM   15  O           1     -22.532  -6.212  -1.547  0.00  0.00    -0.646 OA
HETATM   16  O           1     -23.268  -7.450   0.069  0.00  0.00    -0.646 OA
ENDBRANCH   1  14
BRANCH   1  17
HETATM   17  N           1     -21.616  -9.471  -1.053  0.00  0.00    -0.345 N 
HETATM   18  C           1     -21.347 -10.366  -0.053  0.00  0.00     0.249 C 
HETATM   19  O           1     -20.752 -10.008   0.936  0.00  0.00    -0.271 OA
HETATM   20  H           1     -22.114  -9.772  -1.881  0.00  0.00     0.163 HD
BRANCH  18  21
HETATM   21  C           1     -21.792 -11.802  -0.185  0.00  0.00     0.278 C 
BRANCH  21  22
HETATM   22  C           1     -23.230 -11.935   0.299  0.00  0.00     0.017 C 
HETATM   23  C           1     -24.159 -12.084  -0.899  0.00  0.00     0.012 C 
HETATM   24  C           1     -23.352 -13.163   1.193  0.00  0.00     0.012 C 
ENDBRANCH  21  22
BRANCH  21  25
HETATM   25  N           1     -20.903 -12.680   0.645  0.00  0.00    -0.066 N 
HETATM   26  H           1     -20.395 -12.096   1.348  0.00  0.00     0.275 HD
HETATM   27  H           1     -21.482 -13.396   1.140  0.00  0.00     0.275 HD
HETATM   28  H           1     -20.211 -13.159   0.026  0.00  0.00     0.275 HD
ENDBRANCH  21  25
ENDBRANCH  18  21
ENDBRANCH   1  17
TORSDOF 9
ENDMDL
MODEL 8
REMARK VINA RESULT:      -5.7      5.411      8.258
REMARK  9 active torsions:
REMARK  status: ('A' for Active; 'I' for Inactive)
REMARK       I    between atoms: N_1  and  C_15 
REMARK       I    between atoms: N_2  and  C_15 
REMARK    1  A    between atoms: N_2  and  C_21 
REMARK       I    between atoms: C_5  and  N_20 
REMARK    2  A    between atoms: C_5  and  C_14 
REMARK    3  A    between atoms: C_9  and  C_24 
REMARK    4  A    between atoms: C_9  and  C_19 
REMARK    5  A    between atoms: C_9  and  N_20 
REMARK    6  A    between atoms: C_10  and  C_14 
REMARK    7  A    between atoms: C_14  and  N_26 
REMARK    8  A    between atoms: C_21  and  C_23 
REMARK    9  A    between atoms: C_23  and  C_24 
ROOT
HETATM    1  C           1     -21.196  -9.014  -4.098  0.00  0.00     0.185 C 
ENDROOT
BRANCH   1   2
HETATM    2  C           1     -21.877  -7.795  -4.706  0.00  0.00     0.038 C 
BRANCH   2   3
HETATM    3  C           1     -21.231  -6.527  -4.164  0.00  0.00     0.023 C 
BRANCH   3   4
HETATM    4  C           1     -21.018  -5.538  -5.303  0.00  0.00     0.138 C 
BRANCH   4   5
HETATM    5  N           1     -22.283  -5.341  -6.026  0.00  0.00    -0.227 N 
HETATM    6  C           1     -22.367  -4.454  -6.924  0.00  0.00     0.665 C 
HETATM    7  N           1     -21.362  -3.734  -7.201  0.00  0.00    -0.235 N 
HETATM    8  N           1     -23.486  -4.280  -7.564  0.00  0.00    -0.235 N 
HETATM    9  H           1     -20.458  -3.874  -6.684  0.00  0.00     0.174 HD
HETATM   10  H           1     -21.432  -2.998  -7.946  0.00  0.00     0.174 HD
HETATM   11  H           1     -23.555  -3.547  -8.305  0.00  0.00     0.174 HD
HETATM   12  H           1     -24.315  -4.873  -7.336  0.00  0.00     0.174 HD
HETATM   13  H           1     -23.116  -5.937  -5.797  0.00  0.00     0.177 HD
ENDBRANCH   4   5
ENDBRANCH   3   4
ENDBRANCH   2   3
ENDBRANCH   1   2
BRANCH   1  14
HETATM   14  C           1     -19.723  -8.982  -4.421  0.00  0.00     0.196 C 
HETATM   15  O           1     -18.879  -8.998  -3.498  0.00  0.00    -0.646 OA
HETATM   16  O           1     -19.344  -8.939  -5.612  0.00  0.00    -0.646 OA
ENDBRANCH   1  14
BRANCH   1  17
HETATM   17  N           1     -21.375  -8.999  -2.660  0.00  0.00    -0.345 N 
HETATM   18  C           1     -22.085  -9.998  -2.049  0.00  0.00     0.249 C 
HETATM   19  O           1     -22.562 -10.891  -2.708  0.00  0.00    -0.271 OA
HETATM   20  H           1     -20.976  -8.251  -2.108  0.00  0.00     0.163 HD
BRANCH  18  21
HETATM   21  C           1     -22.272  -9.983  -0.552  0.00  0.00     0.278 C 
BRANCH  21  22
HETATM   22  C           1     -21.937  -8.599  -0.011  0.00  0.00     0.017 C 
HETATM   23  C           1     -23.222  -7.884   0.386  0.00  0.00     0.012 C 
HETATM   24  C           1     -21.035  -8.736   1.208  0.00  0.00     0.012 C 
ENDBRANCH  21  22
BRANCH  21  25
HETATM   25  N           1     -21.362 -10.997   0.076  0.00  0.00    -0.066 N 
HETATM   26  H           1     -20.374 -10.662   0.016  0.00  0.00     0.275 HD
HETATM   27  H           1     -21.625 -11.131   1.078  0.00  0.00     0.275 HD
HETATM   28  H           1     -21.451 -11.906  -0.432  0.00  0.00     0.275 HD
ENDBRANCH  21  25
ENDBRANCH  18  21
ENDBRANCH   1  17
TORSDOF 9
ENDMDL
MODEL 9
REMARK VINA RESULT:      -5.6      5.463      8.547
REMARK  9 active torsions:
REMARK  status: ('A' for Active; 'I' for Inactive)
REMARK       I    between atoms: N_1  and  C_15 
REMARK       I    between atoms: N_2  and  C_15 
REMARK    1  A    between atoms: N_2  and  C_21 
REMARK       I    between atoms: C_5  and  N_20 
REMARK    2  A    between atoms: C_5  and  C_14 
REMARK    3  A    between atoms: C_9  and  C_24 
REMARK    4  A    between atoms: C_9  and  C_19 
REMARK    5  A    between atoms: C_9  and  N_20 
REMARK    6  A    between atoms: C_10  and  C_14 
REMARK    7  A    between atoms: C_14  and  N_26 
REMARK    8  A    between atoms: C_21  and  C_23 
REMARK    9  A    between atoms: C_23  and  C_24 
ROOT
HETATM    1  C           1     -21.446  -7.818  -2.653  0.00  0.00     0.185 C 
ENDROOT
BRANCH   1   2
HETATM    2  C           1     -21.805  -7.737  -4.131  0.00  0.00     0.038 C 
BRANCH   2   3
HETATM    3  C           1     -20.540  -7.516  -4.950  0.00  0.00     0.023 C 
BRANCH   3   4
HETATM    4  C           1     -20.521  -6.088  -5.481  0.00  0.00     0.138 C 
BRANCH   4   5
HETATM    5  N           1     -21.900  -5.593  -5.609  0.00  0.00    -0.227 N 
HETATM    6  C           1     -22.264  -4.999  -6.666  0.00  0.00     0.665 C 
HETATM    7  N           1     -21.441  -4.831  -7.613  0.00  0.00    -0.235 N 
HETATM    8  N           1     -23.483  -4.562  -6.778  0.00  0.00    -0.235 N 
HETATM    9  H           1     -20.456  -5.185  -7.522  0.00  0.00     0.174 HD
HETATM   10  H           1     -21.743  -4.339  -8.490  0.00  0.00     0.174 HD
HETATM   11  H           1     -23.783  -4.072  -7.651  0.00  0.00     0.174 HD
HETATM   12  H           1     -24.161  -4.700  -5.996  0.00  0.00     0.174 HD
HETATM   13  H           1     -22.582  -5.732  -4.823  0.00  0.00     0.177 HD
ENDBRANCH   4   5
ENDBRANCH   3   4
ENDBRANCH   2   3
ENDBRANCH   1   2
BRANCH   1  14
HETATM   14  C           1     -22.050  -6.644  -1.923  0.00  0.00     0.196 C 
HETATM   15  O           1     -22.653  -6.822  -0.842  0.00  0.00    -0.646 OA
HETATM   16  O           1     -21.946  -5.492  -2.398  0.00  0.00    -0.646 OA
ENDBRANCH   1  14
BRANCH   1  17
HETATM   17  N           1     -21.967  -9.051  -2.097  0.00  0.00    -0.345 N 
HETATM   18  C           1     -21.113  -9.963  -1.538  0.00  0.00     0.249 C 
HETATM   19  O           1     -19.926  -9.741  -1.507  0.00  0.00    -0.271 OA
HETATM   20  H           1     -22.961  -9.238  -2.123  0.00  0.00     0.163 HD
BRANCH  18  21
HETATM   21  C           1     -21.655 -11.247  -0.959  0.00  0.00     0.278 C 
BRANCH  21  22
HETATM   22  C           1     -23.129 -11.383  -1.314  0.00  0.00     0.017 C 
HETATM   23  C           1     -23.413 -12.807  -1.775  0.00  0.00     0.012 C 
HETATM   24  C           1     -23.977 -11.069  -0.088  0.00  0.00     0.012 C 
ENDBRANCH  21  22
BRANCH  21  25
HETATM   25  N           1     -21.501 -11.227   0.533  0.00  0.00    -0.066 N 
HETATM   26  H           1     -21.438 -12.208   0.890  0.00  0.00     0.275 HD
HETATM   27  H           1     -20.631 -10.707   0.788  0.00  0.00     0.275 HD
HETATM   28  H           1     -22.327 -10.753   0.962  0.00  0.00     0.275 HD
ENDBRANCH  21  25
ENDBRANCH  18  21
ENDBRANCH   1  17
TORSDOF 9
ENDMDL
