MODEL 1
REMARK VINA RESULT:      -9.1      0.000      0.000
REMARK  9 active torsions:
REMARK  status: ('A' for Active; 'I' for Inactive)
REMARK    1  A    between atoms: O_3  and  C_27 
REMARK    2  A    between atoms: C_4  and  C_5 
REMARK    3  A    between atoms: C_5  and  C_23 
REMARK    4  A    between atoms: N_7  and  C_8 
REMARK    5  A    between atoms: C_8  and  C_32 
REMARK    6  A    between atoms: C_8  and  C_25 
REMARK    7  A    between atoms: C_10  and  C_25 
REMARK    8  A    between atoms: C_21  and  C_23 
REMARK    9  A    between atoms: C_23  and  N_26 
REMARK       I    between atoms: N_26  and  C_32 
ROOT
HETATM    1  H           1     -19.350  -7.468  -7.244  0.00  0.00     0.163 HD
HETATM    2  N           1     -19.761  -7.065  -6.412  0.00  0.00    -0.344 N 
HETATM    3  O           1     -19.410  -4.882  -6.096  0.00  0.00    -0.271 OA
HETATM    4  C           1     -20.176  -5.760  -6.416  0.00  0.00     0.249 C 
ENDROOT
BRANCH   2   5
HETATM    5  C           1     -19.912  -7.869  -5.215  0.00  0.00     0.190 C 
BRANCH   5   6
HETATM    6  C           1     -21.253  -8.590  -5.255  0.00  0.00     0.077 C 
BRANCH   6   7
HETATM    7  C           1     -21.565  -9.143  -3.899  0.00  0.00    -0.028 A 
HETATM    8  C           1     -21.653 -10.477  -3.569  0.00  0.00     0.096 A 
HETATM    9  N           1     -21.954 -10.557  -2.235  0.00  0.00    -0.365 N 
HETATM   10  H           1     -22.084 -11.454  -1.701  0.00  0.00     0.165 HD
HETATM   11  C           1     -22.062  -9.296  -1.693  0.00  0.00     0.042 A 
HETATM   12  C           1     -22.351  -8.897  -0.383  0.00  0.00     0.030 A 
HETATM   13  C           1     -21.820  -8.386  -2.723  0.00  0.00    -0.002 A 
HETATM   14  C           1     -22.395  -7.523  -0.122  0.00  0.00     0.002 A 
HETATM   15  C           1     -22.157  -6.592  -1.130  0.00  0.00     0.001 A 
HETATM   16  C           1     -21.869  -7.009  -2.435  0.00  0.00     0.014 A 
ENDBRANCH   6   7
ENDBRANCH   5   6
BRANCH   5  17
HETATM   17  C           1     -18.797  -8.883  -5.148  0.00  0.00     0.197 C 
HETATM   18  O           1     -18.249  -9.136  -4.053  0.00  0.00    -0.646 OA
HETATM   19  O           1     -18.423  -9.471  -6.185  0.00  0.00    -0.646 OA
ENDBRANCH   5  17
ENDBRANCH   2   5
BRANCH   4  20
HETATM   20  C           1     -21.589  -5.418  -6.823  0.00  0.00     0.278 C 
BRANCH  20  21
HETATM   21  N           1     -22.503  -5.598  -5.647  0.00  0.00    -0.066 N 
HETATM   22  H           1     -22.682  -6.617  -5.498  0.00  0.00     0.275 HD
HETATM   23  H           1     -22.055  -5.194  -4.794  0.00  0.00     0.275 HD
HETATM   24  H           1     -23.408  -5.110  -5.831  0.00  0.00     0.275 HD
ENDBRANCH  20  21
BRANCH  20  25
HETATM   25  C           1     -21.646  -3.971  -7.292  0.00  0.00     0.081 C 
BRANCH  25  26
HETATM   26  C           1     -21.687  -3.932  -8.789  0.00  0.00    -0.056 A 
HETATM   27  C           1     -20.514  -4.112  -9.522  0.00  0.00     0.010 A 
HETATM   28  C           1     -20.552  -4.076 -10.916  0.00  0.00     0.037 A 
HETATM   29  C           1     -21.761  -3.860 -11.576  0.00  0.00     0.065 A 
HETATM   30  C           1     -22.934  -3.680 -10.842  0.00  0.00     0.037 A 
HETATM   31  C           1     -22.896  -3.716  -9.448  0.00  0.00     0.010 A 
BRANCH  29  32
HETATM   32  O           1     -21.798  -3.825 -12.930  0.00  0.00    -0.361 OA
HETATM   33  H           1     -22.701  -3.589 -13.200  0.00  0.00     0.217 HD
ENDBRANCH  29  32
ENDBRANCH  25  26
ENDBRANCH  20  25
ENDBRANCH   4  20
TORSDOF 9
ENDMDL
MODEL 2
REMARK VINA RESULT:      -8.9      1.449      2.159
REMARK  9 active torsions:
REMARK  status: ('A' for Active; 'I' for Inactive)
REMARK    1  A    between atoms: O_3  and  C_27 
REMARK    2  A    between atoms: C_4  and  C_5 
REMARK    3  A    between atoms: C_5  and  C_23 
REMARK    4  A    between atoms: N_7  and  C_8 
REMARK    5  A    between atoms: C_8  and  C_32 
REMARK    6  A    between atoms: C_8  and  C_25 
REMARK    7  A    between atoms: C_10  and  C_25 
REMARK    8  A    between atoms: C_21  and  C_23 
REMARK    9  A    between atoms: C_23  and  N_26 
REMARK       I    between atoms: N_26  and  C_32 
ROOT
HETATM    1  H           1     -21.553  -7.909  -6.676  0.00  0.00     0.163 HD
HETATM    2  N           1     -20.820  -7.424  -6.173  0.00  0.00    -0.344 N 
HETATM    3  O           1     -19.188  -6.542  -7.416  0.00  0.00    -0.271 OA
HETATM    4  C           1     -20.181  -6.361  -6.752  0.00  0.00     0.249 C 
ENDROOT
BRANCH   2   5
HETATM    5  C           1     -20.449  -7.854  -4.839  0.00  0.00     0.190 C 
BRANCH   5   6
HETATM    6  C           1     -21.662  -8.458  -4.145  0.00  0.00     0.077 C 
BRANCH   6   7
HETATM    7  C           1     -21.800  -7.869  -2.775  0.00  0.00    -0.028 A 
HETATM    8  C           1     -22.206  -6.588  -2.480  0.00  0.00     0.096 A 
HETATM    9  N           1     -22.197  -6.450  -1.118  0.00  0.00    -0.365 N 
HETATM   10  H           1     -22.462  -5.574  -0.601  0.00  0.00     0.165 HD
HETATM   11  C           1     -21.791  -7.623  -0.522  0.00  0.00     0.042 A 
HETATM   12  C           1     -21.633  -7.942   0.832  0.00  0.00     0.030 A 
HETATM   13  C           1     -21.534  -8.534  -1.547  0.00  0.00    -0.002 A 
HETATM   14  C           1     -21.199  -9.234   1.144  0.00  0.00     0.002 A 
HETATM   15  C           1     -20.936 -10.166   0.142  0.00  0.00     0.001 A 
HETATM   16  C           1     -21.099  -9.829  -1.207  0.00  0.00     0.014 A 
ENDBRANCH   6   7
ENDBRANCH   5   6
BRANCH   5  17
HETATM   17  C           1     -19.355  -8.889  -4.932  0.00  0.00     0.197 C 
HETATM   18  O           1     -18.523  -9.003  -4.006  0.00  0.00    -0.646 OA
HETATM   19  O           1     -19.281  -9.633  -5.934  0.00  0.00    -0.646 OA
ENDBRANCH   5  17
ENDBRANCH   2   5
BRANCH   4  20
HETATM   20  C           1     -20.717  -4.963  -6.562  0.00  0.00     0.278 C 
BRANCH  20  21
HETATM   21  N           1     -20.275  -4.436  -5.228  0.00  0.00    -0.066 N 
HETATM   22  H           1     -20.945  -3.702  -4.905  0.00  0.00     0.275 HD
HETATM   23  H           1     -20.254  -5.218  -4.536  0.00  0.00     0.275 HD
HETATM   24  H           1     -19.320  -4.022  -5.316  0.00  0.00     0.275 HD
ENDBRANCH  20  21
BRANCH  20  25
HETATM   25  C           1     -20.183  -4.059  -7.666  0.00  0.00     0.081 C 
BRANCH  25  26
HETATM   26  C           1     -21.039  -4.202  -8.886  0.00  0.00    -0.056 A 
HETATM   27  C           1     -22.426  -4.268  -8.760  0.00  0.00     0.010 A 
HETATM   28  C           1     -23.223  -4.402  -9.898  0.00  0.00     0.037 A 
HETATM   29  C           1     -22.633  -4.469 -11.159  0.00  0.00     0.065 A 
HETATM   30  C           1     -21.245  -4.404 -11.284  0.00  0.00     0.037 A 
HETATM   31  C           1     -20.448  -4.270 -10.147  0.00  0.00     0.010 A 
BRANCH  29  32
HETATM   32  O           1     -23.407  -4.599 -12.264  0.00  0.00    -0.361 OA
HETATM   33  H           1     -23.723  -3.716 -12.515  0.00  0.00     0.217 HD
ENDBRANCH  29  32
ENDBRANCH  25  26
ENDBRANCH  20  25
ENDBRANCH   4  20
TORSDOF 9
ENDMDL
MODEL 3
REMARK VINA RESULT:      -8.9      1.790      2.342
REMARK  9 active torsions:
REMARK  status: ('A' for Active; 'I' for Inactive)
REMARK    1  A    between atoms: O_3  and  C_27 
REMARK    2  A    between atoms: C_4  and  C_5 
REMARK    3  A    between atoms: C_5  and  C_23 
REMARK    4  A    between atoms: N_7  and  C_8 
REMARK    5  A    between atoms: C_8  and  C_32 
REMARK    6  A    between atoms: C_8  and  C_25 
REMARK    7  A    between atoms: C_10  and  C_25 
REMARK    8  A    between atoms: C_21  and  C_23 
REMARK    9  A    between atoms: C_23  and  N_26 
REMARK       I    between atoms: N_26  and  C_32 
ROOT
HETATM    1  H           1     -19.902  -7.455  -7.415  0.00  0.00     0.163 HD
HETATM    2  N           1     -20.392  -6.827  -6.790  0.00  0.00    -0.344 N 
HETATM    3  O           1     -19.431  -4.843  -6.435  0.00  0.00    -0.271 OA
HETATM    4  C           1     -20.307  -5.473  -6.976  0.00  0.00     0.249 C 
ENDROOT
BRANCH   2   5
HETATM    5  C           1     -21.183  -7.360  -5.698  0.00  0.00     0.190 C 
BRANCH   5   6
HETATM    6  C           1     -20.266  -8.055  -4.700  0.00  0.00     0.077 C 
BRANCH   6   7
HETATM    7  C           1     -21.068  -8.994  -3.854  0.00  0.00    -0.028 A 
HETATM    8  C           1     -21.647 -10.170  -4.274  0.00  0.00     0.096 A 
HETATM    9  N           1     -22.287 -10.728  -3.199  0.00  0.00    -0.365 N 
HETATM   10  H           1     -22.820 -11.634  -3.221  0.00  0.00     0.165 HD
HETATM   11  C           1     -22.132  -9.933  -2.086  0.00  0.00     0.042 A 
HETATM   12  C           1     -22.606 -10.102  -0.780  0.00  0.00     0.030 A 
HETATM   13  C           1     -21.366  -8.832  -2.473  0.00  0.00    -0.002 A 
HETATM   14  C           1     -22.286  -9.114   0.156  0.00  0.00     0.002 A 
HETATM   15  C           1     -21.522  -8.005  -0.201  0.00  0.00     0.001 A 
HETATM   16  C           1     -21.057  -7.851  -1.512  0.00  0.00     0.014 A 
ENDBRANCH   6   7
ENDBRANCH   5   6
BRANCH   5  17
HETATM   17  C           1     -21.914  -6.233  -5.011  0.00  0.00     0.197 C 
HETATM   18  O           1     -21.336  -5.557  -4.133  0.00  0.00    -0.646 OA
HETATM   19  O           1     -23.097  -5.975  -5.321  0.00  0.00    -0.646 OA
ENDBRANCH   5  17
ENDBRANCH   2   5
BRANCH   4  20
HETATM   20  C           1     -21.308  -4.769  -7.860  0.00  0.00     0.278 C 
BRANCH  20  21
HETATM   21  N           1     -21.709  -3.471  -7.223  0.00  0.00    -0.066 N 
HETATM   22  H           1     -21.384  -2.676  -7.818  0.00  0.00     0.275 HD
HETATM   23  H           1     -22.749  -3.436  -7.131  0.00  0.00     0.275 HD
HETATM   24  H           1     -21.273  -3.398  -6.276  0.00  0.00     0.275 HD
ENDBRANCH  20  21
BRANCH  20  25
HETATM   25  C           1     -20.680  -4.493  -9.220  0.00  0.00     0.081 C 
BRANCH  25  26
HETATM   26  C           1     -21.749  -4.103 -10.193  0.00  0.00    -0.056 A 
HETATM   27  C           1     -23.026  -4.653 -10.083  0.00  0.00     0.010 A 
HETATM   28  C           1     -24.022  -4.290 -10.991  0.00  0.00     0.037 A 
HETATM   29  C           1     -23.739  -3.378 -12.007  0.00  0.00     0.065 A 
HETATM   30  C           1     -22.462  -2.828 -12.117  0.00  0.00     0.037 A 
HETATM   31  C           1     -21.467  -3.191 -11.210  0.00  0.00     0.010 A 
BRANCH  29  32
HETATM   32  O           1     -24.706  -3.025 -12.889  0.00  0.00    -0.361 OA
HETATM   33  H           1     -24.288  -2.888 -13.755  0.00  0.00     0.217 HD
ENDBRANCH  29  32
ENDBRANCH  25  26
ENDBRANCH  20  25
ENDBRANCH   4  20
TORSDOF 9
ENDMDL
MODEL 4
REMARK VINA RESULT:      -8.6      2.217      8.727
REMARK  9 active torsions:
REMARK  status: ('A' for Active; 'I' for Inactive)
REMARK    1  A    between atoms: O_3  and  C_27 
REMARK    2  A    between atoms: C_4  and  C_5 
REMARK    3  A    between atoms: C_5  and  C_23 
REMARK    4  A    between atoms: N_7  and  C_8 
REMARK    5  A    between atoms: C_8  and  C_32 
REMARK    6  A    between atoms: C_8  and  C_25 
REMARK    7  A    between atoms: C_10  and  C_25 
REMARK    8  A    between atoms: C_21  and  C_23 
REMARK    9  A    between atoms: C_23  and  N_26 
REMARK       I    between atoms: N_26  and  C_32 
ROOT
HETATM    1  H           1     -22.671  -4.414  -6.016  0.00  0.00     0.163 HD
HETATM    2  N           1     -21.848  -4.950  -6.260  0.00  0.00    -0.344 N 
HETATM    3  O           1     -20.271  -5.108  -4.686  0.00  0.00    -0.271 OA
HETATM    4  C           1     -21.169  -5.642  -5.293  0.00  0.00     0.249 C 
ENDROOT
BRANCH   2   5
HETATM    5  C           1     -21.387  -4.985  -7.634  0.00  0.00     0.190 C 
BRANCH   5   6
HETATM    6  C           1     -21.628  -3.630  -8.285  0.00  0.00     0.077 C 
BRANCH   6   7
HETATM    7  C           1     -22.846  -3.699  -9.152  0.00  0.00    -0.028 A 
HETATM    8  C           1     -24.110  -4.066  -8.746  0.00  0.00     0.096 A 
HETATM    9  N           1     -24.935  -3.999  -9.837  0.00  0.00    -0.365 N 
HETATM   10  H           1     -25.961  -4.224  -9.830  0.00  0.00     0.165 HD
HETATM   11  C           1     -24.227  -3.594 -10.947  0.00  0.00     0.042 A 
HETATM   12  C           1     -24.650  -3.388 -12.265  0.00  0.00     0.030 A 
HETATM   13  C           1     -22.906  -3.398 -10.540  0.00  0.00    -0.002 A 
HETATM   14  C           1     -23.691  -2.970 -13.193  0.00  0.00     0.002 A 
HETATM   15  C           1     -22.366  -2.765 -12.816  0.00  0.00     0.001 A 
HETATM   16  C           1     -21.960  -2.976 -11.493  0.00  0.00     0.014 A 
ENDBRANCH   6   7
ENDBRANCH   5   6
BRANCH   5  17
HETATM   17  C           1     -19.912  -5.302  -7.661  0.00  0.00     0.197 C 
HETATM   18  O           1     -19.530  -6.492  -7.704  0.00  0.00    -0.646 OA
HETATM   19  O           1     -19.073  -4.376  -7.642  0.00  0.00    -0.646 OA
ENDBRANCH   5  17
ENDBRANCH   2   5
BRANCH   4  20
HETATM   20  C           1     -21.544  -7.070  -4.983  0.00  0.00     0.278 C 
BRANCH  20  21
HETATM   21  N           1     -21.462  -7.890  -6.237  0.00  0.00    -0.066 N 
HETATM   22  H           1     -21.813  -8.856  -6.045  0.00  0.00     0.275 HD
HETATM   23  H           1     -22.049  -7.448  -6.980  0.00  0.00     0.275 HD
HETATM   24  H           1     -20.469  -7.938  -6.559  0.00  0.00     0.275 HD
ENDBRANCH  20  21
BRANCH  20  25
HETATM   25  C           1     -20.583  -7.635  -3.946  0.00  0.00     0.081 C 
BRANCH  25  26
HETATM   26  C           1     -21.289  -7.769  -2.632  0.00  0.00    -0.056 A 
HETATM   27  C           1     -21.851  -6.646  -2.025  0.00  0.00     0.010 A 
HETATM   28  C           1     -22.508  -6.771  -0.800  0.00  0.00     0.037 A 
HETATM   29  C           1     -22.603  -8.019  -0.185  0.00  0.00     0.065 A 
HETATM   30  C           1     -22.041  -9.142  -0.792  0.00  0.00     0.037 A 
HETATM   31  C           1     -21.384  -9.016  -2.016  0.00  0.00     0.010 A 
BRANCH  29  32
HETATM   32  O           1     -23.241  -8.141   1.005  0.00  0.00    -0.361 OA
HETATM   33  H           1     -24.041  -7.591   0.975  0.00  0.00     0.217 HD
ENDBRANCH  29  32
ENDBRANCH  25  26
ENDBRANCH  20  25
ENDBRANCH   4  20
TORSDOF 9
ENDMDL
MODEL 5
REMARK VINA RESULT:      -8.4      2.326      8.820
REMARK  9 active torsions:
REMARK  status: ('A' for Active; 'I' for Inactive)
REMARK    1  A    between atoms: O_3  and  C_27 
REMARK    2  A    between atoms: C_4  and  C_5 
REMARK    3  A    between atoms: C_5  and  C_23 
REMARK    4  A    between atoms: N_7  and  C_8 
REMARK    5  A    between atoms: C_8  and  C_32 
REMARK    6  A    between atoms: C_8  and  C_25 
REMARK    7  A    between atoms: C_10  and  C_25 
REMARK    8  A    between atoms: C_21  and  C_23 
REMARK    9  A    between atoms: C_23  and  N_26 
REMARK       I    between atoms: N_26  and  C_32 
ROOT
HETATM    1  H           1     -23.374  -6.040  -4.232  0.00  0.00     0.163 HD
HETATM    2  N           1     -22.417  -6.331  -4.390  0.00  0.00    -0.344 N 
HETATM    3  O           1     -20.910  -5.612  -2.907  0.00  0.00    -0.271 OA
HETATM    4  C           1     -21.577  -6.528  -3.326  0.00  0.00     0.249 C 
ENDROOT
BRANCH   2   5
HETATM    5  C           1     -21.936  -6.542  -5.741  0.00  0.00     0.190 C 
BRANCH   5   6
HETATM    6  C           1     -21.273  -5.268  -6.247  0.00  0.00     0.077 C 
BRANCH   6   7
HETATM    7  C           1     -22.077  -4.699  -7.375  0.00  0.00    -0.028 A 
HETATM    8  C           1     -23.401  -4.330  -7.320  0.00  0.00     0.096 A 
HETATM    9  N           1     -23.755  -3.859  -8.557  0.00  0.00    -0.365 N 
HETATM   10  H           1     -24.711  -3.504  -8.814  0.00  0.00     0.165 HD
HETATM   11  C           1     -22.680  -3.916  -9.415  0.00  0.00     0.042 A 
HETATM   12  C           1     -22.576  -3.545 -10.760  0.00  0.00     0.030 A 
HETATM   13  C           1     -21.608  -4.443  -8.693  0.00  0.00    -0.002 A 
HETATM   14  C           1     -21.336  -3.720 -11.384  0.00  0.00     0.002 A 
HETATM   15  C           1     -20.248  -4.243 -10.688  0.00  0.00     0.001 A 
HETATM   16  C           1     -20.371  -4.609  -9.343  0.00  0.00     0.014 A 
ENDBRANCH   6   7
ENDBRANCH   5   6
BRANCH   5  17
HETATM   17  C           1     -20.934  -7.669  -5.747  0.00  0.00     0.197 C 
HETATM   18  O           1     -21.328  -8.856  -5.744  0.00  0.00    -0.646 OA
HETATM   19  O           1     -19.709  -7.417  -5.757  0.00  0.00    -0.646 OA
ENDBRANCH   5  17
ENDBRANCH   2   5
BRANCH   4  20
HETATM   20  C           1     -21.487  -7.887  -2.677  0.00  0.00     0.278 C 
BRANCH  20  21
HETATM   21  N           1     -20.083  -8.404  -2.796  0.00  0.00    -0.066 N 
HETATM   22  H           1     -19.763  -8.315  -3.787  0.00  0.00     0.275 HD
HETATM   23  H           1     -19.454  -7.847  -2.175  0.00  0.00     0.275 HD
HETATM   24  H           1     -20.056  -9.409  -2.510  0.00  0.00     0.275 HD
ENDBRANCH  20  21
BRANCH  20  25
HETATM   25  C           1     -21.861  -7.773  -1.205  0.00  0.00     0.081 C 
BRANCH  25  26
HETATM   26  C           1     -21.897  -9.139  -0.592  0.00  0.00    -0.056 A 
HETATM   27  C           1     -20.918  -9.517   0.326  0.00  0.00     0.010 A 
HETATM   28  C           1     -20.952 -10.789   0.897  0.00  0.00     0.037 A 
HETATM   29  C           1     -21.965 -11.682   0.550  0.00  0.00     0.065 A 
HETATM   30  C           1     -22.945 -11.304  -0.368  0.00  0.00     0.037 A 
HETATM   31  C           1     -22.911 -10.031  -0.938  0.00  0.00     0.010 A 
BRANCH  29  32
HETATM   32  O           1     -21.999 -12.919   1.105  0.00  0.00    -0.361 OA
HETATM   33  H           1     -21.742 -13.561   0.423  0.00  0.00     0.217 HD
ENDBRANCH  29  32
ENDBRANCH  25  26
ENDBRANCH  20  25
ENDBRANCH   4  20
TORSDOF 9
ENDMDL
MODEL 6
REMARK VINA RESULT:      -8.3      1.653      2.280
REMARK  9 active torsions:
REMARK  status: ('A' for Active; 'I' for Inactive)
REMARK    1  A    between atoms: O_3  and  C_27 
REMARK    2  A    between atoms: C_4  and  C_5 
REMARK    3  A    between atoms: C_5  and  C_23 
REMARK    4  A    between atoms: N_7  and  C_8 
REMARK    5  A    between atoms: C_8  and  C_32 
REMARK    6  A    between atoms: C_8  and  C_25 
REMARK    7  A    between atoms: C_10  and  C_25 
REMARK    8  A    between atoms: C_21  and  C_23 
REMARK    9  A    between atoms: C_23  and  N_26 
REMARK       I    between atoms: N_26  and  C_32 
ROOT
HETATM    1  H           1     -21.463  -8.967  -3.895  0.00  0.00     0.163 HD
HETATM    2  N           1     -20.811  -8.423  -4.446  0.00  0.00    -0.344 N 
HETATM    3  O           1     -21.478  -7.874  -6.505  0.00  0.00    -0.271 OA
HETATM    4  C           1     -21.277  -7.523  -5.366  0.00  0.00     0.249 C 
ENDROOT
BRANCH   2   5
HETATM    5  C           1     -19.384  -8.596  -4.259  0.00  0.00     0.190 C 
BRANCH   5   6
HETATM    6  C           1     -19.114  -9.092  -2.845  0.00  0.00     0.077 C 
BRANCH   6   7
HETATM    7  C           1     -20.346  -9.743  -2.299  0.00  0.00    -0.028 A 
HETATM    8  C           1     -20.812 -10.997  -2.624  0.00  0.00     0.096 A 
HETATM    9  N           1     -21.960 -11.215  -1.909  0.00  0.00    -0.365 N 
HETATM   10  H           1     -22.539 -12.090  -1.954  0.00  0.00     0.165 HD
HETATM   11  C           1     -22.248 -10.121  -1.123  0.00  0.00     0.042 A 
HETATM   12  C           1     -23.308  -9.897  -0.238  0.00  0.00     0.030 A 
HETATM   13  C           1     -21.244  -9.179  -1.351  0.00  0.00    -0.002 A 
HETATM   14  C           1     -23.340  -8.670   0.433  0.00  0.00     0.002 A 
HETATM   15  C           1     -22.351  -7.711   0.226  0.00  0.00     0.001 A 
HETATM   16  C           1     -21.298  -7.952  -0.663  0.00  0.00     0.014 A 
ENDBRANCH   6   7
ENDBRANCH   5   6
BRANCH   5  17
HETATM   17  C           1     -18.866  -9.604  -5.254  0.00  0.00     0.197 C 
HETATM   18  O           1     -19.653 -10.412  -5.792  0.00  0.00    -0.646 OA
HETATM   19  O           1     -17.650  -9.630  -5.543  0.00  0.00    -0.646 OA
ENDBRANCH   5  17
ENDBRANCH   2   5
BRANCH   4  20
HETATM   20  C           1     -21.541  -6.094  -4.958  0.00  0.00     0.278 C 
BRANCH  20  21
HETATM   21  N           1     -21.553  -5.998  -3.461  0.00  0.00    -0.066 N 
HETATM   22  H           1     -22.177  -5.211  -3.168  0.00  0.00     0.275 HD
HETATM   23  H           1     -21.909  -6.894  -3.058  0.00  0.00     0.275 HD
HETATM   24  H           1     -20.583  -5.820  -3.115  0.00  0.00     0.275 HD
ENDBRANCH  20  21
BRANCH  20  25
HETATM   25  C           1     -20.444  -5.196  -5.515  0.00  0.00     0.081 C 
BRANCH  25  26
HETATM   26  C           1     -20.813  -4.757  -6.899  0.00  0.00    -0.056 A 
HETATM   27  C           1     -22.122  -4.365  -7.180  0.00  0.00     0.010 A 
HETATM   28  C           1     -22.465  -3.957  -8.469  0.00  0.00     0.037 A 
HETATM   29  C           1     -21.500  -3.940  -9.475  0.00  0.00     0.065 A 
HETATM   30  C           1     -20.191  -4.332  -9.194  0.00  0.00     0.037 A 
HETATM   31  C           1     -19.848  -4.740  -7.905  0.00  0.00     0.010 A 
BRANCH  29  32
HETATM   32  O           1     -21.833  -3.544 -10.728  0.00  0.00    -0.361 OA
HETATM   33  H           1     -21.019  -3.501 -11.256  0.00  0.00     0.217 HD
ENDBRANCH  29  32
ENDBRANCH  25  26
ENDBRANCH  20  25
ENDBRANCH   4  20
TORSDOF 9
ENDMDL
MODEL 7
REMARK VINA RESULT:      -8.3      2.617      4.259
REMARK  9 active torsions:
REMARK  status: ('A' for Active; 'I' for Inactive)
REMARK    1  A    between atoms: O_3  and  C_27 
REMARK    2  A    between atoms: C_4  and  C_5 
REMARK    3  A    between atoms: C_5  and  C_23 
REMARK    4  A    between atoms: N_7  and  C_8 
REMARK    5  A    between atoms: C_8  and  C_32 
REMARK    6  A    between atoms: C_8  and  C_25 
REMARK    7  A    between atoms: C_10  and  C_25 
REMARK    8  A    between atoms: C_21  and  C_23 
REMARK    9  A    between atoms: C_23  and  N_26 
REMARK       I    between atoms: N_26  and  C_32 
ROOT
HETATM    1  H           1     -21.182  -5.549  -2.420  0.00  0.00     0.163 HD
HETATM    2  N           1     -21.337  -6.377  -2.982  0.00  0.00    -0.344 N 
HETATM    3  O           1     -22.784  -6.165  -4.670  0.00  0.00    -0.271 OA
HETATM    4  C           1     -21.633  -6.254  -4.313  0.00  0.00     0.249 C 
ENDROOT
BRANCH   2   5
HETATM    5  C           1     -21.245  -7.691  -2.378  0.00  0.00     0.190 C 
BRANCH   5   6
HETATM    6  C           1     -19.780  -8.073  -2.215  0.00  0.00     0.077 C 
BRANCH   6   7
HETATM    7  C           1     -19.416  -9.108  -3.234  0.00  0.00    -0.028 A 
HETATM    8  C           1     -20.275  -9.699  -4.132  0.00  0.00     0.096 A 
HETATM    9  N           1     -19.549 -10.585  -4.883  0.00  0.00    -0.365 N 
HETATM   10  H           1     -19.943 -11.185  -5.651  0.00  0.00     0.165 HD
HETATM   11  C           1     -18.231 -10.579  -4.487  0.00  0.00     0.042 A 
HETATM   12  C           1     -17.139 -11.313  -4.965  0.00  0.00     0.030 A 
HETATM   13  C           1     -18.120  -9.654  -3.447  0.00  0.00    -0.002 A 
HETATM   14  C           1     -15.898 -11.092  -4.359  0.00  0.00     0.002 A 
HETATM   15  C           1     -15.758 -10.175  -3.320  0.00  0.00     0.001 A 
HETATM   16  C           1     -16.860  -9.450  -2.854  0.00  0.00     0.014 A 
ENDBRANCH   6   7
ENDBRANCH   5   6
BRANCH   5  17
HETATM   17  C           1     -21.914  -7.671  -1.026  0.00  0.00     0.197 C 
HETATM   18  O           1     -22.822  -6.843  -0.791  0.00  0.00    -0.646 OA
HETATM   19  O           1     -21.563  -8.481  -0.142  0.00  0.00    -0.646 OA
ENDBRANCH   5  17
ENDBRANCH   2   5
BRANCH   4  20
HETATM   20  C           1     -20.522  -6.229  -5.334  0.00  0.00     0.278 C 
BRANCH  20  21
HETATM   21  N           1     -20.959  -6.969  -6.565  0.00  0.00    -0.066 N 
HETATM   22  H           1     -20.801  -7.993  -6.429  0.00  0.00     0.275 HD
HETATM   23  H           1     -21.974  -6.791  -6.734  0.00  0.00     0.275 HD
HETATM   24  H           1     -20.405  -6.637  -7.386  0.00  0.00     0.275 HD
ENDBRANCH  20  21
BRANCH  20  25
HETATM   25  C           1     -20.200  -4.786  -5.699  0.00  0.00     0.081 C 
BRANCH  25  26
HETATM   26  C           1     -20.667  -4.507  -7.095  0.00  0.00    -0.056 A 
HETATM   27  C           1     -19.793  -4.678  -8.169  0.00  0.00     0.010 A 
HETATM   28  C           1     -20.228  -4.418  -9.469  0.00  0.00     0.037 A 
HETATM   29  C           1     -21.535  -3.989  -9.694  0.00  0.00     0.065 A 
HETATM   30  C           1     -22.409  -3.819  -8.620  0.00  0.00     0.037 A 
HETATM   31  C           1     -21.974  -4.079  -7.320  0.00  0.00     0.010 A 
BRANCH  29  32
HETATM   32  O           1     -21.958  -3.737 -10.957  0.00  0.00    -0.361 OA
HETATM   33  H           1     -21.728  -4.502 -11.509  0.00  0.00     0.217 HD
ENDBRANCH  29  32
ENDBRANCH  25  26
ENDBRANCH  20  25
ENDBRANCH   4  20
TORSDOF 9
ENDMDL
MODEL 8
REMARK VINA RESULT:      -7.9      4.984      7.115
REMARK  9 active torsions:
REMARK  status: ('A' for Active; 'I' for Inactive)
REMARK    1  A    between atoms: O_3  and  C_27 
REMARK    2  A    between atoms: C_4  and  C_5 
REMARK    3  A    between atoms: C_5  and  C_23 
REMARK    4  A    between atoms: N_7  and  C_8 
REMARK    5  A    between atoms: C_8  and  C_32 
REMARK    6  A    between atoms: C_8  and  C_25 
REMARK    7  A    between atoms: C_10  and  C_25 
REMARK    8  A    between atoms: C_21  and  C_23 
REMARK    9  A    between atoms: C_23  and  N_26 
REMARK       I    between atoms: N_26  and  C_32 
ROOT
HETATM    1  H           1     -17.841 -11.914  -4.353  0.00  0.00     0.163 HD
HETATM    2  N           1     -18.292 -11.049  -4.624  0.00  0.00    -0.344 N 
HETATM    3  O           1     -18.767 -10.822  -6.795  0.00  0.00    -0.271 OA
HETATM    4  C           1     -19.169 -11.034  -5.675  0.00  0.00     0.249 C 
ENDROOT
BRANCH   2   5
HETATM    5  C           1     -18.010  -9.826  -3.899  0.00  0.00     0.190 C 
BRANCH   5   6
HETATM    6  C           1     -18.658  -9.892  -2.522  0.00  0.00     0.077 C 
BRANCH   6   7
HETATM    7  C           1     -19.802  -8.929  -2.460  0.00  0.00    -0.028 A 
HETATM    8  C           1     -20.258  -8.144  -3.495  0.00  0.00     0.096 A 
HETATM    9  N           1     -21.315  -7.409  -3.028  0.00  0.00    -0.365 N 
HETATM   10  H           1     -21.865  -6.719  -3.597  0.00  0.00     0.165 HD
HETATM   11  C           1     -21.553  -7.705  -1.704  0.00  0.00     0.042 A 
HETATM   12  C           1     -22.521  -7.203  -0.826  0.00  0.00     0.030 A 
HETATM   13  C           1     -20.611  -8.661  -1.322  0.00  0.00    -0.002 A 
HETATM   14  C           1     -22.522  -7.697   0.483  0.00  0.00     0.002 A 
HETATM   15  C           1     -21.595  -8.653   0.892  0.00  0.00     0.001 A 
HETATM   16  C           1     -20.634  -9.143   0.000  0.00  0.00     0.014 A 
ENDBRANCH   6   7
ENDBRANCH   5   6
BRANCH   5  17
HETATM   17  C           1     -16.518  -9.665  -3.746  0.00  0.00     0.197 C 
HETATM   18  O           1     -15.775  -9.750  -4.748  0.00  0.00    -0.646 OA
HETATM   19  O           1     -16.024  -9.446  -2.619  0.00  0.00    -0.646 OA
ENDBRANCH   5  17
ENDBRANCH   2   5
BRANCH   4  20
HETATM   20  C           1     -20.638 -11.286  -5.436  0.00  0.00     0.278 C 
BRANCH  20  21
HETATM   21  N           1     -21.325 -11.513  -6.750  0.00  0.00    -0.066 N 
HETATM   22  H           1     -20.755 -11.093  -7.519  0.00  0.00     0.275 HD
HETATM   23  H           1     -21.428 -12.540  -6.915  0.00  0.00     0.275 HD
HETATM   24  H           1     -22.269 -11.066  -6.733  0.00  0.00     0.275 HD
ENDBRANCH  20  21
BRANCH  20  25
HETATM   25  C           1     -20.806 -12.518  -4.557  0.00  0.00     0.081 C 
BRANCH  25  26
HETATM   26  C           1     -21.611 -12.160  -3.345  0.00  0.00    -0.056 A 
HETATM   27  C           1     -21.342 -12.777  -2.123  0.00  0.00     0.010 A 
HETATM   28  C           1     -22.093 -12.444  -0.995  0.00  0.00     0.037 A 
HETATM   29  C           1     -23.110 -11.496  -1.090  0.00  0.00     0.065 A 
HETATM   30  C           1     -23.379 -10.879  -2.312  0.00  0.00     0.037 A 
HETATM   31  C           1     -22.628 -11.212  -3.440  0.00  0.00     0.010 A 
BRANCH  29  32
HETATM   32  O           1     -23.839 -11.172   0.006  0.00  0.00    -0.361 OA
HETATM   33  H           1     -24.408 -11.929   0.223  0.00  0.00     0.217 HD
ENDBRANCH  29  32
ENDBRANCH  25  26
ENDBRANCH  20  25
ENDBRANCH   4  20
TORSDOF 9
ENDMDL
MODEL 9
REMARK VINA RESULT:      -7.6      3.434      7.666
REMARK  9 active torsions:
REMARK  status: ('A' for Active; 'I' for Inactive)
REMARK    1  A    between atoms: O_3  and  C_27 
REMARK    2  A    between atoms: C_4  and  C_5 
REMARK    3  A    between atoms: C_5  and  C_23 
REMARK    4  A    between atoms: N_7  and  C_8 
REMARK    5  A    between atoms: C_8  and  C_32 
REMARK    6  A    between atoms: C_8  and  C_25 
REMARK    7  A    between atoms: C_10  and  C_25 
REMARK    8  A    between atoms: C_21  and  C_23 
REMARK    9  A    between atoms: C_23  and  N_26 
REMARK       I    between atoms: N_26  and  C_32 
ROOT
HETATM    1  H           1     -19.147  -9.584  -5.678  0.00  0.00     0.163 HD
HETATM    2  N           1     -20.131  -9.459  -5.479  0.00  0.00    -0.344 N 
HETATM    3  O           1     -21.542 -10.759  -6.623  0.00  0.00    -0.271 OA
HETATM    4  C           1     -20.989 -10.522  -5.575  0.00  0.00     0.249 C 
ENDROOT
BRANCH   2   5
HETATM    5  C           1     -20.633  -8.156  -5.091  0.00  0.00     0.190 C 
BRANCH   5   6
HETATM    6  C           1     -19.927  -7.697  -3.822  0.00  0.00     0.077 C 
BRANCH   6   7
HETATM    7  C           1     -20.941  -7.229  -2.825  0.00  0.00    -0.028 A 
HETATM    8  C           1     -21.752  -6.124  -2.951  0.00  0.00     0.096 A 
HETATM    9  N           1     -22.532  -6.048  -1.828  0.00  0.00    -0.365 N 
HETATM   10  H           1     -23.250  -5.303  -1.645  0.00  0.00     0.165 HD
HETATM   11  C           1     -22.241  -7.087  -0.973  0.00  0.00     0.042 A 
HETATM   12  C           1     -22.782  -7.409   0.276  0.00  0.00     0.030 A 
HETATM   13  C           1     -21.240  -7.848  -1.580  0.00  0.00    -0.002 A 
HETATM   14  C           1     -22.282  -8.544   0.924  0.00  0.00     0.002 A 
HETATM   15  C           1     -21.284  -9.322   0.342  0.00  0.00     0.001 A 
HETATM   16  C           1     -20.754  -8.985  -0.908  0.00  0.00     0.014 A 
ENDBRANCH   6   7
ENDBRANCH   5   6
BRANCH   5  17
HETATM   17  C           1     -20.371  -7.166  -6.199  0.00  0.00     0.197 C 
HETATM   18  O           1     -21.263  -6.359  -6.540  0.00  0.00    -0.646 OA
HETATM   19  O           1     -19.262  -7.152  -6.775  0.00  0.00    -0.646 OA
ENDBRANCH   5  17
ENDBRANCH   2   5
BRANCH   4  20
HETATM   20  C           1     -21.243 -11.398  -4.372  0.00  0.00     0.278 C 
BRANCH  20  21
HETATM   21  N           1     -20.040 -11.374  -3.476  0.00  0.00    -0.066 N 
HETATM   22  H           1     -19.612 -10.421  -3.492  0.00  0.00     0.275 HD
HETATM   23  H           1     -20.329 -11.611  -2.500  0.00  0.00     0.275 HD
HETATM   24  H           1     -19.341 -12.075  -3.812  0.00  0.00     0.275 HD
ENDBRANCH  20  21
BRANCH  20  25
HETATM   25  C           1     -22.453 -10.875  -3.609  0.00  0.00     0.081 C 
BRANCH  25  26
HETATM   26  C           1     -22.896 -11.901  -2.612  0.00  0.00    -0.056 A 
HETATM   27  C           1     -22.735 -13.258  -2.890  0.00  0.00     0.010 A 
HETATM   28  C           1     -23.148 -14.213  -1.961  0.00  0.00     0.037 A 
HETATM   29  C           1     -23.721 -13.811  -0.755  0.00  0.00     0.065 A 
HETATM   30  C           1     -23.881 -12.454  -0.477  0.00  0.00     0.037 A 
HETATM   31  C           1     -23.468 -11.498  -1.406  0.00  0.00     0.010 A 
BRANCH  29  32
HETATM   32  O           1     -24.122 -14.739   0.148  0.00  0.00    -0.361 OA
HETATM   33  H           1     -25.033 -14.529   0.410  0.00  0.00     0.217 HD
ENDBRANCH  29  32
ENDBRANCH  25  26
ENDBRANCH  20  25
ENDBRANCH   4  20
TORSDOF 9
ENDMDL
