MODEL 1
REMARK VINA RESULT:      -6.2      0.000      0.000
REMARK  7 active torsions:
REMARK  status: ('A' for Active; 'I' for Inactive)
REMARK    1  A    between atoms: C_4  and  C_15 
REMARK    2  A    between atoms: N_7  and  C_20 
REMARK       I    between atoms: C_9  and  N_19 
REMARK    3  A    between atoms: C_9  and  C_20 
REMARK    4  A    between atoms: C_13  and  C_15 
REMARK    5  A    between atoms: C_15  and  N_19 
REMARK    6  A    between atoms: C_17  and  C_20 
REMARK    7  A    between atoms: C_17  and  C_18 
ROOT
HETATM    1  H           1     -22.092  -5.734  -8.970  0.00  0.00     0.163 HD
HETATM    2  O           1     -21.569  -3.203  -7.192  0.00  0.00    -0.271 OA
HETATM    3  C           1     -21.581  -4.372  -7.498  0.00  0.00     0.249 C 
HETATM    4  N           1     -22.081  -4.756  -8.714  0.00  0.00    -0.344 N 
ENDROOT
BRANCH   3   5
HETATM    5  C           1     -21.046  -5.408  -6.541  0.00  0.00     0.284 C 
BRANCH   5   6
HETATM    6  N           1     -20.061  -4.765  -5.609  0.00  0.00    -0.066 N 
HETATM    7  H           1     -19.130  -4.701  -6.078  0.00  0.00     0.275 HD
HETATM    8  H           1     -19.976  -5.340  -4.741  0.00  0.00     0.275 HD
HETATM    9  H           1     -20.393  -3.805  -5.361  0.00  0.00     0.275 HD
ENDBRANCH   5   6
BRANCH   5  10
HETATM   10  C           1     -22.195  -5.998  -5.735  0.00  0.00     0.155 C 
BRANCH  10  11
HETATM   11  C           1     -21.673  -6.519  -4.419  0.00  0.00     0.175 C 
HETATM   12  O           1     -20.860  -7.468  -4.401  0.00  0.00    -0.648 OA
HETATM   13  O           1     -22.055  -6.002  -3.346  0.00  0.00    -0.648 OA
ENDBRANCH  10  11
ENDBRANCH   5  10
ENDBRANCH   3   5
BRANCH   4  14
HETATM   14  C           1     -22.596  -3.760  -9.633  0.00  0.00     0.189 C 
BRANCH  14  15
HETATM   15  C           1     -24.100  -3.870  -9.701  0.00  0.00     0.197 C 
HETATM   16  O           1     -24.810  -2.867  -9.471  0.00  0.00    -0.646 OA
HETATM   17  O           1     -24.635  -4.962  -9.989  0.00  0.00    -0.646 OA
ENDBRANCH  14  15
BRANCH  14  18
HETATM   18  C           1     -22.007  -3.995 -11.018  0.00  0.00     0.010 C 
HETATM   19  C           1     -22.344  -2.815 -11.920  0.00  0.00     0.012 C 
HETATM   20  C           1     -20.493  -4.135 -10.907  0.00  0.00     0.012 C 
ENDBRANCH  14  18
ENDBRANCH   4  14
TORSDOF 7
ENDMDL
MODEL 2
REMARK VINA RESULT:      -5.9      2.321      6.252
REMARK  7 active torsions:
REMARK  status: ('A' for Active; 'I' for Inactive)
REMARK    1  A    between atoms: C_4  and  C_15 
REMARK    2  A    between atoms: N_7  and  C_20 
REMARK       I    between atoms: C_9  and  N_19 
REMARK    3  A    between atoms: C_9  and  C_20 
REMARK    4  A    between atoms: C_13  and  C_15 
REMARK    5  A    between atoms: C_15  and  N_19 
REMARK    6  A    between atoms: C_17  and  C_20 
REMARK    7  A    between atoms: C_17  and  C_18 
ROOT
HETATM    1  H           1     -20.490  -3.549  -9.645  0.00  0.00     0.163 HD
HETATM    2  O           1     -23.358  -4.657 -10.268  0.00  0.00    -0.271 OA
HETATM    3  C           1     -22.355  -4.002 -10.421  0.00  0.00     0.249 C 
HETATM    4  N           1     -21.330  -4.098  -9.517  0.00  0.00    -0.344 N 
ENDROOT
BRANCH   3   5
HETATM    5  C           1     -22.230  -3.079 -11.608  0.00  0.00     0.284 C 
BRANCH   5   6
HETATM    6  N           1     -21.545  -3.800 -12.732  0.00  0.00    -0.066 N 
HETATM    7  H           1     -21.905  -4.780 -12.786  0.00  0.00     0.275 HD
HETATM    8  H           1     -20.515  -3.817 -12.559  0.00  0.00     0.275 HD
HETATM    9  H           1     -21.740  -3.306 -13.632  0.00  0.00     0.275 HD
ENDBRANCH   5   6
BRANCH   5  10
HETATM   10  C           1     -23.617  -2.640 -12.059  0.00  0.00     0.155 C 
BRANCH  10  11
HETATM   11  C           1     -23.843  -3.072 -13.486  0.00  0.00     0.175 C 
HETATM   12  O           1     -24.352  -4.188 -13.729  0.00  0.00    -0.648 OA
HETATM   13  O           1     -23.521  -2.314 -14.428  0.00  0.00    -0.648 OA
ENDBRANCH  10  11
ENDBRANCH   5  10
ENDBRANCH   3   5
BRANCH   4  14
HETATM   14  C           1     -21.450  -4.985  -8.377  0.00  0.00     0.189 C 
BRANCH  14  15
HETATM   15  C           1     -22.068  -4.235  -7.221  0.00  0.00     0.197 C 
HETATM   16  O           1     -21.597  -3.132  -6.870  0.00  0.00    -0.646 OA
HETATM   17  O           1     -23.050  -4.717  -6.617  0.00  0.00    -0.646 OA
ENDBRANCH  14  15
BRANCH  14  18
HETATM   18  C           1     -20.070  -5.487  -7.977  0.00  0.00     0.010 C 
HETATM   19  C           1     -19.112  -4.307  -7.871  0.00  0.00     0.012 C 
HETATM   20  C           1     -20.158  -6.194  -6.630  0.00  0.00     0.012 C 
ENDBRANCH  14  18
ENDBRANCH   4  14
TORSDOF 7
ENDMDL
MODEL 3
REMARK VINA RESULT:      -5.3     10.676     13.076
REMARK  7 active torsions:
REMARK  status: ('A' for Active; 'I' for Inactive)
REMARK    1  A    between atoms: C_4  and  C_15 
REMARK    2  A    between atoms: N_7  and  C_20 
REMARK       I    between atoms: C_9  and  N_19 
REMARK    3  A    between atoms: C_9  and  C_20 
REMARK    4  A    between atoms: C_13  and  C_15 
REMARK    5  A    between atoms: C_15  and  N_19 
REMARK    6  A    between atoms: C_17  and  C_20 
REMARK    7  A    between atoms: C_17  and  C_18 
ROOT
HETATM    1  H           1     -27.054  -7.653 -17.433  0.00  0.00     0.163 HD
HETATM    2  O           1     -27.882  -5.294 -19.329  0.00  0.00    -0.271 OA
HETATM    3  C           1     -27.207  -6.199 -18.899  0.00  0.00     0.249 C 
HETATM    4  N           1     -27.619  -6.895 -17.793  0.00  0.00    -0.344 N 
ENDROOT
BRANCH   3   5
HETATM    5  C           1     -25.910  -6.563 -19.579  0.00  0.00     0.284 C 
BRANCH   5   6
HETATM    6  N           1     -24.926  -7.045 -18.553  0.00  0.00    -0.066 N 
HETATM    7  H           1     -25.115  -6.571 -17.641  0.00  0.00     0.275 HD
HETATM    8  H           1     -23.956  -6.820 -18.868  0.00  0.00     0.275 HD
HETATM    9  H           1     -25.025  -8.079 -18.437  0.00  0.00     0.275 HD
ENDBRANCH   5   6
BRANCH   5  10
HETATM   10  C           1     -26.162  -7.667 -20.597  0.00  0.00     0.155 C 
BRANCH  10  11
HETATM   11  C           1     -24.886  -7.965 -21.344  0.00  0.00     0.175 C 
HETATM   12  O           1     -24.870  -7.936 -22.593  0.00  0.00    -0.648 OA
HETATM   13  O           1     -23.842  -8.242 -20.712  0.00  0.00    -0.648 OA
ENDBRANCH  10  11
ENDBRANCH   5  10
ENDBRANCH   3   5
BRANCH   4  14
HETATM   14  C           1     -28.865  -6.546 -17.140  0.00  0.00     0.189 C 
BRANCH  14  15
HETATM   15  C           1     -28.656  -6.513 -15.645  0.00  0.00     0.197 C 
HETATM   16  O           1     -29.136  -5.578 -14.968  0.00  0.00    -0.646 OA
HETATM   17  O           1     -28.003  -7.420 -15.085  0.00  0.00    -0.646 OA
ENDBRANCH  14  15
BRANCH  14  18
HETATM   18  C           1     -29.925  -7.584 -17.481  0.00  0.00     0.010 C 
HETATM   19  C           1     -31.302  -6.935 -17.439  0.00  0.00     0.012 C 
HETATM   20  C           1     -29.664  -8.134 -18.878  0.00  0.00     0.012 C 
ENDBRANCH  14  18
ENDBRANCH   4  14
TORSDOF 7
ENDMDL
MODEL 4
REMARK VINA RESULT:      -5.2      4.137      8.038
REMARK  7 active torsions:
REMARK  status: ('A' for Active; 'I' for Inactive)
REMARK    1  A    between atoms: C_4  and  C_15 
REMARK    2  A    between atoms: N_7  and  C_20 
REMARK       I    between atoms: C_9  and  N_19 
REMARK    3  A    between atoms: C_9  and  C_20 
REMARK    4  A    between atoms: C_13  and  C_15 
REMARK    5  A    between atoms: C_15  and  N_19 
REMARK    6  A    between atoms: C_17  and  C_20 
REMARK    7  A    between atoms: C_17  and  C_18 
ROOT
HETATM    1  H           1     -22.330  -7.946  -3.305  0.00  0.00     0.163 HD
HETATM    2  O           1     -19.337  -8.864  -3.107  0.00  0.00    -0.271 OA
HETATM    3  C           1     -20.320  -8.350  -3.587  0.00  0.00     0.249 C 
HETATM    4  N           1     -21.507  -8.375  -2.904  0.00  0.00    -0.344 N 
ENDROOT
BRANCH   3   5
HETATM    5  C           1     -20.240  -7.681  -4.937  0.00  0.00     0.284 C 
BRANCH   5   6
HETATM    6  N           1     -21.200  -8.345  -5.880  0.00  0.00    -0.066 N 
HETATM    7  H           1     -21.973  -7.681  -6.114  0.00  0.00     0.275 HD
HETATM    8  H           1     -21.599  -9.198  -5.428  0.00  0.00     0.275 HD
HETATM    9  H           1     -20.697  -8.616  -6.755  0.00  0.00     0.275 HD
ENDBRANCH   5   6
BRANCH   5  10
HETATM   10  C           1     -20.604  -6.209  -4.797  0.00  0.00     0.155 C 
BRANCH  10  11
HETATM   11  C           1     -21.933  -5.953  -5.462  0.00  0.00     0.175 C 
HETATM   12  O           1     -21.978  -5.384  -6.574  0.00  0.00    -0.648 OA
HETATM   13  O           1     -22.992  -6.308  -4.899  0.00  0.00    -0.648 OA
ENDBRANCH  10  11
ENDBRANCH   5  10
ENDBRANCH   3   5
BRANCH   4  14
HETATM   14  C           1     -21.584  -9.018  -1.607  0.00  0.00     0.189 C 
BRANCH  14  15
HETATM   15  C           1     -22.314 -10.332  -1.740  0.00  0.00     0.197 C 
HETATM   16  O           1     -21.840 -11.240  -2.456  0.00  0.00    -0.646 OA
HETATM   17  O           1     -23.393 -10.512  -1.134  0.00  0.00    -0.646 OA
ENDBRANCH  14  15
BRANCH  14  18
HETATM   18  C           1     -22.335  -8.115  -0.637  0.00  0.00     0.010 C 
HETATM   19  C           1     -21.656  -8.159   0.726  0.00  0.00     0.012 C 
HETATM   20  C           1     -22.325  -6.686  -1.165  0.00  0.00     0.012 C 
ENDBRANCH  14  18
ENDBRANCH   4  14
TORSDOF 7
ENDMDL
MODEL 5
REMARK VINA RESULT:      -5.1      2.270      6.587
REMARK  7 active torsions:
REMARK  status: ('A' for Active; 'I' for Inactive)
REMARK    1  A    between atoms: C_4  and  C_15 
REMARK    2  A    between atoms: N_7  and  C_20 
REMARK       I    between atoms: C_9  and  N_19 
REMARK    3  A    between atoms: C_9  and  C_20 
REMARK    4  A    between atoms: C_13  and  C_15 
REMARK    5  A    between atoms: C_15  and  N_19 
REMARK    6  A    between atoms: C_17  and  C_20 
REMARK    7  A    between atoms: C_17  and  C_18 
ROOT
HETATM    1  H           1     -19.758  -6.940  -4.783  0.00  0.00     0.163 HD
HETATM    2  O           1     -22.538  -5.727  -5.582  0.00  0.00    -0.271 OA
HETATM    3  C           1     -21.341  -5.887  -5.601  0.00  0.00     0.249 C 
HETATM    4  N           1     -20.760  -6.806  -4.767  0.00  0.00    -0.344 N 
ENDROOT
BRANCH   3   5
HETATM    5  C           1     -20.485  -5.077  -6.543  0.00  0.00     0.284 C 
BRANCH   5   6
HETATM    6  N           1     -19.909  -5.979  -7.595  0.00  0.00    -0.066 N 
HETATM    7  H           1     -18.887  -6.109  -7.419  0.00  0.00     0.275 HD
HETATM    8  H           1     -20.048  -5.549  -8.537  0.00  0.00     0.275 HD
HETATM    9  H           1     -20.390  -6.906  -7.559  0.00  0.00     0.275 HD
ENDBRANCH   5   6
BRANCH   5  10
HETATM   10  C           1     -21.338  -4.004  -7.208  0.00  0.00     0.155 C 
BRANCH  10  11
HETATM   11  C           1     -21.444  -4.288  -8.686  0.00  0.00     0.175 C 
HETATM   12  O           1     -22.434  -4.904  -9.135  0.00  0.00    -0.648 OA
HETATM   13  O           1     -20.539  -3.909  -9.462  0.00  0.00    -0.648 OA
ENDBRANCH  10  11
ENDBRANCH   5  10
ENDBRANCH   3   5
BRANCH   4  14
HETATM   14  C           1     -21.582  -7.584  -3.861  0.00  0.00     0.189 C 
BRANCH  14  15
HETATM   15  C           1     -21.577  -6.938  -2.498  0.00  0.00     0.197 C 
HETATM   16  O           1     -20.743  -7.297  -1.639  0.00  0.00    -0.646 OA
HETATM   17  O           1     -22.407  -6.043  -2.227  0.00  0.00    -0.646 OA
ENDBRANCH  14  15
BRANCH  14  18
HETATM   18  C           1     -21.023  -8.996  -3.756  0.00  0.00     0.010 C 
HETATM   19  C           1     -22.135  -9.954  -3.348  0.00  0.00     0.012 C 
HETATM   20  C           1     -20.457  -9.419  -5.106  0.00  0.00     0.012 C 
ENDBRANCH  14  18
ENDBRANCH   4  14
TORSDOF 7
ENDMDL
MODEL 6
REMARK VINA RESULT:      -5.0      4.426      8.921
REMARK  7 active torsions:
REMARK  status: ('A' for Active; 'I' for Inactive)
REMARK    1  A    between atoms: C_4  and  C_15 
REMARK    2  A    between atoms: N_7  and  C_20 
REMARK       I    between atoms: C_9  and  N_19 
REMARK    3  A    between atoms: C_9  and  C_20 
REMARK    4  A    between atoms: C_13  and  C_15 
REMARK    5  A    between atoms: C_15  and  N_19 
REMARK    6  A    between atoms: C_17  and  C_20 
REMARK    7  A    between atoms: C_17  and  C_18 
ROOT
HETATM    1  H           1     -21.074  -9.816  -2.346  0.00  0.00     0.163 HD
HETATM    2  O           1     -22.230  -6.962  -1.746  0.00  0.00    -0.271 OA
HETATM    3  C           1     -21.615  -7.818  -2.336  0.00  0.00     0.249 C 
HETATM    4  N           1     -21.589  -9.099  -1.852  0.00  0.00    -0.344 N 
ENDROOT
BRANCH   3   5
HETATM    5  C           1     -20.876  -7.476  -3.606  0.00  0.00     0.284 C 
BRANCH   5   6
HETATM    6  N           1     -21.303  -8.411  -4.699  0.00  0.00    -0.066 N 
HETATM    7  H           1     -21.607  -9.318  -4.281  0.00  0.00     0.275 HD
HETATM    8  H           1     -20.501  -8.578  -5.348  0.00  0.00     0.275 HD
HETATM    9  H           1     -22.098  -7.986  -5.229  0.00  0.00     0.275 HD
ENDBRANCH   5   6
BRANCH   5  10
HETATM   10  C           1     -21.196  -6.043  -4.011  0.00  0.00     0.155 C 
BRANCH  10  11
HETATM   11  C           1     -22.026  -6.049  -5.271  0.00  0.00     0.175 C 
HETATM   12  O           1     -21.468  -5.983  -6.387  0.00  0.00    -0.648 OA
HETATM   13  O           1     -23.272  -6.119  -5.198  0.00  0.00    -0.648 OA
ENDBRANCH  10  11
ENDBRANCH   5  10
ENDBRANCH   3   5
BRANCH   4  14
HETATM   14  C           1     -22.299  -9.428  -0.632  0.00  0.00     0.189 C 
BRANCH  14  15
HETATM   15  C           1     -21.341  -9.387   0.533  0.00  0.00     0.197 C 
HETATM   16  O           1     -20.625 -10.380   0.788  0.00  0.00    -0.646 OA
HETATM   17  O           1     -21.262  -8.361   1.242  0.00  0.00    -0.646 OA
ENDBRANCH  14  15
BRANCH  14  18
HETATM   18  C           1     -22.894 -10.824  -0.752  0.00  0.00     0.010 C 
HETATM   19  C           1     -24.215 -10.880   0.005  0.00  0.00     0.012 C 
HETATM   20  C           1     -23.136 -11.148  -2.221  0.00  0.00     0.012 C 
ENDBRANCH  14  18
ENDBRANCH   4  14
TORSDOF 7
ENDMDL
MODEL 7
REMARK VINA RESULT:      -4.9      5.176      8.710
REMARK  7 active torsions:
REMARK  status: ('A' for Active; 'I' for Inactive)
REMARK    1  A    between atoms: C_4  and  C_15 
REMARK    2  A    between atoms: N_7  and  C_20 
REMARK       I    between atoms: C_9  and  N_19 
REMARK    3  A    between atoms: C_9  and  C_20 
REMARK    4  A    between atoms: C_13  and  C_15 
REMARK    5  A    between atoms: C_15  and  N_19 
REMARK    6  A    between atoms: C_17  and  C_20 
REMARK    7  A    between atoms: C_17  and  C_18 
ROOT
HETATM    1  H           1     -22.423  -8.871  -2.871  0.00  0.00     0.163 HD
HETATM    2  O           1     -19.761 -10.288  -2.009  0.00  0.00    -0.271 OA
HETATM    3  C           1     -20.547  -9.735  -2.741  0.00  0.00     0.249 C 
HETATM    4  N           1     -21.765  -9.334  -2.258  0.00  0.00    -0.344 N 
ENDROOT
BRANCH   3   5
HETATM    5  C           1     -20.189  -9.488  -4.185  0.00  0.00     0.284 C 
BRANCH   5   6
HETATM    6  N           1     -21.268 -10.041  -5.069  0.00  0.00    -0.066 N 
HETATM    7  H           1     -21.934 -10.603  -4.494  0.00  0.00     0.275 HD
HETATM    8  H           1     -20.840 -10.651  -5.802  0.00  0.00     0.275 HD
HETATM    9  H           1     -21.781  -9.253  -5.526  0.00  0.00     0.275 HD
ENDBRANCH   5   6
BRANCH   5  10
HETATM   10  C           1     -20.055  -7.990  -4.426  0.00  0.00     0.155 C 
BRANCH  10  11
HETATM   11  C           1     -21.198  -7.514  -5.288  0.00  0.00     0.175 C 
HETATM   12  O           1     -21.030  -7.351  -6.516  0.00  0.00    -0.648 OA
HETATM   13  O           1     -22.314  -7.281  -4.773  0.00  0.00    -0.648 OA
ENDBRANCH  10  11
ENDBRANCH   5  10
ENDBRANCH   3   5
BRANCH   4  14
HETATM   14  C           1     -22.109  -9.572  -0.870  0.00  0.00     0.189 C 
BRANCH  14  15
HETATM   15  C           1     -23.249 -10.559  -0.798  0.00  0.00     0.197 C 
HETATM   16  O           1     -23.263 -11.553  -1.555  0.00  0.00    -0.646 OA
HETATM   17  O           1     -24.178 -10.382   0.019  0.00  0.00    -0.646 OA
ENDBRANCH  14  15
BRANCH  14  18
HETATM   18  C           1     -22.530  -8.261  -0.220  0.00  0.00     0.010 C 
HETATM   19  C           1     -21.788  -8.087   1.098  0.00  0.00     0.012 C 
HETATM   20  C           1     -22.192  -7.103  -1.151  0.00  0.00     0.012 C 
ENDBRANCH  14  18
ENDBRANCH   4  14
TORSDOF 7
ENDMDL
MODEL 8
REMARK VINA RESULT:      -4.8      2.156      6.311
REMARK  7 active torsions:
REMARK  status: ('A' for Active; 'I' for Inactive)
REMARK    1  A    between atoms: C_4  and  C_15 
REMARK    2  A    between atoms: N_7  and  C_20 
REMARK       I    between atoms: C_9  and  N_19 
REMARK    3  A    between atoms: C_9  and  C_20 
REMARK    4  A    between atoms: C_13  and  C_15 
REMARK    5  A    between atoms: C_15  and  N_19 
REMARK    6  A    between atoms: C_17  and  C_20 
REMARK    7  A    between atoms: C_17  and  C_18 
ROOT
HETATM    1  H           1     -22.588  -5.778  -5.366  0.00  0.00     0.163 HD
HETATM    2  O           1     -19.635  -4.889  -5.940  0.00  0.00    -0.271 OA
HETATM    3  C           1     -20.840  -4.895  -6.034  0.00  0.00     0.249 C 
HETATM    4  N           1     -21.580  -5.773  -5.287  0.00  0.00    -0.344 N 
ENDROOT
BRANCH   3   5
HETATM    5  C           1     -21.529  -3.936  -6.974  0.00  0.00     0.284 C 
BRANCH   5   6
HETATM    6  N           1     -20.691  -3.756  -8.205  0.00  0.00    -0.066 N 
HETATM    7  H           1     -19.728  -3.458  -7.930  0.00  0.00     0.275 HD
HETATM    8  H           1     -21.120  -3.024  -8.815  0.00  0.00     0.275 HD
HETATM    9  H           1     -20.641  -4.660  -8.727  0.00  0.00     0.275 HD
ENDBRANCH   5   6
BRANCH   5  10
HETATM   10  C           1     -22.890  -4.497  -7.365  0.00  0.00     0.155 C 
BRANCH  10  11
HETATM   11  C           1     -23.144  -4.230  -8.827  0.00  0.00     0.175 C 
HETATM   12  O           1     -23.790  -3.218  -9.176  0.00  0.00    -0.648 OA
HETATM   13  O           1     -22.708  -5.022  -9.692  0.00  0.00    -0.648 OA
ENDBRANCH  10  11
ENDBRANCH   5  10
ENDBRANCH   3   5
BRANCH   4  14
HETATM   14  C           1     -20.918  -6.694  -4.385  0.00  0.00     0.189 C 
BRANCH  14  15
HETATM   15  C           1     -20.461  -7.910  -5.154  0.00  0.00     0.197 C 
HETATM   16  O           1     -21.242  -8.473  -5.951  0.00  0.00    -0.646 OA
HETATM   17  O           1     -19.304  -8.352  -4.995  0.00  0.00    -0.646 OA
ENDBRANCH  14  15
BRANCH  14  18
HETATM   18  C           1     -21.889  -7.119  -3.292  0.00  0.00     0.010 C 
HETATM   19  C           1     -21.352  -8.359  -2.590  0.00  0.00     0.012 C 
HETATM   20  C           1     -22.043  -5.989  -2.282  0.00  0.00     0.012 C 
ENDBRANCH  14  18
ENDBRANCH   4  14
TORSDOF 7
ENDMDL
MODEL 9
REMARK VINA RESULT:      -4.6      6.985      9.107
REMARK  7 active torsions:
REMARK  status: ('A' for Active; 'I' for Inactive)
REMARK    1  A    between atoms: C_4  and  C_15 
REMARK    2  A    between atoms: N_7  and  C_20 
REMARK       I    between atoms: C_9  and  N_19 
REMARK    3  A    between atoms: C_9  and  C_20 
REMARK    4  A    between atoms: C_13  and  C_15 
REMARK    5  A    between atoms: C_15  and  N_19 
REMARK    6  A    between atoms: C_17  and  C_20 
REMARK    7  A    between atoms: C_17  and  C_18 
ROOT
HETATM    1  H           1     -20.288  -9.664  -0.782  0.00  0.00     0.163 HD
HETATM    2  O           1     -21.623  -8.966  -3.534  0.00  0.00    -0.271 OA
HETATM    3  C           1     -20.747  -9.281  -2.763  0.00  0.00     0.249 C 
HETATM    4  N           1     -21.021  -9.401  -1.427  0.00  0.00    -0.344 N 
ENDROOT
BRANCH   3   5
HETATM    5  C           1     -19.351  -9.542  -3.273  0.00  0.00     0.284 C 
BRANCH   5   6
HETATM    6  N           1     -19.125 -11.022  -3.373  0.00  0.00    -0.066 N 
HETATM    7  H           1     -18.108 -11.209  -3.528  0.00  0.00     0.275 HD
HETATM    8  H           1     -19.675 -11.405  -4.175  0.00  0.00     0.275 HD
HETATM    9  H           1     -19.433 -11.481  -2.486  0.00  0.00     0.275 HD
ENDBRANCH   5   6
BRANCH   5  10
HETATM   10  C           1     -19.186  -8.910  -4.649  0.00  0.00     0.155 C 
BRANCH  10  11
HETATM   11  C           1     -18.294  -9.780  -5.500  0.00  0.00     0.175 C 
HETATM   12  O           1     -17.060  -9.796  -5.300  0.00  0.00    -0.648 OA
HETATM   13  O           1     -18.790 -10.485  -6.406  0.00  0.00    -0.648 OA
ENDBRANCH  10  11
ENDBRANCH   5  10
ENDBRANCH   3   5
BRANCH   4  14
HETATM   14  C           1     -22.362  -9.149  -0.937  0.00  0.00     0.189 C 
BRANCH  14  15
HETATM   15  C           1     -22.394  -7.824  -0.216  0.00  0.00     0.197 C 
HETATM   16  O           1     -22.700  -6.783  -0.837  0.00  0.00    -0.646 OA
HETATM   17  O           1     -22.114  -7.766   1.000  0.00  0.00    -0.646 OA
ENDBRANCH  14  15
BRANCH  14  18
HETATM   18  C           1     -22.767 -10.259   0.024  0.00  0.00     0.010 C 
HETATM   19  C           1     -23.901 -11.072  -0.589  0.00  0.00     0.012 C 
HETATM   20  C           1     -21.572 -11.168   0.282  0.00  0.00     0.012 C 
ENDBRANCH  14  18
ENDBRANCH   4  14
TORSDOF 7
ENDMDL
