MODEL 1
REMARK VINA RESULT:      -8.6      0.000      0.000
REMARK  10 active torsions:
REMARK  status: ('A' for Active; 'I' for Inactive)
REMARK    1  A    between atoms: C_2  and  C_12 
REMARK    2  A    between atoms: C_4  and  C_10 
REMARK    3  A    between atoms: C_4  and  C_24 
REMARK    4  A    between atoms: C_4  and  N_9 
REMARK       I    between atoms: N_9  and  C_21 
REMARK    5  A    between atoms: C_10  and  C_29 
REMARK    6  A    between atoms: C_12  and  C_13 
REMARK    7  A    between atoms: C_13  and  C_21 
REMARK    8  A    between atoms: C_13  and  N_19 
REMARK    9  A    between atoms: O_14  and  C_15 
REMARK   10  A    between atoms: O_26  and  C_30 
ROOT
HETATM    1  N           1     -21.414  -6.565  -6.141  0.00  0.00    -0.344 N 
HETATM    2  H           1     -22.355  -6.498  -5.776  0.00  0.00     0.163 HD
HETATM    3  O           1     -19.499  -7.711  -6.240  0.00  0.00    -0.271 OA
HETATM    4  C           1     -20.623  -7.630  -5.803  0.00  0.00     0.249 C 
ENDROOT
BRANCH   4   5
HETATM    5  C           1     -21.154  -8.703  -4.883  0.00  0.00     0.278 C 
BRANCH   5   6
HETATM    6  C           1     -20.312  -8.748  -3.616  0.00  0.00     0.081 C 
BRANCH   6   7
HETATM    7  C           1     -21.183  -8.491  -2.427  0.00  0.00    -0.056 A 
HETATM    8  C           1     -21.524  -7.183  -2.081  0.00  0.00     0.010 A 
HETATM    9  C           1     -22.335  -6.944  -0.972  0.00  0.00     0.037 A 
HETATM   10  C           1     -22.808  -8.013  -0.209  0.00  0.00     0.065 A 
HETATM   11  C           1     -22.466  -9.321  -0.555  0.00  0.00     0.037 A 
HETATM   12  C           1     -21.655  -9.560  -1.664  0.00  0.00     0.010 A 
BRANCH  10  13
HETATM   13  O           1     -23.596  -7.780   0.867  0.00  0.00    -0.361 OA
HETATM   14  H           1     -24.486  -8.116   0.666  0.00  0.00     0.217 HD
ENDBRANCH  10  13
ENDBRANCH   6   7
ENDBRANCH   5   6
BRANCH   5  15
HETATM   15  N           1     -21.087 -10.031  -5.577  0.00  0.00    -0.066 N 
HETATM   16  H           1     -20.277 -10.576  -5.207  0.00  0.00     0.275 HD
HETATM   17  H           1     -21.972 -10.560  -5.402  0.00  0.00     0.275 HD
HETATM   18  H           1     -20.969  -9.882  -6.604  0.00  0.00     0.275 HD
ENDBRANCH   5  15
ENDBRANCH   4   5
BRANCH   1  19
HETATM   19  C           1     -20.904  -5.535  -7.024  0.00  0.00     0.189 C 
BRANCH  19  20
HETATM   20  C           1     -22.043  -4.613  -7.439  0.00  0.00     0.074 C 
BRANCH  20  21
HETATM   21  C           1     -21.979  -4.373  -8.915  0.00  0.00    -0.056 A 
HETATM   22  C           1     -20.756  -4.437  -9.581  0.00  0.00     0.010 A 
HETATM   23  C           1     -20.698  -4.213 -10.957  0.00  0.00     0.037 A 
HETATM   24  C           1     -21.863  -3.925 -11.667  0.00  0.00     0.065 A 
HETATM   25  C           1     -23.087  -3.861 -11.001  0.00  0.00     0.037 A 
HETATM   26  C           1     -23.145  -4.084  -9.625  0.00  0.00     0.010 A 
BRANCH  24  27
HETATM   27  O           1     -21.806  -3.708 -13.003  0.00  0.00    -0.361 OA
HETATM   28  H           1     -20.903  -3.425 -13.223  0.00  0.00     0.217 HD
ENDBRANCH  24  27
ENDBRANCH  20  21
ENDBRANCH  19  20
BRANCH  19  29
HETATM   29  C           1     -19.846  -4.735  -6.304  0.00  0.00     0.197 C 
HETATM   30  O           1     -20.036  -4.365  -5.126  0.00  0.00    -0.646 OA
HETATM   31  O           1     -18.779  -4.442  -6.887  0.00  0.00    -0.646 OA
ENDBRANCH  19  29
ENDBRANCH   1  19
TORSDOF 10
ENDMDL
MODEL 2
REMARK VINA RESULT:      -8.5      1.171      8.729
REMARK  10 active torsions:
REMARK  status: ('A' for Active; 'I' for Inactive)
REMARK    1  A    between atoms: C_2  and  C_12 
REMARK    2  A    between atoms: C_4  and  C_10 
REMARK    3  A    between atoms: C_4  and  C_24 
REMARK    4  A    between atoms: C_4  and  N_9 
REMARK       I    between atoms: N_9  and  C_21 
REMARK    5  A    between atoms: C_10  and  C_29 
REMARK    6  A    between atoms: C_12  and  C_13 
REMARK    7  A    between atoms: C_13  and  C_21 
REMARK    8  A    between atoms: C_13  and  N_19 
REMARK    9  A    between atoms: O_14  and  C_15 
REMARK   10  A    between atoms: O_26  and  C_30 
ROOT
HETATM    1  N           1     -21.298  -7.370  -5.560  0.00  0.00    -0.344 N 
HETATM    2  H           1     -21.717  -7.950  -6.276  0.00  0.00     0.163 HD
HETATM    3  O           1     -20.889  -5.315  -4.788  0.00  0.00    -0.271 OA
HETATM    4  C           1     -21.389  -6.007  -5.644  0.00  0.00     0.249 C 
ENDROOT
BRANCH   4   5
HETATM    5  C           1     -22.112  -5.368  -6.804  0.00  0.00     0.278 C 
BRANCH   5   6
HETATM    6  C           1     -21.333  -4.150  -7.279  0.00  0.00     0.081 C 
BRANCH   6   7
HETATM    7  C           1     -21.434  -4.041  -8.769  0.00  0.00    -0.056 A 
HETATM    8  C           1     -20.322  -4.314  -9.566  0.00  0.00     0.010 A 
HETATM    9  C           1     -20.417  -4.212 -10.953  0.00  0.00     0.037 A 
HETATM   10  C           1     -21.624  -3.840 -11.545  0.00  0.00     0.065 A 
HETATM   11  C           1     -22.736  -3.567 -10.748  0.00  0.00     0.037 A 
HETATM   12  C           1     -22.641  -3.669  -9.360  0.00  0.00     0.010 A 
BRANCH  10  13
HETATM   13  O           1     -21.716  -3.741 -12.893  0.00  0.00    -0.361 OA
HETATM   14  H           1     -21.660  -2.799 -13.130  0.00  0.00     0.217 HD
ENDBRANCH  10  13
ENDBRANCH   6   7
ENDBRANCH   5   6
BRANCH   5  15
HETATM   15  N           1     -23.482  -4.945  -6.365  0.00  0.00    -0.066 N 
HETATM   16  H           1     -23.576  -3.910  -6.466  0.00  0.00     0.275 HD
HETATM   17  H           1     -24.200  -5.420  -6.959  0.00  0.00     0.275 HD
HETATM   18  H           1     -23.626  -5.213  -5.365  0.00  0.00     0.275 HD
ENDBRANCH   5  15
ENDBRANCH   4   5
BRANCH   1  19
HETATM   19  C           1     -20.604  -7.985  -4.446  0.00  0.00     0.189 C 
BRANCH  19  20
HETATM   20  C           1     -21.467  -9.092  -3.858  0.00  0.00     0.074 C 
BRANCH  20  21
HETATM   21  C           1     -21.850  -8.737  -2.455  0.00  0.00    -0.056 A 
HETATM   22  C           1     -21.842  -7.404  -2.045  0.00  0.00     0.010 A 
HETATM   23  C           1     -22.199  -7.074  -0.738  0.00  0.00     0.037 A 
HETATM   24  C           1     -22.564  -8.077   0.160  0.00  0.00     0.065 A 
HETATM   25  C           1     -22.571  -9.410  -0.250  0.00  0.00     0.037 A 
HETATM   26  C           1     -22.214  -9.741  -1.557  0.00  0.00     0.010 A 
BRANCH  24  27
HETATM   27  O           1     -22.910  -7.756   1.430  0.00  0.00    -0.361 OA
HETATM   28  H           1     -22.691  -8.511   2.001  0.00  0.00     0.217 HD
ENDBRANCH  24  27
ENDBRANCH  20  21
ENDBRANCH  19  20
BRANCH  19  29
HETATM   29  C           1     -19.297  -8.566  -4.927  0.00  0.00     0.197 C 
HETATM   30  O           1     -18.994  -8.505  -6.138  0.00  0.00    -0.646 OA
HETATM   31  O           1     -18.517  -9.110  -4.115  0.00  0.00    -0.646 OA
ENDBRANCH  19  29
ENDBRANCH   1  19
TORSDOF 10
ENDMDL
MODEL 3
REMARK VINA RESULT:      -8.5      1.908      8.429
REMARK  10 active torsions:
REMARK  status: ('A' for Active; 'I' for Inactive)
REMARK    1  A    between atoms: C_2  and  C_12 
REMARK    2  A    between atoms: C_4  and  C_10 
REMARK    3  A    between atoms: C_4  and  C_24 
REMARK    4  A    between atoms: C_4  and  N_9 
REMARK       I    between atoms: N_9  and  C_21 
REMARK    5  A    between atoms: C_10  and  C_29 
REMARK    6  A    between atoms: C_12  and  C_13 
REMARK    7  A    between atoms: C_13  and  C_21 
REMARK    8  A    between atoms: C_13  and  N_19 
REMARK    9  A    between atoms: O_14  and  C_15 
REMARK   10  A    between atoms: O_26  and  C_30 
ROOT
HETATM    1  N           1     -20.655  -5.225  -5.453  0.00  0.00    -0.344 N 
HETATM    2  H           1     -20.908  -4.271  -5.230  0.00  0.00     0.163 HD
HETATM    3  O           1     -19.741  -6.649  -6.910  0.00  0.00    -0.271 OA
HETATM    4  C           1     -20.044  -5.510  -6.644  0.00  0.00     0.249 C 
ENDROOT
BRANCH   4   5
HETATM    5  C           1     -19.748  -4.402  -7.625  0.00  0.00     0.278 C 
BRANCH   5   6
HETATM    6  C           1     -19.997  -4.898  -9.043  0.00  0.00     0.081 C 
BRANCH   6   7
HETATM    7  C           1     -21.339  -4.427  -9.509  0.00  0.00    -0.056 A 
HETATM    8  C           1     -21.546  -4.131 -10.856  0.00  0.00     0.010 A 
HETATM    9  C           1     -22.796  -3.692 -11.290  0.00  0.00     0.037 A 
HETATM   10  C           1     -23.841  -3.550 -10.377  0.00  0.00     0.065 A 
HETATM   11  C           1     -23.634  -3.846  -9.029  0.00  0.00     0.037 A 
HETATM   12  C           1     -22.384  -4.285  -8.596  0.00  0.00     0.010 A 
BRANCH  10  13
HETATM   13  O           1     -25.056  -3.124 -10.799  0.00  0.00    -0.361 OA
HETATM   14  H           1     -25.729  -3.723 -10.432  0.00  0.00     0.217 HD
ENDBRANCH  10  13
ENDBRANCH   6   7
ENDBRANCH   5   6
BRANCH   5  15
HETATM   15  N           1     -18.314  -3.984  -7.486  0.00  0.00    -0.066 N 
HETATM   16  H           1     -18.180  -3.499  -6.571  0.00  0.00     0.275 HD
HETATM   17  H           1     -17.700  -4.829  -7.527  0.00  0.00     0.275 HD
HETATM   18  H           1     -18.063  -3.334  -8.265  0.00  0.00     0.275 HD
ENDBRANCH   5  15
ENDBRANCH   4   5
BRANCH   1  19
HETATM   19  C           1     -20.940  -6.289  -4.511  0.00  0.00     0.189 C 
BRANCH  19  20
HETATM   20  C           1     -21.093  -5.703  -3.114  0.00  0.00     0.074 C 
BRANCH  20  21
HETATM   21  C           1     -21.285  -6.810  -2.125  0.00  0.00    -0.056 A 
HETATM   22  C           1     -20.431  -7.912  -2.136  0.00  0.00     0.010 A 
HETATM   23  C           1     -20.610  -8.943  -1.214  0.00  0.00     0.037 A 
HETATM   24  C           1     -21.645  -8.873  -0.281  0.00  0.00     0.065 A 
HETATM   25  C           1     -22.500  -7.771  -0.271  0.00  0.00     0.037 A 
HETATM   26  C           1     -22.321  -6.739  -1.193  0.00  0.00     0.010 A 
BRANCH  24  27
HETATM   27  O           1     -21.819  -9.874   0.614  0.00  0.00    -0.361 OA
HETATM   28  H           1     -21.304  -9.659   1.410  0.00  0.00     0.217 HD
ENDBRANCH  24  27
ENDBRANCH  20  21
ENDBRANCH  19  20
BRANCH  19  29
HETATM   29  C           1     -22.219  -6.984  -4.909  0.00  0.00     0.197 C 
HETATM   30  O           1     -22.223  -8.216  -5.114  0.00  0.00    -0.646 OA
HETATM   31  O           1     -23.275  -6.326  -5.033  0.00  0.00    -0.646 OA
ENDBRANCH  19  29
ENDBRANCH   1  19
TORSDOF 10
ENDMDL
MODEL 4
REMARK VINA RESULT:      -8.4      1.393      8.578
REMARK  10 active torsions:
REMARK  status: ('A' for Active; 'I' for Inactive)
REMARK    1  A    between atoms: C_2  and  C_12 
REMARK    2  A    between atoms: C_4  and  C_10 
REMARK    3  A    between atoms: C_4  and  C_24 
REMARK    4  A    between atoms: C_4  and  N_9 
REMARK       I    between atoms: N_9  and  C_21 
REMARK    5  A    between atoms: C_10  and  C_29 
REMARK    6  A    between atoms: C_12  and  C_13 
REMARK    7  A    between atoms: C_13  and  C_21 
REMARK    8  A    between atoms: C_13  and  N_19 
REMARK    9  A    between atoms: O_14  and  C_15 
REMARK   10  A    between atoms: O_26  and  C_30 
ROOT
HETATM    1  N           1     -20.185  -6.759  -6.172  0.00  0.00    -0.344 N 
HETATM    2  H           1     -20.166  -7.230  -7.067  0.00  0.00     0.163 HD
HETATM    3  O           1     -20.313  -4.833  -5.049  0.00  0.00    -0.271 OA
HETATM    4  C           1     -20.290  -5.395  -6.118  0.00  0.00     0.249 C 
ENDROOT
BRANCH   4   5
HETATM    5  C           1     -20.377  -4.594  -7.395  0.00  0.00     0.278 C 
BRANCH   5   6
HETATM    6  C           1     -20.945  -5.466  -8.505  0.00  0.00     0.081 C 
BRANCH   6   7
HETATM    7  C           1     -21.590  -4.600  -9.542  0.00  0.00    -0.056 A 
HETATM    8  C           1     -22.913  -4.186  -9.382  0.00  0.00     0.010 A 
HETATM    9  C           1     -23.512  -3.380 -10.349  0.00  0.00     0.037 A 
HETATM   10  C           1     -22.789  -2.984 -11.474  0.00  0.00     0.065 A 
HETATM   11  C           1     -21.466  -3.397 -11.633  0.00  0.00     0.037 A 
HETATM   12  C           1     -20.866  -4.204 -10.667  0.00  0.00     0.010 A 
BRANCH  10  13
HETATM   13  O           1     -23.372  -2.200 -12.413  0.00  0.00    -0.361 OA
HETATM   14  H           1     -24.091  -1.704 -11.985  0.00  0.00     0.217 HD
ENDBRANCH  10  13
ENDBRANCH   6   7
ENDBRANCH   5   6
BRANCH   5  15
HETATM   15  N           1     -19.007  -4.122  -7.780  0.00  0.00    -0.066 N 
HETATM   16  H           1     -18.293  -4.609  -7.193  0.00  0.00     0.275 HD
HETATM   17  H           1     -18.835  -4.339  -8.789  0.00  0.00     0.275 HD
HETATM   18  H           1     -18.938  -3.090  -7.631  0.00  0.00     0.275 HD
ENDBRANCH   5  15
ENDBRANCH   4   5
BRANCH   1  19
HETATM   19  C           1     -20.101  -7.529  -4.946  0.00  0.00     0.189 C 
BRANCH  19  20
HETATM   20  C           1     -21.468  -8.114  -4.620  0.00  0.00     0.074 C 
BRANCH  20  21
HETATM   21  C           1     -21.714  -8.021  -3.147  0.00  0.00    -0.056 A 
HETATM   22  C           1     -21.729  -9.177  -2.367  0.00  0.00     0.010 A 
HETATM   23  C           1     -21.958  -9.089  -0.994  0.00  0.00     0.037 A 
HETATM   24  C           1     -22.173  -7.845  -0.400  0.00  0.00     0.065 A 
HETATM   25  C           1     -22.159  -6.690  -1.180  0.00  0.00     0.037 A 
HETATM   26  C           1     -21.930  -6.777  -2.554  0.00  0.00     0.010 A 
BRANCH  24  27
HETATM   27  O           1     -22.395  -7.761   0.933  0.00  0.00    -0.361 OA
HETATM   28  H           1     -22.680  -8.636   1.247  0.00  0.00     0.217 HD
ENDBRANCH  24  27
ENDBRANCH  20  21
ENDBRANCH  19  20
BRANCH  19  29
HETATM   29  C           1     -19.103  -8.647  -5.123  0.00  0.00     0.197 C 
HETATM   30  O           1     -18.731  -9.315  -4.135  0.00  0.00    -0.646 OA
HETATM   31  O           1     -18.649  -8.906  -6.259  0.00  0.00    -0.646 OA
ENDBRANCH  19  29
ENDBRANCH   1  19
TORSDOF 10
ENDMDL
MODEL 5
REMARK VINA RESULT:      -8.0      1.550      8.483
REMARK  10 active torsions:
REMARK  status: ('A' for Active; 'I' for Inactive)
REMARK    1  A    between atoms: C_2  and  C_12 
REMARK    2  A    between atoms: C_4  and  C_10 
REMARK    3  A    between atoms: C_4  and  C_24 
REMARK    4  A    between atoms: C_4  and  N_9 
REMARK       I    between atoms: N_9  and  C_21 
REMARK    5  A    between atoms: C_10  and  C_29 
REMARK    6  A    between atoms: C_12  and  C_13 
REMARK    7  A    between atoms: C_13  and  C_21 
REMARK    8  A    between atoms: C_13  and  N_19 
REMARK    9  A    between atoms: O_14  and  C_15 
REMARK   10  A    between atoms: O_26  and  C_30 
ROOT
HETATM    1  N           1     -20.873  -7.940  -4.521  0.00  0.00    -0.344 N 
HETATM    2  H           1     -21.716  -7.777  -3.986  0.00  0.00     0.163 HD
HETATM    3  O           1     -19.630  -7.416  -6.301  0.00  0.00    -0.271 OA
HETATM    4  C           1     -20.637  -7.222  -5.662  0.00  0.00     0.249 C 
ENDROOT
BRANCH   4   5
HETATM    5  C           1     -21.635  -6.187  -6.123  0.00  0.00     0.278 C 
BRANCH   5   6
HETATM    6  C           1     -20.910  -4.884  -6.430  0.00  0.00     0.081 C 
BRANCH   6   7
HETATM    7  C           1     -21.045  -4.568  -7.886  0.00  0.00    -0.056 A 
HETATM    8  C           1     -22.240  -4.043  -8.380  0.00  0.00     0.010 A 
HETATM    9  C           1     -22.365  -3.749  -9.737  0.00  0.00     0.037 A 
HETATM   10  C           1     -21.295  -3.979 -10.602  0.00  0.00     0.065 A 
HETATM   11  C           1     -20.100  -4.504 -10.109  0.00  0.00     0.037 A 
HETATM   12  C           1     -19.975  -4.798  -8.752  0.00  0.00     0.010 A 
BRANCH  10  13
HETATM   13  O           1     -21.417  -3.693 -11.921  0.00  0.00    -0.361 OA
HETATM   14  H           1     -21.997  -4.363 -12.321  0.00  0.00     0.217 HD
ENDBRANCH  10  13
ENDBRANCH   6   7
ENDBRANCH   5   6
BRANCH   5  15
HETATM   15  N           1     -22.646  -5.953  -5.040  0.00  0.00    -0.066 N 
HETATM   16  H           1     -22.154  -5.744  -4.143  0.00  0.00     0.275 HD
HETATM   17  H           1     -23.255  -5.144  -5.300  0.00  0.00     0.275 HD
HETATM   18  H           1     -23.236  -6.808  -4.923  0.00  0.00     0.275 HD
ENDBRANCH   5  15
ENDBRANCH   4   5
BRANCH   1  19
HETATM   19  C           1     -19.915  -8.934  -4.079  0.00  0.00     0.189 C 
BRANCH  19  20
HETATM   20  C           1     -19.415  -8.573  -2.687  0.00  0.00     0.074 C 
BRANCH  20  21
HETATM   21  C           1     -20.583  -8.322  -1.785  0.00  0.00    -0.056 A 
HETATM   22  C           1     -20.999  -9.307  -0.890  0.00  0.00     0.010 A 
HETATM   23  C           1     -22.087  -9.072  -0.050  0.00  0.00     0.037 A 
HETATM   24  C           1     -22.762  -7.852  -0.106  0.00  0.00     0.065 A 
HETATM   25  C           1     -22.347  -6.868  -1.002  0.00  0.00     0.037 A 
HETATM   26  C           1     -21.258  -7.102  -1.842  0.00  0.00     0.010 A 
BRANCH  24  27
HETATM   27  O           1     -23.819  -7.625   0.710  0.00  0.00    -0.361 OA
HETATM   28  H           1     -24.536  -7.247   0.174  0.00  0.00     0.217 HD
ENDBRANCH  24  27
ENDBRANCH  20  21
ENDBRANCH  19  20
BRANCH  19  29
HETATM   29  C           1     -20.579 -10.289  -4.039  0.00  0.00     0.197 C 
HETATM   30  O           1     -21.806 -10.390  -4.253  0.00  0.00    -0.646 OA
HETATM   31  O           1     -19.902 -11.310  -3.792  0.00  0.00    -0.646 OA
ENDBRANCH  19  29
ENDBRANCH   1  19
TORSDOF 10
ENDMDL
MODEL 6
REMARK VINA RESULT:      -8.0     13.556     16.471
REMARK  10 active torsions:
REMARK  status: ('A' for Active; 'I' for Inactive)
REMARK    1  A    between atoms: C_2  and  C_12 
REMARK    2  A    between atoms: C_4  and  C_10 
REMARK    3  A    between atoms: C_4  and  C_24 
REMARK    4  A    between atoms: C_4  and  N_9 
REMARK       I    between atoms: N_9  and  C_21 
REMARK    5  A    between atoms: C_10  and  C_29 
REMARK    6  A    between atoms: C_12  and  C_13 
REMARK    7  A    between atoms: C_13  and  C_21 
REMARK    8  A    between atoms: C_13  and  N_19 
REMARK    9  A    between atoms: O_14  and  C_15 
REMARK   10  A    between atoms: O_26  and  C_30 
ROOT
HETATM    1  N           1     -33.512  -3.767 -14.340  0.00  0.00    -0.344 N 
HETATM    2  H           1     -32.624  -3.283 -14.380  0.00  0.00     0.163 HD
HETATM    3  O           1     -35.025  -5.035 -15.384  0.00  0.00    -0.271 OA
HETATM    4  C           1     -33.965  -4.456 -15.432  0.00  0.00     0.249 C 
ENDROOT
BRANCH   4   5
HETATM    5  C           1     -33.142  -4.493 -16.697  0.00  0.00     0.278 C 
BRANCH   5   6
HETATM    6  C           1     -31.670  -4.650 -16.341  0.00  0.00     0.081 C 
BRANCH   6   7
HETATM    7  C           1     -31.077  -5.765 -17.143  0.00  0.00    -0.056 A 
HETATM    8  C           1     -31.905  -6.733 -17.712  0.00  0.00     0.010 A 
HETATM    9  C           1     -31.352  -7.772 -18.459  0.00  0.00     0.037 A 
HETATM   10  C           1     -29.970  -7.844 -18.640  0.00  0.00     0.065 A 
HETATM   11  C           1     -29.142  -6.875 -18.072  0.00  0.00     0.037 A 
HETATM   12  C           1     -29.695  -5.836 -17.324  0.00  0.00     0.010 A 
BRANCH  10  13
HETATM   13  O           1     -29.434  -8.853 -19.367  0.00  0.00    -0.361 OA
HETATM   14  H           1     -28.518  -8.984 -19.067  0.00  0.00     0.217 HD
ENDBRANCH  10  13
ENDBRANCH   6   7
ENDBRANCH   5   6
BRANCH   5  15
HETATM   15  N           1     -33.340  -3.216 -17.457  0.00  0.00    -0.066 N 
HETATM   16  H           1     -32.410  -2.790 -17.671  0.00  0.00     0.275 HD
HETATM   17  H           1     -33.844  -3.417 -18.350  0.00  0.00     0.275 HD
HETATM   18  H           1     -33.904  -2.551 -16.881  0.00  0.00     0.275 HD
ENDBRANCH   5  15
ENDBRANCH   4   5
BRANCH   1  19
HETATM   19  C           1     -34.302  -3.731 -13.125  0.00  0.00     0.189 C 
BRANCH  19  20
HETATM   20  C           1     -33.388  -3.898 -11.919  0.00  0.00     0.074 C 
BRANCH  20  21
HETATM   21  C           1     -33.697  -5.192 -11.233  0.00  0.00    -0.056 A 
HETATM   22  C           1     -34.917  -5.360 -10.577  0.00  0.00     0.010 A 
HETATM   23  C           1     -35.204  -6.565  -9.937  0.00  0.00     0.037 A 
HETATM   24  C           1     -34.273  -7.603  -9.952  0.00  0.00     0.065 A 
HETATM   25  C           1     -33.053  -7.435 -10.607  0.00  0.00     0.037 A 
HETATM   26  C           1     -32.765  -6.229 -11.247  0.00  0.00     0.010 A 
BRANCH  24  27
HETATM   27  O           1     -34.552  -8.774  -9.330  0.00  0.00    -0.361 OA
HETATM   28  H           1     -35.000  -8.570  -8.492  0.00  0.00     0.217 HD
ENDBRANCH  24  27
ENDBRANCH  20  21
ENDBRANCH  19  20
BRANCH  19  29
HETATM   29  C           1     -35.020  -2.407 -13.032  0.00  0.00     0.197 C 
HETATM   30  O           1     -34.870  -1.550 -13.929  0.00  0.00    -0.646 OA
HETATM   31  O           1     -35.766  -2.167 -12.058  0.00  0.00    -0.646 OA
ENDBRANCH  19  29
ENDBRANCH   1  19
TORSDOF 10
ENDMDL
MODEL 7
REMARK VINA RESULT:      -7.6      2.665      8.964
REMARK  10 active torsions:
REMARK  status: ('A' for Active; 'I' for Inactive)
REMARK    1  A    between atoms: C_2  and  C_12 
REMARK    2  A    between atoms: C_4  and  C_10 
REMARK    3  A    between atoms: C_4  and  C_24 
REMARK    4  A    between atoms: C_4  and  N_9 
REMARK       I    between atoms: N_9  and  C_21 
REMARK    5  A    between atoms: C_10  and  C_29 
REMARK    6  A    between atoms: C_12  and  C_13 
REMARK    7  A    between atoms: C_13  and  C_21 
REMARK    8  A    between atoms: C_13  and  N_19 
REMARK    9  A    between atoms: O_14  and  C_15 
REMARK   10  A    between atoms: O_26  and  C_30 
ROOT
HETATM    1  N           1     -20.882  -7.794  -5.126  0.00  0.00    -0.344 N 
HETATM    2  H           1     -21.792  -7.773  -4.684  0.00  0.00     0.163 HD
HETATM    3  O           1     -19.504  -6.944  -6.664  0.00  0.00    -0.271 OA
HETATM    4  C           1     -20.592  -6.918  -6.136  0.00  0.00     0.249 C 
ENDROOT
BRANCH   4   5
HETATM    5  C           1     -21.628  -5.920  -6.593  0.00  0.00     0.278 C 
BRANCH   5   6
HETATM    6  C           1     -20.939  -4.636  -7.031  0.00  0.00     0.081 C 
BRANCH   6   7
HETATM    7  C           1     -21.146  -4.434  -8.500  0.00  0.00    -0.056 A 
HETATM    8  C           1     -20.081  -4.604  -9.385  0.00  0.00     0.010 A 
HETATM    9  C           1     -20.274  -4.415 -10.753  0.00  0.00     0.037 A 
HETATM   10  C           1     -21.533  -4.057 -11.237  0.00  0.00     0.065 A 
HETATM   11  C           1     -22.598  -3.886 -10.352  0.00  0.00     0.037 A 
HETATM   12  C           1     -22.404  -4.075  -8.984  0.00  0.00     0.010 A 
BRANCH  10  13
HETATM   13  O           1     -21.721  -3.874 -12.566  0.00  0.00    -0.361 OA
HETATM   14  H           1     -22.678  -3.823 -12.730  0.00  0.00     0.217 HD
ENDBRANCH  10  13
ENDBRANCH   6   7
ENDBRANCH   5   6
BRANCH   5  15
HETATM   15  N           1     -22.566  -5.623  -5.460  0.00  0.00    -0.066 N 
HETATM   16  H           1     -22.523  -6.398  -4.761  0.00  0.00     0.275 HD
HETATM   17  H           1     -22.287  -4.725  -5.004  0.00  0.00     0.275 HD
HETATM   18  H           1     -23.540  -5.538  -5.828  0.00  0.00     0.275 HD
ENDBRANCH   5  15
ENDBRANCH   4   5
BRANCH   1  19
HETATM   19  C           1     -19.887  -8.753  -4.688  0.00  0.00     0.189 C 
BRANCH  19  20
HETATM   20  C           1     -19.881  -8.818  -3.167  0.00  0.00     0.074 C 
BRANCH  20  21
HETATM   21  C           1     -18.736  -9.667  -2.707  0.00  0.00    -0.056 A 
HETATM   22  C           1     -17.433  -9.349  -3.091  0.00  0.00     0.010 A 
HETATM   23  C           1     -16.368 -10.140  -2.663  0.00  0.00     0.037 A 
HETATM   24  C           1     -16.604 -11.250  -1.851  0.00  0.00     0.065 A 
HETATM   25  C           1     -17.907 -11.568  -1.468  0.00  0.00     0.037 A 
HETATM   26  C           1     -18.974 -10.777  -1.896  0.00  0.00     0.010 A 
BRANCH  24  27
HETATM   27  O           1     -15.569 -12.018  -1.435  0.00  0.00    -0.361 OA
HETATM   28  H           1     -15.873 -12.941  -1.404  0.00  0.00     0.217 HD
ENDBRANCH  24  27
ENDBRANCH  20  21
ENDBRANCH  19  20
BRANCH  19  29
HETATM   29  C           1     -20.219 -10.114  -5.249  0.00  0.00     0.197 C 
HETATM   30  O           1     -19.480 -10.631  -6.113  0.00  0.00    -0.646 OA
HETATM   31  O           1     -21.235 -10.724  -4.849  0.00  0.00    -0.646 OA
ENDBRANCH  19  29
ENDBRANCH   1  19
TORSDOF 10
ENDMDL
MODEL 8
REMARK VINA RESULT:      -7.5      1.878      8.653
REMARK  10 active torsions:
REMARK  status: ('A' for Active; 'I' for Inactive)
REMARK    1  A    between atoms: C_2  and  C_12 
REMARK    2  A    between atoms: C_4  and  C_10 
REMARK    3  A    between atoms: C_4  and  C_24 
REMARK    4  A    between atoms: C_4  and  N_9 
REMARK       I    between atoms: N_9  and  C_21 
REMARK    5  A    between atoms: C_10  and  C_29 
REMARK    6  A    between atoms: C_12  and  C_13 
REMARK    7  A    between atoms: C_13  and  C_21 
REMARK    8  A    between atoms: C_13  and  N_19 
REMARK    9  A    between atoms: O_14  and  C_15 
REMARK   10  A    between atoms: O_26  and  C_30 
ROOT
HETATM    1  N           1     -20.310  -7.473  -5.030  0.00  0.00    -0.344 N 
HETATM    2  H           1     -19.735  -7.601  -5.853  0.00  0.00     0.163 HD
HETATM    3  O           1     -21.770  -6.199  -3.920  0.00  0.00    -0.271 OA
HETATM    4  C           1     -21.083  -6.351  -4.903  0.00  0.00     0.249 C 
ENDROOT
BRANCH   4   5
HETATM    5  C           1     -21.080  -5.304  -5.991  0.00  0.00     0.278 C 
BRANCH   5   6
HETATM    6  C           1     -20.630  -5.934  -7.301  0.00  0.00     0.081 C 
BRANCH   6   7
HETATM    7  C           1     -21.063  -5.072  -8.445  0.00  0.00    -0.056 A 
HETATM    8  C           1     -22.365  -4.571  -8.488  0.00  0.00     0.010 A 
HETATM    9  C           1     -22.768  -3.768  -9.554  0.00  0.00     0.037 A 
HETATM   10  C           1     -21.870  -3.465 -10.579  0.00  0.00     0.065 A 
HETATM   11  C           1     -20.569  -3.966 -10.536  0.00  0.00     0.037 A 
HETATM   12  C           1     -20.166  -4.769  -9.470  0.00  0.00     0.010 A 
BRANCH  10  13
HETATM   13  O           1     -22.263  -2.685 -11.615  0.00  0.00    -0.361 OA
HETATM   14  H           1     -22.691  -3.256 -12.275  0.00  0.00     0.217 HD
ENDBRANCH  10  13
ENDBRANCH   6   7
ENDBRANCH   5   6
BRANCH   5  15
HETATM   15  N           1     -20.137  -4.200  -5.616  0.00  0.00    -0.066 N 
HETATM   16  H           1     -20.165  -4.054  -4.582  0.00  0.00     0.275 HD
HETATM   17  H           1     -19.166  -4.459  -5.904  0.00  0.00     0.275 HD
HETATM   18  H           1     -20.420  -3.319  -6.101  0.00  0.00     0.275 HD
ENDBRANCH   5  15
ENDBRANCH   4   5
BRANCH   1  19
HETATM   19  C           1     -20.312  -8.479  -3.986  0.00  0.00     0.189 C 
BRANCH  19  20
HETATM   20  C           1     -21.319  -9.567  -4.332  0.00  0.00     0.074 C 
BRANCH  20  21
HETATM   21  C           1     -22.034 -10.000  -3.090  0.00  0.00    -0.056 A 
HETATM   22  C           1     -22.809 -11.160  -3.100  0.00  0.00     0.010 A 
HETATM   23  C           1     -23.476 -11.562  -1.943  0.00  0.00     0.037 A 
HETATM   24  C           1     -23.368 -10.805  -0.776  0.00  0.00     0.065 A 
HETATM   25  C           1     -22.594  -9.645  -0.767  0.00  0.00     0.037 A 
HETATM   26  C           1     -21.927  -9.242  -1.924  0.00  0.00     0.010 A 
BRANCH  24  27
HETATM   27  O           1     -24.016 -11.197   0.348  0.00  0.00    -0.361 OA
HETATM   28  H           1     -23.387 -11.152   1.088  0.00  0.00     0.217 HD
ENDBRANCH  24  27
ENDBRANCH  20  21
ENDBRANCH  19  20
BRANCH  19  29
HETATM   29  C           1     -18.935  -9.085  -3.869  0.00  0.00     0.197 C 
HETATM   30  O           1     -18.448  -9.315  -2.742  0.00  0.00    -0.646 OA
HETATM   31  O           1     -18.282  -9.357  -4.899  0.00  0.00    -0.646 OA
ENDBRANCH  19  29
ENDBRANCH   1  19
TORSDOF 10
ENDMDL
MODEL 9
REMARK VINA RESULT:      -7.4      3.185      7.920
REMARK  10 active torsions:
REMARK  status: ('A' for Active; 'I' for Inactive)
REMARK    1  A    between atoms: C_2  and  C_12 
REMARK    2  A    between atoms: C_4  and  C_10 
REMARK    3  A    between atoms: C_4  and  C_24 
REMARK    4  A    between atoms: C_4  and  N_9 
REMARK       I    between atoms: N_9  and  C_21 
REMARK    5  A    between atoms: C_10  and  C_29 
REMARK    6  A    between atoms: C_12  and  C_13 
REMARK    7  A    between atoms: C_13  and  C_21 
REMARK    8  A    between atoms: C_13  and  N_19 
REMARK    9  A    between atoms: O_14  and  C_15 
REMARK   10  A    between atoms: O_26  and  C_30 
ROOT
HETATM    1  N           1     -20.424  -8.178  -3.666  0.00  0.00    -0.344 N 
HETATM    2  H           1     -20.424  -7.553  -2.871  0.00  0.00     0.163 HD
HETATM    3  O           1     -21.018  -8.543  -5.788  0.00  0.00    -0.271 OA
HETATM    4  C           1     -21.019  -7.796  -4.838  0.00  0.00     0.249 C 
ENDROOT
BRANCH   4   5
HETATM    5  C           1     -21.677  -6.441  -4.944  0.00  0.00     0.278 C 
BRANCH   5   6
HETATM    6  C           1     -20.638  -5.402  -5.342  0.00  0.00     0.081 C 
BRANCH   6   7
HETATM    7  C           1     -20.915  -4.926  -6.734  0.00  0.00    -0.056 A 
HETATM    8  C           1     -22.208  -4.554  -7.101  0.00  0.00     0.010 A 
HETATM    9  C           1     -22.465  -4.111  -8.397  0.00  0.00     0.037 A 
HETATM   10  C           1     -21.428  -4.039  -9.329  0.00  0.00     0.065 A 
HETATM   11  C           1     -20.135  -4.411  -8.962  0.00  0.00     0.037 A 
HETATM   12  C           1     -19.878  -4.854  -7.665  0.00  0.00     0.010 A 
BRANCH  10  13
HETATM   13  O           1     -21.679  -3.608 -10.589  0.00  0.00    -0.361 OA
HETATM   14  H           1     -20.861  -3.216 -10.940  0.00  0.00     0.217 HD
ENDBRANCH  10  13
ENDBRANCH   6   7
ENDBRANCH   5   6
BRANCH   5  15
HETATM   15  N           1     -22.271  -6.071  -3.617  0.00  0.00    -0.066 N 
HETATM   16  H           1     -21.819  -6.635  -2.864  0.00  0.00     0.275 HD
HETATM   17  H           1     -22.111  -5.054  -3.435  0.00  0.00     0.275 HD
HETATM   18  H           1     -23.298  -6.264  -3.630  0.00  0.00     0.275 HD
ENDBRANCH   5  15
ENDBRANCH   4   5
BRANCH   1  19
HETATM   19  C           1     -19.793  -9.480  -3.564  0.00  0.00     0.189 C 
BRANCH  19  20
HETATM   20  C           1     -18.333  -9.305  -3.171  0.00  0.00     0.074 C 
BRANCH  20  21
HETATM   21  C           1     -17.458  -9.962  -4.193  0.00  0.00    -0.056 A 
HETATM   22  C           1     -16.076 -10.006  -4.004  0.00  0.00     0.010 A 
HETATM   23  C           1     -15.262 -10.618  -4.957  0.00  0.00     0.037 A 
HETATM   24  C           1     -15.828 -11.187  -6.098  0.00  0.00     0.065 A 
HETATM   25  C           1     -17.209 -11.142  -6.286  0.00  0.00     0.037 A 
HETATM   26  C           1     -18.024 -10.530  -5.334  0.00  0.00     0.010 A 
BRANCH  24  27
HETATM   27  O           1     -15.036 -11.781  -7.023  0.00  0.00    -0.361 OA
HETATM   28  H           1     -15.022 -11.217  -7.814  0.00  0.00     0.217 HD
ENDBRANCH  24  27
ENDBRANCH  20  21
ENDBRANCH  19  20
BRANCH  19  29
HETATM   29  C           1     -20.502 -10.301  -2.516  0.00  0.00     0.197 C 
HETATM   30  O           1     -20.296 -10.080  -1.303  0.00  0.00    -0.646 OA
HETATM   31  O           1     -21.296 -11.203  -2.860  0.00  0.00    -0.646 OA
ENDBRANCH  19  29
ENDBRANCH   1  19
TORSDOF 10
ENDMDL
