MODEL 1
REMARK VINA RESULT:      -7.7      0.000      0.000
REMARK  11 active torsions:
REMARK  status: ('A' for Active; 'I' for Inactive)
REMARK    1  A    between atoms: O_3  and  P_4 
REMARK    2  A    between atoms: P_4  and  O_5 
REMARK    3  A    between atoms: O_5  and  C_6 
REMARK    4  A    between atoms: C_9  and  C_10 
REMARK    5  A    between atoms: C_10  and  C_11 
REMARK    6  A    between atoms: C_11  and  C_12 
REMARK    7  A    between atoms: C_11  and  N_24 
REMARK       I    between atoms: C_12  and  N_13 
REMARK    8  A    between atoms: N_13  and  C_17 
REMARK    9  A    between atoms: C_16  and  C_17 
REMARK   10  A    between atoms: C_17  and  C_18 
REMARK   11  A    between atoms: C_18  and  O_19 
ROOT
HETATM    1  C           1     -20.878  -4.818  -6.515  0.00  0.00     0.278 C 
ENDROOT
BRANCH   1   2
HETATM    2  C           1     -20.612  -5.517  -7.842  0.00  0.00     0.081 C 
BRANCH   2   3
HETATM    3  C           1     -21.217  -4.720  -8.956  0.00  0.00    -0.056 A 
HETATM    4  C           1     -22.540  -4.288  -8.867  0.00  0.00     0.010 A 
HETATM    5  C           1     -23.103  -3.545  -9.904  0.00  0.00     0.038 A 
HETATM    6  C           1     -22.341  -3.234 -11.031  0.00  0.00     0.081 A 
HETATM    7  C           1     -21.018  -3.664 -11.120  0.00  0.00     0.038 A 
HETATM    8  C           1     -20.455  -4.408 -10.082  0.00  0.00     0.010 A 
BRANCH   6   9
HETATM    9  O           1     -22.888  -2.511 -12.039  0.00  0.00    -0.247 OA
BRANCH   9  10
HETATM   10  P           1     -23.927  -3.255 -13.026  0.00  0.00     0.411 P 
HETATM   11  O           1     -25.311  -2.875 -12.664  0.00  0.00    -0.624 OA
HETATM   12  O           1     -23.655  -2.851 -14.424  0.00  0.00    -0.624 OA
BRANCH  10  13
HETATM   13  O           1     -23.755  -4.855 -12.886  0.00  0.00    -0.300 OA
HETATM   14  H           1     -22.850  -5.021 -13.089  0.00  0.00     0.223 HD
ENDBRANCH  10  13
ENDBRANCH   9  10
ENDBRANCH   6   9
ENDBRANCH   2   3
ENDBRANCH   1   2
BRANCH   1  15
HETATM   15  C           1     -21.620  -5.755  -5.592  0.00  0.00     0.249 C 
HETATM   16  N           1     -20.925  -6.552  -4.724  0.00  0.00    -0.343 N 
HETATM   17  H           1     -19.914  -6.514  -4.701  0.00  0.00     0.163 HD
HETATM   18  O           1     -22.826  -5.800  -5.619  0.00  0.00    -0.271 OA
BRANCH  16  19
HETATM   19  C           1     -21.637  -7.452  -3.837  0.00  0.00     0.209 C 
BRANCH  19  20
HETATM   20  C           1     -21.621  -6.892  -2.436  0.00  0.00     0.198 C 
HETATM   21  O           1     -22.309  -5.886  -2.157  0.00  0.00    -0.646 OA
HETATM   22  O           1     -20.920  -7.434  -1.554  0.00  0.00    -0.646 OA
ENDBRANCH  19  20
BRANCH  19  23
HETATM   23  C           1     -20.959  -8.816  -3.846  0.00  0.00     0.200 C 
BRANCH  23  24
HETATM   24  O           1     -19.568  -8.647  -3.884  0.00  0.00    -0.398 OA
HETATM   25  H           1     -19.219  -9.355  -4.398  0.00  0.00     0.209 HD
ENDBRANCH  23  24
ENDBRANCH  19  23
ENDBRANCH  16  19
ENDBRANCH   1  15
BRANCH   1  26
HETATM   26  N           1     -19.574  -4.428  -5.887  0.00  0.00    -0.066 N 
HETATM   27  H           1     -19.315  -3.462  -6.190  0.00  0.00     0.275 HD
HETATM   28  H           1     -19.668  -4.452  -4.846  0.00  0.00     0.275 HD
HETATM   29  H           1     -18.829  -5.097  -6.185  0.00  0.00     0.275 HD
ENDBRANCH   1  26
TORSDOF 11
ENDMDL
MODEL 2
REMARK VINA RESULT:      -7.4      1.342      2.230
REMARK  11 active torsions:
REMARK  status: ('A' for Active; 'I' for Inactive)
REMARK    1  A    between atoms: O_3  and  P_4 
REMARK    2  A    between atoms: P_4  and  O_5 
REMARK    3  A    between atoms: O_5  and  C_6 
REMARK    4  A    between atoms: C_9  and  C_10 
REMARK    5  A    between atoms: C_10  and  C_11 
REMARK    6  A    between atoms: C_11  and  C_12 
REMARK    7  A    between atoms: C_11  and  N_24 
REMARK       I    between atoms: C_12  and  N_13 
REMARK    8  A    between atoms: N_13  and  C_17 
REMARK    9  A    between atoms: C_16  and  C_17 
REMARK   10  A    between atoms: C_17  and  C_18 
REMARK   11  A    between atoms: C_18  and  O_19 
ROOT
HETATM    1  C           1     -21.824  -4.723  -7.058  0.00  0.00     0.278 C 
ENDROOT
BRANCH   1   2
HETATM    2  C           1     -21.220  -5.219  -8.365  0.00  0.00     0.081 C 
BRANCH   2   3
HETATM    3  C           1     -21.732  -4.386  -9.499  0.00  0.00    -0.056 A 
HETATM    4  C           1     -20.837  -3.791 -10.388  0.00  0.00     0.010 A 
HETATM    5  C           1     -21.314  -3.015 -11.445  0.00  0.00     0.038 A 
HETATM    6  C           1     -22.687  -2.836 -11.612  0.00  0.00     0.081 A 
HETATM    7  C           1     -23.583  -3.431 -10.725  0.00  0.00     0.038 A 
HETATM    8  C           1     -23.105  -4.207  -9.667  0.00  0.00     0.010 A 
BRANCH   6   9
HETATM    9  O           1     -23.151  -2.083 -12.639  0.00  0.00    -0.247 OA
BRANCH   9  10
HETATM   10  P           1     -23.430  -2.815 -14.051  0.00  0.00     0.411 P 
HETATM   11  O           1     -24.316  -3.981 -13.835  0.00  0.00    -0.624 OA
HETATM   12  O           1     -24.081  -1.865 -14.980  0.00  0.00    -0.624 OA
BRANCH  10  13
HETATM   13  O           1     -22.030  -3.314 -14.686  0.00  0.00    -0.300 OA
HETATM   14  H           1     -21.608  -2.529 -14.989  0.00  0.00     0.223 HD
ENDBRANCH  10  13
ENDBRANCH   9  10
ENDBRANCH   6   9
ENDBRANCH   2   3
ENDBRANCH   1   2
BRANCH   1  15
HETATM   15  C           1     -21.106  -5.366  -5.896  0.00  0.00     0.249 C 
HETATM   16  N           1     -21.819  -5.833  -4.825  0.00  0.00    -0.343 N 
HETATM   17  H           1     -22.827  -5.747  -4.812  0.00  0.00     0.163 HD
HETATM   18  O           1     -19.903  -5.469  -5.911  0.00  0.00    -0.271 OA
BRANCH  16  19
HETATM   19  C           1     -21.130  -6.451  -3.709  0.00  0.00     0.209 C 
BRANCH  19  20
HETATM   20  C           1     -20.991  -7.932  -3.962  0.00  0.00     0.198 C 
HETATM   21  O           1     -19.958  -8.534  -3.595  0.00  0.00    -0.646 OA
HETATM   22  O           1     -21.907  -8.556  -4.538  0.00  0.00    -0.646 OA
ENDBRANCH  19  20
BRANCH  19  23
HETATM   23  C           1     -21.929  -6.227  -2.432  0.00  0.00     0.200 C 
BRANCH  23  24
HETATM   24  O           1     -21.928  -7.402  -1.667  0.00  0.00    -0.398 OA
HETATM   25  H           1     -21.145  -7.875  -1.892  0.00  0.00     0.209 HD
ENDBRANCH  23  24
ENDBRANCH  19  23
ENDBRANCH  16  19
ENDBRANCH   1  15
BRANCH   1  26
HETATM   26  N           1     -21.676  -3.234  -6.973  0.00  0.00    -0.066 N 
HETATM   27  H           1     -20.895  -2.997  -6.321  0.00  0.00     0.275 HD
HETATM   28  H           1     -21.464  -2.850  -7.922  0.00  0.00     0.275 HD
HETATM   29  H           1     -22.565  -2.814  -6.618  0.00  0.00     0.275 HD
ENDBRANCH   1  26
TORSDOF 11
ENDMDL
MODEL 3
REMARK VINA RESULT:      -7.1      1.425      2.285
REMARK  11 active torsions:
REMARK  status: ('A' for Active; 'I' for Inactive)
REMARK    1  A    between atoms: O_3  and  P_4 
REMARK    2  A    between atoms: P_4  and  O_5 
REMARK    3  A    between atoms: O_5  and  C_6 
REMARK    4  A    between atoms: C_9  and  C_10 
REMARK    5  A    between atoms: C_10  and  C_11 
REMARK    6  A    between atoms: C_11  and  C_12 
REMARK    7  A    between atoms: C_11  and  N_24 
REMARK       I    between atoms: C_12  and  N_13 
REMARK    8  A    between atoms: N_13  and  C_17 
REMARK    9  A    between atoms: C_16  and  C_17 
REMARK   10  A    between atoms: C_17  and  C_18 
REMARK   11  A    between atoms: C_18  and  O_19 
ROOT
HETATM    1  C           1     -21.096  -5.322  -6.495  0.00  0.00     0.278 C 
ENDROOT
BRANCH   1   2
HETATM    2  C           1     -20.431  -5.648  -7.827  0.00  0.00     0.081 C 
BRANCH   2   3
HETATM    3  C           1     -21.060  -4.831  -8.912  0.00  0.00    -0.056 A 
HETATM    4  C           1     -22.396  -4.444  -8.810  0.00  0.00     0.010 A 
HETATM    5  C           1     -22.981  -3.681  -9.821  0.00  0.00     0.038 A 
HETATM    6  C           1     -22.229  -3.306 -10.934  0.00  0.00     0.081 A 
HETATM    7  C           1     -20.893  -3.691 -11.036  0.00  0.00     0.038 A 
HETATM    8  C           1     -20.308  -4.454 -10.025  0.00  0.00     0.010 A 
BRANCH   6   9
HETATM    9  O           1     -22.798  -2.565 -11.916  0.00  0.00    -0.247 OA
BRANCH   9  10
HETATM   10  P           1     -23.880  -3.282 -12.876  0.00  0.00     0.411 P 
HETATM   11  O           1     -25.246  -2.929 -12.430  0.00  0.00    -0.624 OA
HETATM   12  O           1     -23.682  -2.826 -14.270  0.00  0.00    -0.624 OA
BRANCH  10  13
HETATM   13  O           1     -23.688  -4.885 -12.803  0.00  0.00    -0.300 OA
HETATM   14  H           1     -24.055  -5.211 -13.606  0.00  0.00     0.223 HD
ENDBRANCH  10  13
ENDBRANCH   9  10
ENDBRANCH   6   9
ENDBRANCH   2   3
ENDBRANCH   1   2
BRANCH   1  15
HETATM   15  C           1     -20.840  -6.442  -5.517  0.00  0.00     0.249 C 
HETATM   16  N           1     -20.317  -7.628  -5.956  0.00  0.00    -0.343 N 
HETATM   17  H           1     -20.102  -7.754  -6.937  0.00  0.00     0.163 HD
HETATM   18  O           1     -21.096  -6.292  -4.346  0.00  0.00    -0.271 OA
BRANCH  16  19
HETATM   19  C           1     -20.070  -8.705  -5.016  0.00  0.00     0.209 C 
BRANCH  19  20
HETATM   20  C           1     -18.664  -9.221  -5.203  0.00  0.00     0.198 C 
HETATM   21  O           1     -17.986  -9.559  -4.208  0.00  0.00    -0.646 OA
HETATM   22  O           1     -18.178  -9.312  -6.350  0.00  0.00    -0.646 OA
ENDBRANCH  19  20
BRANCH  19  23
HETATM   23  C           1     -21.062  -9.833  -5.264  0.00  0.00     0.200 C 
BRANCH  23  24
HETATM   24  O           1     -20.374 -11.051  -5.350  0.00  0.00    -0.398 OA
HETATM   25  H           1     -20.120 -11.160  -6.250  0.00  0.00     0.209 HD
ENDBRANCH  23  24
ENDBRANCH  19  23
ENDBRANCH  16  19
ENDBRANCH   1  15
BRANCH   1  26
HETATM   26  N           1     -20.526  -4.046  -5.953  0.00  0.00    -0.066 N 
HETATM   27  H           1     -20.732  -3.978  -4.931  0.00  0.00     0.275 HD
HETATM   28  H           1     -19.491  -4.037  -6.100  0.00  0.00     0.275 HD
HETATM   29  H           1     -20.956  -3.232  -6.449  0.00  0.00     0.275 HD
ENDBRANCH   1  26
TORSDOF 11
ENDMDL
MODEL 4
REMARK VINA RESULT:      -7.0      3.482      8.956
REMARK  11 active torsions:
REMARK  status: ('A' for Active; 'I' for Inactive)
REMARK    1  A    between atoms: O_3  and  P_4 
REMARK    2  A    between atoms: P_4  and  O_5 
REMARK    3  A    between atoms: O_5  and  C_6 
REMARK    4  A    between atoms: C_9  and  C_10 
REMARK    5  A    between atoms: C_10  and  C_11 
REMARK    6  A    between atoms: C_11  and  C_12 
REMARK    7  A    between atoms: C_11  and  N_24 
REMARK       I    between atoms: C_12  and  N_13 
REMARK    8  A    between atoms: N_13  and  C_17 
REMARK    9  A    between atoms: C_16  and  C_17 
REMARK   10  A    between atoms: C_17  and  C_18 
REMARK   11  A    between atoms: C_18  and  O_19 
ROOT
HETATM    1  C           1     -22.161  -4.785  -6.889  0.00  0.00     0.278 C 
ENDROOT
BRANCH   1   2
HETATM    2  C           1     -21.579  -6.193  -6.903  0.00  0.00     0.081 C 
BRANCH   2   3
HETATM    3  C           1     -21.340  -6.647  -5.497  0.00  0.00    -0.056 A 
HETATM    4  C           1     -21.100  -5.711  -4.491  0.00  0.00     0.010 A 
HETATM    5  C           1     -20.878  -6.134  -3.182  0.00  0.00     0.038 A 
HETATM    6  C           1     -20.895  -7.496  -2.877  0.00  0.00     0.081 A 
HETATM    7  C           1     -21.135  -8.433  -3.881  0.00  0.00     0.038 A 
HETATM    8  C           1     -21.358  -8.008  -5.192  0.00  0.00     0.010 A 
BRANCH   6   9
HETATM    9  O           1     -20.679  -7.907  -1.604  0.00  0.00    -0.247 OA
BRANCH   9  10
HETATM   10  P           1     -21.958  -8.061  -0.630  0.00  0.00     0.411 P 
HETATM   11  O           1     -22.843  -6.886  -0.789  0.00  0.00    -0.624 OA
HETATM   12  O           1     -22.702  -9.290  -0.983  0.00  0.00    -0.624 OA
BRANCH  10  13
HETATM   13  O           1     -21.460  -8.155   0.904  0.00  0.00    -0.300 OA
HETATM   14  H           1     -22.249  -8.138   1.417  0.00  0.00     0.223 HD
ENDBRANCH  10  13
ENDBRANCH   9  10
ENDBRANCH   6   9
ENDBRANCH   2   3
ENDBRANCH   1   2
BRANCH   1  15
HETATM   15  C           1     -22.018  -4.168  -8.259  0.00  0.00     0.249 C 
HETATM   16  N           1     -23.075  -4.178  -9.128  0.00  0.00    -0.343 N 
HETATM   17  H           1     -23.953  -4.599  -8.852  0.00  0.00     0.163 HD
HETATM   18  O           1     -20.971  -3.664  -8.589  0.00  0.00    -0.271 OA
BRANCH  16  19
HETATM   19  C           1     -22.938  -3.584 -10.444  0.00  0.00     0.209 C 
BRANCH  19  20
HETATM   20  C           1     -24.298  -3.171 -10.953  0.00  0.00     0.198 C 
HETATM   21  O           1     -25.281  -3.174 -10.179  0.00  0.00    -0.646 OA
HETATM   22  O           1     -24.441  -2.827 -12.145  0.00  0.00    -0.646 OA
ENDBRANCH  19  20
BRANCH  19  23
HETATM   23  C           1     -22.327  -4.602 -11.399  0.00  0.00     0.200 C 
BRANCH  23  24
HETATM   24  O           1     -21.643  -3.931 -12.422  0.00  0.00    -0.398 OA
HETATM   25  H           1     -21.281  -3.148 -12.043  0.00  0.00     0.209 HD
ENDBRANCH  23  24
ENDBRANCH  19  23
ENDBRANCH  16  19
ENDBRANCH   1  15
BRANCH   1  26
HETATM   26  N           1     -23.613  -4.849  -6.520  0.00  0.00    -0.066 N 
HETATM   27  H           1     -24.194  -4.545  -7.335  0.00  0.00     0.275 HD
HETATM   28  H           1     -23.863  -5.830  -6.262  0.00  0.00     0.275 HD
HETATM   29  H           1     -23.795  -4.216  -5.709  0.00  0.00     0.275 HD
ENDBRANCH   1  26
TORSDOF 11
ENDMDL
MODEL 5
REMARK VINA RESULT:      -6.8      1.919      2.414
REMARK  11 active torsions:
REMARK  status: ('A' for Active; 'I' for Inactive)
REMARK    1  A    between atoms: O_3  and  P_4 
REMARK    2  A    between atoms: P_4  and  O_5 
REMARK    3  A    between atoms: O_5  and  C_6 
REMARK    4  A    between atoms: C_9  and  C_10 
REMARK    5  A    between atoms: C_10  and  C_11 
REMARK    6  A    between atoms: C_11  and  C_12 
REMARK    7  A    between atoms: C_11  and  N_24 
REMARK       I    between atoms: C_12  and  N_13 
REMARK    8  A    between atoms: N_13  and  C_17 
REMARK    9  A    between atoms: C_16  and  C_17 
REMARK   10  A    between atoms: C_17  and  C_18 
REMARK   11  A    between atoms: C_18  and  O_19 
ROOT
HETATM    1  C           1     -21.389  -6.549  -6.015  0.00  0.00     0.278 C 
ENDROOT
BRANCH   1   2
HETATM    2  C           1     -20.299  -5.689  -6.641  0.00  0.00     0.081 C 
BRANCH   2   3
HETATM    3  C           1     -20.853  -4.968  -7.830  0.00  0.00    -0.056 A 
HETATM    4  C           1     -22.115  -4.378  -7.763  0.00  0.00     0.010 A 
HETATM    5  C           1     -22.631  -3.705  -8.870  0.00  0.00     0.038 A 
HETATM    6  C           1     -21.884  -3.622 -10.045  0.00  0.00     0.081 A 
HETATM    7  C           1     -20.622  -4.211 -10.113  0.00  0.00     0.038 A 
HETATM    8  C           1     -20.106  -4.884  -9.005  0.00  0.00     0.010 A 
BRANCH   6   9
HETATM    9  O           1     -22.386  -2.968 -11.121  0.00  0.00    -0.247 OA
BRANCH   9  10
HETATM   10  P           1     -23.685  -3.593 -11.849  0.00  0.00     0.411 P 
HETATM   11  O           1     -24.900  -3.229 -11.086  0.00  0.00    -0.624 OA
HETATM   12  O           1     -23.787  -3.054 -13.224  0.00  0.00    -0.624 OA
BRANCH  10  13
HETATM   13  O           1     -23.549  -5.201 -11.910  0.00  0.00    -0.300 OA
HETATM   14  H           1     -22.646  -5.361 -12.121  0.00  0.00     0.223 HD
ENDBRANCH  10  13
ENDBRANCH   9  10
ENDBRANCH   6   9
ENDBRANCH   2   3
ENDBRANCH   1   2
BRANCH   1  15
HETATM   15  C           1     -20.819  -7.898  -5.652  0.00  0.00     0.249 C 
HETATM   16  N           1     -19.719  -7.981  -4.843  0.00  0.00    -0.343 N 
HETATM   17  H           1     -19.287  -7.137  -4.489  0.00  0.00     0.163 HD
HETATM   18  O           1     -21.335  -8.906  -6.074  0.00  0.00    -0.271 OA
BRANCH  16  19
HETATM   19  C           1     -19.171  -9.277  -4.493  0.00  0.00     0.209 C 
BRANCH  19  20
HETATM   20  C           1     -18.681  -9.247  -3.066  0.00  0.00     0.198 C 
HETATM   21  O           1     -19.489  -9.048  -2.132  0.00  0.00    -0.646 OA
HETATM   22  O           1     -17.469  -9.419  -2.817  0.00  0.00    -0.646 OA
ENDBRANCH  19  20
BRANCH  19  23
HETATM   23  C           1     -18.009  -9.605  -5.421  0.00  0.00     0.200 C 
BRANCH  23  24
HETATM   24  O           1     -18.493 -10.252  -6.566  0.00  0.00    -0.398 OA
HETATM   25  H           1     -18.607 -11.160  -6.341  0.00  0.00     0.209 HD
ENDBRANCH  23  24
ENDBRANCH  19  23
ENDBRANCH  16  19
ENDBRANCH   1  15
BRANCH   1  26
HETATM   26  N           1     -21.906  -5.877  -4.779  0.00  0.00    -0.066 N 
HETATM   27  H           1     -22.270  -6.598  -4.115  0.00  0.00     0.275 HD
HETATM   28  H           1     -21.132  -5.344  -4.322  0.00  0.00     0.275 HD
HETATM   29  H           1     -22.678  -5.220  -5.035  0.00  0.00     0.275 HD
ENDBRANCH   1  26
TORSDOF 11
ENDMDL
MODEL 6
REMARK VINA RESULT:      -6.8      1.616      2.540
REMARK  11 active torsions:
REMARK  status: ('A' for Active; 'I' for Inactive)
REMARK    1  A    between atoms: O_3  and  P_4 
REMARK    2  A    between atoms: P_4  and  O_5 
REMARK    3  A    between atoms: O_5  and  C_6 
REMARK    4  A    between atoms: C_9  and  C_10 
REMARK    5  A    between atoms: C_10  and  C_11 
REMARK    6  A    between atoms: C_11  and  C_12 
REMARK    7  A    between atoms: C_11  and  N_24 
REMARK       I    between atoms: C_12  and  N_13 
REMARK    8  A    between atoms: N_13  and  C_17 
REMARK    9  A    between atoms: C_16  and  C_17 
REMARK   10  A    between atoms: C_17  and  C_18 
REMARK   11  A    between atoms: C_18  and  O_19 
ROOT
HETATM    1  C           1     -21.501  -5.903  -6.842  0.00  0.00     0.278 C 
ENDROOT
BRANCH   1   2
HETATM    2  C           1     -20.626  -4.755  -7.329  0.00  0.00     0.081 C 
BRANCH   2   3
HETATM    3  C           1     -21.166  -4.231  -8.623  0.00  0.00    -0.056 A 
HETATM    4  C           1     -22.472  -3.744  -8.689  0.00  0.00     0.010 A 
HETATM    5  C           1     -22.974  -3.255  -9.894  0.00  0.00     0.038 A 
HETATM    6  C           1     -22.170  -3.252 -11.034  0.00  0.00     0.081 A 
HETATM    7  C           1     -20.864  -3.737 -10.969  0.00  0.00     0.038 A 
HETATM    8  C           1     -20.362  -4.227  -9.762  0.00  0.00     0.010 A 
BRANCH   6   9
HETATM    9  O           1     -22.658  -2.776 -12.206  0.00  0.00    -0.247 OA
BRANCH   9  10
HETATM   10  P           1     -23.872  -3.582 -12.903  0.00  0.00     0.411 P 
HETATM   11  O           1     -23.879  -4.980 -12.419  0.00  0.00    -0.624 OA
HETATM   12  O           1     -25.157  -2.934 -12.559  0.00  0.00    -0.624 OA
BRANCH  10  13
HETATM   13  O           1     -23.676  -3.570 -14.507  0.00  0.00    -0.300 OA
HETATM   14  H           1     -22.940  -3.003 -14.658  0.00  0.00     0.223 HD
ENDBRANCH  10  13
ENDBRANCH   9  10
ENDBRANCH   6   9
ENDBRANCH   2   3
ENDBRANCH   1   2
BRANCH   1  15
HETATM   15  C           1     -20.626  -7.032  -6.355  0.00  0.00     0.249 C 
HETATM   16  N           1     -21.156  -8.019  -5.569  0.00  0.00    -0.343 N 
HETATM   17  H           1     -22.135  -7.992  -5.315  0.00  0.00     0.163 HD
HETATM   18  O           1     -19.457  -7.065  -6.659  0.00  0.00    -0.271 OA
BRANCH  16  19
HETATM   19  C           1     -20.315  -9.105  -5.102  0.00  0.00     0.209 C 
BRANCH  19  20
HETATM   20  C           1     -21.007 -10.421  -5.357  0.00  0.00     0.198 C 
HETATM   21  O           1     -21.052 -10.889  -6.516  0.00  0.00    -0.646 OA
HETATM   22  O           1     -21.534 -11.044  -4.411  0.00  0.00    -0.646 OA
ENDBRANCH  19  20
BRANCH  19  23
HETATM   23  C           1     -20.064  -8.944  -3.608  0.00  0.00     0.200 C 
BRANCH  23  24
HETATM   24  O           1     -21.194  -8.379  -3.001  0.00  0.00    -0.398 OA
HETATM   25  H           1     -21.948  -8.727  -3.447  0.00  0.00     0.209 HD
ENDBRANCH  23  24
ENDBRANCH  19  23
ENDBRANCH  16  19
ENDBRANCH   1  15
BRANCH   1  26
HETATM   26  N           1     -22.370  -5.425  -5.717  0.00  0.00    -0.066 N 
HETATM   27  H           1     -22.949  -4.617  -6.042  0.00  0.00     0.275 HD
HETATM   28  H           1     -23.000  -6.201  -5.410  0.00  0.00     0.275 HD
HETATM   29  H           1     -21.771  -5.124  -4.916  0.00  0.00     0.275 HD
ENDBRANCH   1  26
TORSDOF 11
ENDMDL
MODEL 7
REMARK VINA RESULT:      -6.8      2.021      2.886
REMARK  11 active torsions:
REMARK  status: ('A' for Active; 'I' for Inactive)
REMARK    1  A    between atoms: O_3  and  P_4 
REMARK    2  A    between atoms: P_4  and  O_5 
REMARK    3  A    between atoms: O_5  and  C_6 
REMARK    4  A    between atoms: C_9  and  C_10 
REMARK    5  A    between atoms: C_10  and  C_11 
REMARK    6  A    between atoms: C_11  and  C_12 
REMARK    7  A    between atoms: C_11  and  N_24 
REMARK       I    between atoms: C_12  and  N_13 
REMARK    8  A    between atoms: N_13  and  C_17 
REMARK    9  A    between atoms: C_16  and  C_17 
REMARK   10  A    between atoms: C_17  and  C_18 
REMARK   11  A    between atoms: C_18  and  O_19 
ROOT
HETATM    1  C           1     -21.486  -6.472  -5.279  0.00  0.00     0.278 C 
ENDROOT
BRANCH   1   2
HETATM    2  C           1     -20.448  -5.511  -5.843  0.00  0.00     0.081 C 
BRANCH   2   3
HETATM    3  C           1     -20.947  -4.936  -7.132  0.00  0.00    -0.056 A 
HETATM    4  C           1     -20.164  -5.020  -8.284  0.00  0.00     0.010 A 
HETATM    5  C           1     -20.630  -4.486  -9.484  0.00  0.00     0.038 A 
HETATM    6  C           1     -21.880  -3.867  -9.534  0.00  0.00     0.081 A 
HETATM    7  C           1     -22.663  -3.783  -8.383  0.00  0.00     0.038 A 
HETATM    8  C           1     -22.196  -4.318  -7.181  0.00  0.00     0.010 A 
BRANCH   6   9
HETATM    9  O           1     -22.332  -3.348 -10.701  0.00  0.00    -0.247 OA
BRANCH   9  10
HETATM   10  P           1     -23.652  -4.003 -11.360  0.00  0.00     0.411 P 
HETATM   11  O           1     -23.841  -5.372 -10.830  0.00  0.00    -0.624 OA
HETATM   12  O           1     -24.834  -3.177 -11.025  0.00  0.00    -0.624 OA
BRANCH  10  13
HETATM   13  O           1     -23.479  -4.067 -12.965  0.00  0.00    -0.300 OA
HETATM   14  H           1     -24.358  -4.088 -13.304  0.00  0.00     0.223 HD
ENDBRANCH  10  13
ENDBRANCH   9  10
ENDBRANCH   6   9
ENDBRANCH   2   3
ENDBRANCH   1   2
BRANCH   1  15
HETATM   15  C           1     -20.893  -7.857  -5.189  0.00  0.00     0.249 C 
HETATM   16  N           1     -20.119  -8.201  -4.114  0.00  0.00    -0.343 N 
HETATM   17  H           1     -19.944  -7.526  -3.381  0.00  0.00     0.163 HD
HETATM   18  O           1     -21.102  -8.662  -6.064  0.00  0.00    -0.271 OA
BRANCH  16  19
HETATM   19  C           1     -19.549  -9.532  -4.026  0.00  0.00     0.209 C 
BRANCH  19  20
HETATM   20  C           1     -20.351 -10.358  -3.051  0.00  0.00     0.198 C 
HETATM   21  O           1     -20.740  -9.852  -1.975  0.00  0.00    -0.646 OA
HETATM   22  O           1     -20.627 -11.547  -3.319  0.00  0.00    -0.646 OA
ENDBRANCH  19  20
BRANCH  19  23
HETATM   23  C           1     -18.108  -9.436  -3.545  0.00  0.00     0.200 C 
BRANCH  23  24
HETATM   24  O           1     -17.858 -10.450  -2.609  0.00  0.00    -0.398 OA
HETATM   25  H           1     -18.610 -11.018  -2.614  0.00  0.00     0.209 HD
ENDBRANCH  23  24
ENDBRANCH  19  23
ENDBRANCH  16  19
ENDBRANCH   1  15
BRANCH   1  26
HETATM   26  N           1     -21.898  -6.016  -3.912  0.00  0.00    -0.066 N 
HETATM   27  H           1     -22.619  -6.669  -3.528  0.00  0.00     0.275 HD
HETATM   28  H           1     -21.065  -6.010  -3.281  0.00  0.00     0.275 HD
HETATM   29  H           1     -22.299  -5.052  -3.971  0.00  0.00     0.275 HD
ENDBRANCH   1  26
TORSDOF 11
ENDMDL
MODEL 8
REMARK VINA RESULT:      -6.7      3.628      9.164
REMARK  11 active torsions:
REMARK  status: ('A' for Active; 'I' for Inactive)
REMARK    1  A    between atoms: O_3  and  P_4 
REMARK    2  A    between atoms: P_4  and  O_5 
REMARK    3  A    between atoms: O_5  and  C_6 
REMARK    4  A    between atoms: C_9  and  C_10 
REMARK    5  A    between atoms: C_10  and  C_11 
REMARK    6  A    between atoms: C_11  and  C_12 
REMARK    7  A    between atoms: C_11  and  N_24 
REMARK       I    between atoms: C_12  and  N_13 
REMARK    8  A    between atoms: N_13  and  C_17 
REMARK    9  A    between atoms: C_16  and  C_17 
REMARK   10  A    between atoms: C_17  and  C_18 
REMARK   11  A    between atoms: C_18  and  O_19 
ROOT
HETATM    1  C           1     -21.138  -5.474  -6.541  0.00  0.00     0.278 C 
ENDROOT
BRANCH   1   2
HETATM    2  C           1     -22.267  -5.914  -5.618  0.00  0.00     0.081 C 
BRANCH   2   3
HETATM    3  C           1     -21.717  -6.802  -4.546  0.00  0.00    -0.056 A 
HETATM    4  C           1     -21.260  -8.081  -4.865  0.00  0.00     0.010 A 
HETATM    5  C           1     -20.746  -8.908  -3.866  0.00  0.00     0.038 A 
HETATM    6  C           1     -20.691  -8.456  -2.547  0.00  0.00     0.081 A 
HETATM    7  C           1     -21.147  -7.178  -2.228  0.00  0.00     0.038 A 
HETATM    8  C           1     -21.660  -6.350  -3.228  0.00  0.00     0.010 A 
BRANCH   6   9
HETATM    9  O           1     -20.192  -9.259  -1.577  0.00  0.00    -0.247 OA
BRANCH   9  10
HETATM   10  P           1     -21.224  -9.876  -0.499  0.00  0.00     0.411 P 
HETATM   11  O           1     -20.750 -11.210  -0.069  0.00  0.00    -0.624 OA
HETATM   12  O           1     -21.305  -8.979   0.676  0.00  0.00    -0.624 OA
BRANCH  10  13
HETATM   13  O           1     -22.687 -10.015  -1.171  0.00  0.00    -0.300 OA
HETATM   14  H           1     -22.948  -9.133  -1.369  0.00  0.00     0.223 HD
ENDBRANCH  10  13
ENDBRANCH   9  10
ENDBRANCH   6   9
ENDBRANCH   2   3
ENDBRANCH   1   2
BRANCH   1  15
HETATM   15  C           1     -21.636  -4.387  -7.462  0.00  0.00     0.249 C 
HETATM   16  N           1     -22.280  -4.716  -8.625  0.00  0.00    -0.343 N 
HETATM   17  H           1     -22.421  -5.689  -8.866  0.00  0.00     0.163 HD
HETATM   18  O           1     -21.468  -3.226  -7.174  0.00  0.00    -0.271 OA
BRANCH  16  19
HETATM   19  C           1     -22.759  -3.672  -9.510  0.00  0.00     0.209 C 
BRANCH  19  20
HETATM   20  C           1     -24.252  -3.808  -9.685  0.00  0.00     0.198 C 
HETATM   21  O           1     -24.987  -2.802  -9.580  0.00  0.00    -0.646 OA
HETATM   22  O           1     -24.752  -4.926  -9.935  0.00  0.00    -0.646 OA
ENDBRANCH  19  20
BRANCH  19  23
HETATM   23  C           1     -22.075  -3.802 -10.864  0.00  0.00     0.200 C 
BRANCH  23  24
HETATM   24  O           1     -22.964  -3.414 -11.877  0.00  0.00    -0.398 OA
HETATM   25  H           1     -22.613  -2.630 -12.264  0.00  0.00     0.209 HD
ENDBRANCH  23  24
ENDBRANCH  19  23
ENDBRANCH  16  19
ENDBRANCH   1  15
BRANCH   1  26
HETATM   26  N           1     -19.999  -4.949  -5.721  0.00  0.00    -0.066 N 
HETATM   27  H           1     -19.716  -4.008  -6.077  0.00  0.00     0.275 HD
HETATM   28  H           1     -20.297  -4.867  -4.722  0.00  0.00     0.275 HD
HETATM   29  H           1     -19.188  -5.604  -5.790  0.00  0.00     0.275 HD
ENDBRANCH   1  26
TORSDOF 11
ENDMDL
MODEL 9
REMARK VINA RESULT:      -6.6      3.483      9.014
REMARK  11 active torsions:
REMARK  status: ('A' for Active; 'I' for Inactive)
REMARK    1  A    between atoms: O_3  and  P_4 
REMARK    2  A    between atoms: P_4  and  O_5 
REMARK    3  A    between atoms: O_5  and  C_6 
REMARK    4  A    between atoms: C_9  and  C_10 
REMARK    5  A    between atoms: C_10  and  C_11 
REMARK    6  A    between atoms: C_11  and  C_12 
REMARK    7  A    between atoms: C_11  and  N_24 
REMARK       I    between atoms: C_12  and  N_13 
REMARK    8  A    between atoms: N_13  and  C_17 
REMARK    9  A    between atoms: C_16  and  C_17 
REMARK   10  A    between atoms: C_17  and  C_18 
REMARK   11  A    between atoms: C_18  and  O_19 
ROOT
HETATM    1  C           1     -21.047  -5.646  -7.063  0.00  0.00     0.278 C 
ENDROOT
BRANCH   1   2
HETATM    2  C           1     -20.909  -5.142  -5.632  0.00  0.00     0.081 C 
BRANCH   2   3
HETATM    3  C           1     -21.155  -6.270  -4.680  0.00  0.00    -0.056 A 
HETATM    4  C           1     -21.351  -7.564  -5.165  0.00  0.00     0.010 A 
HETATM    5  C           1     -21.579  -8.615  -4.277  0.00  0.00     0.038 A 
HETATM    6  C           1     -21.611  -8.373  -2.904  0.00  0.00     0.081 A 
HETATM    7  C           1     -21.415  -7.081  -2.418  0.00  0.00     0.038 A 
HETATM    8  C           1     -21.186  -6.029  -3.306  0.00  0.00     0.010 A 
BRANCH   6   9
HETATM    9  O           1     -21.833  -9.395  -2.042  0.00  0.00    -0.247 OA
BRANCH   9  10
HETATM   10  P           1     -20.616 -10.413  -1.745  0.00  0.00     0.411 P 
HETATM   11  O           1     -19.332  -9.760  -2.083  0.00  0.00    -0.624 OA
HETATM   12  O           1     -20.619 -10.782  -0.312  0.00  0.00    -0.624 OA
BRANCH  10  13
HETATM   13  O           1     -20.795 -11.744  -2.643  0.00  0.00    -0.300 OA
HETATM   14  H           1     -20.200 -11.633  -3.364  0.00  0.00     0.223 HD
ENDBRANCH  10  13
ENDBRANCH   9  10
ENDBRANCH   6   9
ENDBRANCH   2   3
ENDBRANCH   1   2
BRANCH   1  15
HETATM   15  C           1     -21.506  -4.516  -7.952  0.00  0.00     0.249 C 
HETATM   16  N           1     -21.709  -4.736  -9.288  0.00  0.00    -0.343 N 
HETATM   17  H           1     -21.551  -5.656  -9.679  0.00  0.00     0.163 HD
HETATM   18  O           1     -21.695  -3.418  -7.486  0.00  0.00    -0.271 OA
BRANCH  16  19
HETATM   19  C           1     -22.150  -3.651 -10.143  0.00  0.00     0.209 C 
BRANCH  19  20
HETATM   20  C           1     -23.514  -3.974 -10.701  0.00  0.00     0.198 C 
HETATM   21  O           1     -24.350  -3.060 -10.876  0.00  0.00    -0.646 OA
HETATM   22  O           1     -23.809  -5.154 -10.988  0.00  0.00    -0.646 OA
ENDBRANCH  19  20
BRANCH  19  23
HETATM   23  C           1     -21.162  -3.473 -11.288  0.00  0.00     0.200 C 
BRANCH  23  24
HETATM   24  O           1     -21.811  -3.712 -12.508  0.00  0.00    -0.398 OA
HETATM   25  H           1     -22.667  -4.050 -12.302  0.00  0.00     0.209 HD
ENDBRANCH  23  24
ENDBRANCH  19  23
ENDBRANCH  16  19
ENDBRANCH   1  15
BRANCH   1  26
HETATM   26  N           1     -19.720  -6.152  -7.544  0.00  0.00    -0.066 N 
HETATM   27  H           1     -19.102  -5.343  -7.779  0.00  0.00     0.275 HD
HETATM   28  H           1     -19.273  -6.724  -6.792  0.00  0.00     0.275 HD
HETATM   29  H           1     -19.859  -6.741  -8.396  0.00  0.00     0.275 HD
ENDBRANCH   1  26
TORSDOF 11
ENDMDL
