MODEL 1
REMARK VINA RESULT:      -6.3      0.000      0.000
REMARK  6 active torsions:
REMARK  status: ('A' for Active; 'I' for Inactive)
REMARK    1  A    between atoms: C_5  and  C_12 
REMARK       I    between atoms: C_8  and  N_11 
REMARK    2  A    between atoms: C_8  and  C_13 
REMARK    3  A    between atoms: N_11  and  C_16 
REMARK    4  A    between atoms: C_12  and  C_16 
REMARK    5  A    between atoms: C_13  and  N_14 
REMARK    6  A    between atoms: C_15  and  C_16 
ROOT
HETATM    1  O           1     -23.494  -3.352 -14.920  0.00  0.00    -0.272 OA
HETATM    2  H           1     -22.938  -1.107 -12.800  0.00  0.00     0.163 HD
HETATM    3  C           1     -23.248  -2.247 -14.500  0.00  0.00     0.243 C 
HETATM    4  N           1     -23.146  -2.034 -13.151  0.00  0.00    -0.345 N 
ENDROOT
BRANCH   4   5
HETATM    5  C           1     -23.334  -3.135 -12.227  0.00  0.00     0.185 C 
BRANCH   5   6
HETATM    6  C           1     -22.389  -2.971 -11.044  0.00  0.00     0.040 C 
BRANCH   6   7
HETATM    7  C           1     -21.791  -4.323 -10.681  0.00  0.00    -0.020 C 
HETATM    8  C           1     -20.302  -4.322 -11.004  0.00  0.00     0.009 C 
HETATM    9  C           1     -21.987  -4.582  -9.193  0.00  0.00     0.009 C 
ENDBRANCH   6   7
ENDBRANCH   5   6
BRANCH   5  10
HETATM   10  C           1     -24.761  -3.138 -11.735  0.00  0.00     0.196 C 
HETATM   11  O           1     -25.003  -3.297 -10.519  0.00  0.00    -0.646 OA
HETATM   12  O           1     -25.701  -2.982 -12.545  0.00  0.00    -0.646 OA
ENDBRANCH   5  10
ENDBRANCH   4   5
BRANCH   3  13
HETATM   13  C           1     -23.051  -1.101 -15.462  0.00  0.00     0.332 C 
BRANCH  13  14
HETATM   14  N           1     -24.159  -0.106 -15.287  0.00  0.00    -0.071 N 
HETATM   15  H           1     -25.032  -0.474 -15.731  0.00  0.00     0.274 HD
HETATM   16  H           1     -24.329   0.054 -14.268  0.00  0.00     0.274 HD
HETATM   17  H           1     -23.892   0.797 -15.741  0.00  0.00     0.274 HD
ENDBRANCH  13  14
ENDBRANCH   3  13
TORSDOF 6
ENDMDL
MODEL 2
REMARK VINA RESULT:      -5.7      1.708      2.136
REMARK  6 active torsions:
REMARK  status: ('A' for Active; 'I' for Inactive)
REMARK    1  A    between atoms: C_5  and  C_12 
REMARK       I    between atoms: C_8  and  N_11 
REMARK    2  A    between atoms: C_8  and  C_13 
REMARK    3  A    between atoms: N_11  and  C_16 
REMARK    4  A    between atoms: C_12  and  C_16 
REMARK    5  A    between atoms: C_13  and  N_14 
REMARK    6  A    between atoms: C_15  and  C_16 
ROOT
HETATM    1  O           1     -23.903  -4.438 -12.986  0.00  0.00    -0.272 OA
HETATM    2  H           1     -22.703  -2.005 -11.411  0.00  0.00     0.163 HD
HETATM    3  C           1     -23.483  -3.320 -12.806  0.00  0.00     0.243 C 
HETATM    4  N           1     -23.055  -2.942 -11.561  0.00  0.00    -0.345 N 
ENDROOT
BRANCH   4   5
HETATM    5  C           1     -23.106  -3.883 -10.460  0.00  0.00     0.185 C 
BRANCH   5   6
HETATM    6  C           1     -22.083  -3.484  -9.404  0.00  0.00     0.040 C 
BRANCH   6   7
HETATM    7  C           1     -20.973  -4.525  -9.352  0.00  0.00    -0.020 C 
HETATM    8  C           1     -20.202  -4.510 -10.665  0.00  0.00     0.009 C 
HETATM    9  C           1     -20.027  -4.200  -8.203  0.00  0.00     0.009 C 
ENDBRANCH   6   7
ENDBRANCH   5   6
BRANCH   5  10
HETATM   10  C           1     -24.487  -3.871  -9.853  0.00  0.00     0.196 C 
HETATM   11  O           1     -25.037  -2.785  -9.569  0.00  0.00    -0.646 OA
HETATM   12  O           1     -25.083  -4.949  -9.635  0.00  0.00    -0.646 OA
ENDBRANCH   5  10
ENDBRANCH   4   5
BRANCH   3  13
HETATM   13  C           1     -23.430  -2.340 -13.952  0.00  0.00     0.332 C 
BRANCH  13  14
HETATM   14  N           1     -22.469  -2.837 -14.990  0.00  0.00    -0.071 N 
HETATM   15  H           1     -22.908  -2.764 -15.936  0.00  0.00     0.274 HD
HETATM   16  H           1     -21.598  -2.258 -14.965  0.00  0.00     0.274 HD
HETATM   17  H           1     -22.228  -3.835 -14.793  0.00  0.00     0.274 HD
ENDBRANCH  13  14
ENDBRANCH   3  13
TORSDOF 6
ENDMDL
MODEL 3
REMARK VINA RESULT:      -5.2      5.037      7.260
REMARK  6 active torsions:
REMARK  status: ('A' for Active; 'I' for Inactive)
REMARK    1  A    between atoms: C_5  and  C_12 
REMARK       I    between atoms: C_8  and  N_11 
REMARK    2  A    between atoms: C_8  and  C_13 
REMARK    3  A    between atoms: N_11  and  C_16 
REMARK    4  A    between atoms: C_12  and  C_16 
REMARK    5  A    between atoms: C_13  and  N_14 
REMARK    6  A    between atoms: C_15  and  C_16 
ROOT
HETATM    1  O           1     -20.945  -6.857  -6.928  0.00  0.00    -0.272 OA
HETATM    2  H           1     -21.737  -3.858  -6.461  0.00  0.00     0.163 HD
HETATM    3  C           1     -21.185  -5.847  -6.311  0.00  0.00     0.243 C 
HETATM    4  N           1     -21.535  -4.704  -6.979  0.00  0.00    -0.345 N 
ENDROOT
BRANCH   4   5
HETATM    5  C           1     -21.616  -4.705  -8.426  0.00  0.00     0.185 C 
BRANCH   5   6
HETATM    6  C           1     -22.615  -3.648  -8.879  0.00  0.00     0.040 C 
BRANCH   6   7
HETATM    7  C           1     -23.822  -4.327  -9.511  0.00  0.00    -0.020 C 
HETATM    8  C           1     -24.950  -3.314  -9.665  0.00  0.00     0.009 C 
HETATM    9  C           1     -23.439  -4.873 -10.880  0.00  0.00     0.009 C 
ENDBRANCH   6   7
ENDBRANCH   5   6
BRANCH   5  10
HETATM   10  C           1     -20.258  -4.396  -9.005  0.00  0.00     0.196 C 
HETATM   11  O           1     -19.438  -3.718  -8.349  0.00  0.00    -0.646 OA
HETATM   12  O           1     -19.952  -4.820 -10.141  0.00  0.00    -0.646 OA
ENDBRANCH   5  10
ENDBRANCH   4   5
BRANCH   3  13
HETATM   13  C           1     -21.101  -5.845  -4.804  0.00  0.00     0.332 C 
BRANCH  13  14
HETATM   14  N           1     -22.423  -6.257  -4.229  0.00  0.00    -0.071 N 
HETATM   15  H           1     -22.307  -6.488  -3.216  0.00  0.00     0.274 HD
HETATM   16  H           1     -23.108  -5.474  -4.331  0.00  0.00     0.274 HD
HETATM   17  H           1     -22.779  -7.097  -4.739  0.00  0.00     0.274 HD
ENDBRANCH  13  14
ENDBRANCH   3  13
TORSDOF 6
ENDMDL
MODEL 4
REMARK VINA RESULT:      -5.0      6.755      8.998
REMARK  6 active torsions:
REMARK  status: ('A' for Active; 'I' for Inactive)
REMARK    1  A    between atoms: C_5  and  C_12 
REMARK       I    between atoms: C_8  and  N_11 
REMARK    2  A    between atoms: C_8  and  C_13 
REMARK    3  A    between atoms: N_11  and  C_16 
REMARK    4  A    between atoms: C_12  and  C_16 
REMARK    5  A    between atoms: C_13  and  N_14 
REMARK    6  A    between atoms: C_15  and  C_16 
ROOT
HETATM    1  O           1     -19.643  -4.555  -5.931  0.00  0.00    -0.272 OA
HETATM    2  H           1     -22.447  -5.956  -6.059  0.00  0.00     0.163 HD
HETATM    3  C           1     -20.787  -4.738  -6.272  0.00  0.00     0.243 C 
HETATM    4  N           1     -21.488  -5.803  -5.772  0.00  0.00    -0.345 N 
ENDROOT
BRANCH   4   5
HETATM    5  C           1     -20.859  -6.709  -4.833  0.00  0.00     0.185 C 
BRANCH   5   6
HETATM    6  C           1     -21.851  -7.074  -3.736  0.00  0.00     0.040 C 
BRANCH   6   7
HETATM    7  C           1     -21.223  -6.811  -2.374  0.00  0.00    -0.020 C 
HETATM    8  C           1     -22.315  -6.468  -1.370  0.00  0.00     0.009 C 
HETATM    9  C           1     -20.479  -8.056  -1.910  0.00  0.00     0.009 C 
ENDBRANCH   6   7
ENDBRANCH   5   6
BRANCH   5  10
HETATM   10  C           1     -20.425  -7.961  -5.556  0.00  0.00     0.196 C 
HETATM   11  O           1     -19.287  -8.025  -6.068  0.00  0.00    -0.646 OA
HETATM   12  O           1     -21.206  -8.934  -5.643  0.00  0.00    -0.646 OA
ENDBRANCH   5  10
ENDBRANCH   4   5
BRANCH   3  13
HETATM   13  C           1     -21.443  -3.795  -7.250  0.00  0.00     0.332 C 
BRANCH  13  14
HETATM   14  N           1     -22.882  -4.177  -7.425  0.00  0.00    -0.071 N 
HETATM   15  H           1     -23.415  -3.364  -7.810  0.00  0.00     0.274 HD
HETATM   16  H           1     -22.952  -4.983  -8.086  0.00  0.00     0.274 HD
HETATM   17  H           1     -23.285  -4.451  -6.500  0.00  0.00     0.274 HD
ENDBRANCH  13  14
ENDBRANCH   3  13
TORSDOF 6
ENDMDL
MODEL 5
REMARK VINA RESULT:      -4.9     15.796     17.224
REMARK  6 active torsions:
REMARK  status: ('A' for Active; 'I' for Inactive)
REMARK    1  A    between atoms: C_5  and  C_12 
REMARK       I    between atoms: C_8  and  N_11 
REMARK    2  A    between atoms: C_8  and  C_13 
REMARK    3  A    between atoms: N_11  and  C_16 
REMARK    4  A    between atoms: C_12  and  C_16 
REMARK    5  A    between atoms: C_13  and  N_14 
REMARK    6  A    between atoms: C_15  and  C_16 
ROOT
HETATM    1  O           1     -12.908   7.719 -19.338  0.00  0.00    -0.272 OA
HETATM    2  H           1     -10.866   7.629 -21.719  0.00  0.00     0.163 HD
HETATM    3  C           1     -12.295   8.113 -20.302  0.00  0.00     0.243 C 
HETATM    4  N           1     -11.378   7.298 -20.911  0.00  0.00    -0.345 N 
ENDROOT
BRANCH   4   5
HETATM    5  C           1     -11.142   5.962 -20.399  0.00  0.00     0.185 C 
BRANCH   5   6
HETATM    6  C           1     -11.024   4.987 -21.562  0.00  0.00     0.040 C 
BRANCH   6   7
HETATM    7  C           1     -11.921   3.782 -21.308  0.00  0.00    -0.020 C 
HETATM    8  C           1     -11.102   2.666 -20.673  0.00  0.00     0.009 C 
HETATM    9  C           1     -13.051   4.180 -20.368  0.00  0.00     0.009 C 
ENDBRANCH   6   7
ENDBRANCH   5   6
BRANCH   5  10
HETATM   10  C           1      -9.863   5.951 -19.599  0.00  0.00     0.196 C 
HETATM   11  O           1      -9.894   5.714 -18.372  0.00  0.00    -0.646 OA
HETATM   12  O           1      -8.771   6.177 -20.165  0.00  0.00    -0.646 OA
ENDBRANCH   5  10
ENDBRANCH   4   5
BRANCH   3  13
HETATM   13  C           1     -12.541   9.503 -20.836  0.00  0.00     0.332 C 
BRANCH  13  14
HETATM   14  N           1     -13.093  10.368 -19.742  0.00  0.00    -0.071 N 
HETATM   15  H           1     -13.725   9.800 -19.133  0.00  0.00     0.274 HD
HETATM   16  H           1     -12.307  10.749 -19.168  0.00  0.00     0.274 HD
HETATM   17  H           1     -13.631  11.159 -20.162  0.00  0.00     0.274 HD
ENDBRANCH  13  14
ENDBRANCH   3  13
TORSDOF 6
ENDMDL
MODEL 6
REMARK VINA RESULT:      -4.8      7.497      9.491
REMARK  6 active torsions:
REMARK  status: ('A' for Active; 'I' for Inactive)
REMARK    1  A    between atoms: C_5  and  C_12 
REMARK       I    between atoms: C_8  and  N_11 
REMARK    2  A    between atoms: C_8  and  C_13 
REMARK    3  A    between atoms: N_11  and  C_16 
REMARK    4  A    between atoms: C_12  and  C_16 
REMARK    5  A    between atoms: C_13  and  N_14 
REMARK    6  A    between atoms: C_15  and  C_16 
ROOT
HETATM    1  O           1     -19.440  -8.717  -4.236  0.00  0.00    -0.272 OA
HETATM    2  H           1     -21.671  -8.518  -6.433  0.00  0.00     0.163 HD
HETATM    3  C           1     -20.249  -9.101  -5.046  0.00  0.00     0.243 C 
HETATM    4  N           1     -20.993  -8.195  -5.753  0.00  0.00    -0.345 N 
ENDROOT
BRANCH   4   5
HETATM    5  C           1     -20.810  -6.775  -5.530  0.00  0.00     0.185 C 
BRANCH   5   6
HETATM    6  C           1     -20.869  -6.040  -6.862  0.00  0.00     0.040 C 
BRANCH   6   7
HETATM    7  C           1     -20.312  -4.633  -6.692  0.00  0.00    -0.020 C 
HETATM    8  C           1     -19.015  -4.503  -7.480  0.00  0.00     0.009 C 
HETATM    9  C           1     -21.325  -3.620  -7.210  0.00  0.00     0.009 C 
ENDBRANCH   6   7
ENDBRANCH   5   6
BRANCH   5  10
HETATM   10  C           1     -21.904  -6.265  -4.624  0.00  0.00     0.196 C 
HETATM   11  O           1     -23.074  -6.160  -5.053  0.00  0.00    -0.646 OA
HETATM   12  O           1     -21.640  -5.948  -3.443  0.00  0.00    -0.646 OA
ENDBRANCH   5  10
ENDBRANCH   4   5
BRANCH   3  13
HETATM   13  C           1     -20.439 -10.580  -5.279  0.00  0.00     0.332 C 
BRANCH  13  14
HETATM   14  N           1     -19.568 -11.023  -6.417  0.00  0.00    -0.071 N 
HETATM   15  H           1     -20.159 -11.470  -7.155  0.00  0.00     0.274 HD
HETATM   16  H           1     -19.074 -10.195  -6.822  0.00  0.00     0.274 HD
HETATM   17  H           1     -18.864 -11.712  -6.070  0.00  0.00     0.274 HD
ENDBRANCH  13  14
ENDBRANCH   3  13
TORSDOF 6
ENDMDL
MODEL 7
REMARK VINA RESULT:      -4.8     11.652     13.554
REMARK  6 active torsions:
REMARK  status: ('A' for Active; 'I' for Inactive)
REMARK    1  A    between atoms: C_5  and  C_12 
REMARK       I    between atoms: C_8  and  N_11 
REMARK    2  A    between atoms: C_8  and  C_13 
REMARK    3  A    between atoms: N_11  and  C_16 
REMARK    4  A    between atoms: C_12  and  C_16 
REMARK    5  A    between atoms: C_13  and  N_14 
REMARK    6  A    between atoms: C_15  and  C_16 
ROOT
HETATM    1  O           1     -22.980  -7.289  -0.183  0.00  0.00    -0.272 OA
HETATM    2  H           1     -21.192  -8.473  -2.473  0.00  0.00     0.163 HD
HETATM    3  C           1     -22.291  -7.293  -1.175  0.00  0.00     0.243 C 
HETATM    4  N           1     -21.768  -8.470  -1.641  0.00  0.00    -0.345 N 
ENDROOT
BRANCH   4   5
HETATM    5  C           1     -22.042  -9.711  -0.944  0.00  0.00     0.185 C 
BRANCH   5   6
HETATM    6  C           1     -22.659 -10.712  -1.912  0.00  0.00     0.040 C 
BRANCH   6   7
HETATM    7  C           1     -23.906 -11.321  -1.287  0.00  0.00    -0.020 C 
HETATM    8  C           1     -23.695 -12.816  -1.087  0.00  0.00     0.009 C 
HETATM    9  C           1     -24.173 -10.661   0.060  0.00  0.00     0.009 C 
ENDBRANCH   6   7
ENDBRANCH   5   6
BRANCH   5  10
HETATM   10  C           1     -20.753 -10.271  -0.393  0.00  0.00     0.196 C 
HETATM   11  O           1     -20.658 -10.542   0.823  0.00  0.00    -0.646 OA
HETATM   12  O           1     -19.781 -10.466  -1.155  0.00  0.00    -0.646 OA
ENDBRANCH   5  10
ENDBRANCH   4   5
BRANCH   3  13
HETATM   13  C           1     -22.007  -6.001  -1.902  0.00  0.00     0.332 C 
BRANCH  13  14
HETATM   14  N           1     -22.118  -6.225  -3.380  0.00  0.00    -0.071 N 
HETATM   15  H           1     -21.534  -7.048  -3.653  0.00  0.00     0.274 HD
HETATM   16  H           1     -23.115  -6.407  -3.633  0.00  0.00     0.274 HD
HETATM   17  H           1     -21.781  -5.376  -3.888  0.00  0.00     0.274 HD
ENDBRANCH  13  14
ENDBRANCH   3  13
TORSDOF 6
ENDMDL
MODEL 8
REMARK VINA RESULT:      -4.6     10.423     11.853
REMARK  6 active torsions:
REMARK  status: ('A' for Active; 'I' for Inactive)
REMARK    1  A    between atoms: C_5  and  C_12 
REMARK       I    between atoms: C_8  and  N_11 
REMARK    2  A    between atoms: C_8  and  C_13 
REMARK    3  A    between atoms: N_11  and  C_16 
REMARK    4  A    between atoms: C_12  and  C_16 
REMARK    5  A    between atoms: C_13  and  N_14 
REMARK    6  A    between atoms: C_15  and  C_16 
ROOT
HETATM    1  O           1     -21.702 -10.289  -3.750  0.00  0.00    -0.272 OA
HETATM    2  H           1     -19.730  -7.853  -3.608  0.00  0.00     0.163 HD
HETATM    3  C           1     -20.719  -9.630  -3.993  0.00  0.00     0.243 C 
HETATM    4  N           1     -20.554  -8.404  -3.405  0.00  0.00    -0.345 N 
ENDROOT
BRANCH   4   5
HETATM    5  C           1     -21.559  -7.898  -2.491  0.00  0.00     0.185 C 
BRANCH   5   6
HETATM    6  C           1     -21.038  -7.987  -1.063  0.00  0.00     0.040 C 
BRANCH   6   7
HETATM    7  C           1     -21.942  -8.902  -0.248  0.00  0.00    -0.020 C 
HETATM    8  C           1     -21.104  -9.672   0.765  0.00  0.00     0.009 C 
HETATM    9  C           1     -22.982  -8.065   0.485  0.00  0.00     0.009 C 
ENDBRANCH   6   7
ENDBRANCH   5   6
BRANCH   5  10
HETATM   10  C           1     -21.862  -6.458  -2.827  0.00  0.00     0.196 C 
HETATM   11  O           1     -22.172  -5.656  -1.920  0.00  0.00    -0.646 OA
HETATM   12  O           1     -21.802  -6.068  -4.014  0.00  0.00    -0.646 OA
ENDBRANCH   5  10
ENDBRANCH   4   5
BRANCH   3  13
HETATM   13  C           1     -19.672 -10.158  -4.943  0.00  0.00     0.332 C 
BRANCH  13  14
HETATM   14  N           1     -19.067  -9.016  -5.703  0.00  0.00    -0.071 N 
HETATM   15  H           1     -19.643  -8.156  -5.558  0.00  0.00     0.274 HD
HETATM   16  H           1     -18.094  -8.845  -5.361  0.00  0.00     0.274 HD
HETATM   17  H           1     -19.040  -9.250  -6.721  0.00  0.00     0.274 HD
ENDBRANCH  13  14
ENDBRANCH   3  13
TORSDOF 6
ENDMDL
MODEL 9
REMARK VINA RESULT:      -4.6      9.617     12.074
REMARK  6 active torsions:
REMARK  status: ('A' for Active; 'I' for Inactive)
REMARK    1  A    between atoms: C_5  and  C_12 
REMARK       I    between atoms: C_8  and  N_11 
REMARK    2  A    between atoms: C_8  and  C_13 
REMARK    3  A    between atoms: N_11  and  C_16 
REMARK    4  A    between atoms: C_12  and  C_16 
REMARK    5  A    between atoms: C_13  and  N_14 
REMARK    6  A    between atoms: C_15  and  C_16 
ROOT
HETATM    1  O           1     -21.751  -5.952  -2.744  0.00  0.00    -0.272 OA
HETATM    2  H           1     -21.198  -8.738  -4.077  0.00  0.00     0.163 HD
HETATM    3  C           1     -21.744  -6.798  -3.607  0.00  0.00     0.243 C 
HETATM    4  N           1     -21.203  -8.030  -3.354  0.00  0.00    -0.345 N 
ENDROOT
BRANCH   4   5
HETATM    5  C           1     -20.639  -8.321  -2.051  0.00  0.00     0.185 C 
BRANCH   5   6
HETATM    6  C           1     -21.718  -8.907  -1.151  0.00  0.00     0.040 C 
BRANCH   6   7
HETATM    7  C           1     -21.819  -8.083   0.126  0.00  0.00    -0.020 C 
HETATM    8  C           1     -23.280  -7.974   0.544  0.00  0.00     0.009 C 
HETATM    9  C           1     -21.023  -8.763   1.233  0.00  0.00     0.009 C 
ENDBRANCH   6   7
ENDBRANCH   5   6
BRANCH   5  10
HETATM   10  C           1     -19.513  -9.314  -2.201  0.00  0.00     0.196 C 
HETATM   11  O           1     -19.535 -10.387  -1.560  0.00  0.00    -0.646 OA
HETATM   12  O           1     -18.559  -9.064  -2.970  0.00  0.00    -0.646 OA
ENDBRANCH   5  10
ENDBRANCH   4   5
BRANCH   3  13
HETATM   13  C           1     -22.331  -6.496  -4.964  0.00  0.00     0.332 C 
BRANCH  13  14
HETATM   14  N           1     -21.304  -6.762  -6.024  0.00  0.00    -0.071 N 
HETATM   15  H           1     -20.389  -6.349  -5.734  0.00  0.00     0.274 HD
HETATM   16  H           1     -21.195  -7.794  -6.153  0.00  0.00     0.274 HD
HETATM   17  H           1     -21.612  -6.330  -6.924  0.00  0.00     0.274 HD
ENDBRANCH  13  14
ENDBRANCH   3  13
TORSDOF 6
ENDMDL
