MODEL 1
REMARK VINA RESULT:      -6.7      0.000      0.000
REMARK  12 active torsions:
REMARK  status: ('A' for Active; 'I' for Inactive)
REMARK       I    between atoms: C_1  and  N_27 
REMARK    1  A    between atoms: C_1  and  C_3 
REMARK    2  A    between atoms: N_2  and  C_12 
REMARK    3  A    between atoms: C_3  and  C_11 
REMARK    4  A    between atoms: C_3  and  N_4 
REMARK    5  A    between atoms: P_5  and  O_9 
REMARK    6  A    between atoms: P_5  and  O_20 
REMARK    7  A    between atoms: O_9  and  C_14 
REMARK    8  A    between atoms: C_11  and  C_21 
REMARK    9  A    between atoms: C_12  and  C_21 
REMARK   10  A    between atoms: C_14  and  C_25 
REMARK   11  A    between atoms: C_24  and  C_25 
REMARK   12  A    between atoms: C_25  and  N_27 
ROOT
HETATM    1  C           1     -21.769  -4.613  -7.866  0.00  0.00     0.249 C 
HETATM    2  H           1     -22.282  -5.679  -9.565  0.00  0.00     0.163 HD
HETATM    3  O           1     -21.786  -3.529  -7.335  0.00  0.00    -0.271 OA
HETATM    4  N           1     -22.296  -4.770  -9.120  0.00  0.00    -0.343 N 
ENDROOT
BRANCH   1   5
HETATM    5  C           1     -21.168  -5.796  -7.147  0.00  0.00     0.274 C 
BRANCH   5   6
HETATM    6  C           1     -21.188  -5.542  -5.646  0.00  0.00     0.044 C 
BRANCH   6   7
HETATM    7  C           1     -22.126  -6.537  -4.975  0.00  0.00     0.030 C 
BRANCH   7   8
HETATM    8  C           1     -21.598  -6.879  -3.588  0.00  0.00     0.230 C 
BRANCH   8   9
HETATM    9  N           1     -22.263  -6.001  -2.569  0.00  0.00    -0.079 N 
HETATM   10  H           1     -21.564  -5.330  -2.178  0.00  0.00     0.274 HD
HETATM   11  H           1     -22.646  -6.593  -1.798  0.00  0.00     0.274 HD
HETATM   12  H           1     -23.041  -5.470  -3.022  0.00  0.00     0.274 HD
ENDBRANCH   8   9
ENDBRANCH   7   8
ENDBRANCH   6   7
ENDBRANCH   5   6
BRANCH   5  13
HETATM   13  N           1     -19.752  -5.989  -7.603  0.00  0.00    -0.067 N 
HETATM   14  H           1     -19.662  -6.917  -8.077  0.00  0.00     0.275 HD
HETATM   15  H           1     -19.495  -5.230  -8.273  0.00  0.00     0.275 HD
HETATM   16  H           1     -19.113  -5.957  -6.776  0.00  0.00     0.275 HD
ENDBRANCH   5  13
ENDBRANCH   1   5
BRANCH   4  17
HETATM   17  C           1     -22.874  -3.633  -9.810  0.00  0.00     0.210 C 
BRANCH  17  18
HETATM   18  C           1     -22.404  -3.626 -11.258  0.00  0.00     0.217 C 
BRANCH  18  19
HETATM   19  O           1     -23.006  -2.558 -11.941  0.00  0.00    -0.287 OA
BRANCH  19  20
HETATM   20  P           1     -23.500  -2.870 -13.446  0.00  0.00     0.406 P 
HETATM   21  O           1     -24.236  -1.701 -13.977  0.00  0.00    -0.624 OA
HETATM   22  O           1     -24.391  -4.052 -13.438  0.00  0.00    -0.624 OA
BRANCH  20  23
HETATM   23  O           1     -22.217  -3.168 -14.382  0.00  0.00    -0.300 OA
HETATM   24  H           1     -22.323  -4.060 -14.664  0.00  0.00     0.223 HD
ENDBRANCH  20  23
ENDBRANCH  19  20
ENDBRANCH  18  19
ENDBRANCH  17  18
BRANCH  17  25
HETATM   25  C           1     -24.380  -3.733  -9.770  0.00  0.00     0.198 C 
HETATM   26  O           1     -24.940  -4.826 -10.004  0.00  0.00    -0.646 OA
HETATM   27  O           1     -25.067  -2.723  -9.503  0.00  0.00    -0.646 OA
ENDBRANCH  17  25
ENDBRANCH   4  17
TORSDOF 12
ENDMDL
MODEL 2
REMARK VINA RESULT:      -6.5     13.279     14.772
REMARK  12 active torsions:
REMARK  status: ('A' for Active; 'I' for Inactive)
REMARK       I    between atoms: C_1  and  N_27 
REMARK    1  A    between atoms: C_1  and  C_3 
REMARK    2  A    between atoms: N_2  and  C_12 
REMARK    3  A    between atoms: C_3  and  C_11 
REMARK    4  A    between atoms: C_3  and  N_4 
REMARK    5  A    between atoms: P_5  and  O_9 
REMARK    6  A    between atoms: P_5  and  O_20 
REMARK    7  A    between atoms: O_9  and  C_14 
REMARK    8  A    between atoms: C_11  and  C_21 
REMARK    9  A    between atoms: C_12  and  C_21 
REMARK   10  A    between atoms: C_14  and  C_25 
REMARK   11  A    between atoms: C_24  and  C_25 
REMARK   12  A    between atoms: C_25  and  N_27 
ROOT
HETATM    1  C           1     -36.823  -0.511 -10.120  0.00  0.00     0.249 C 
HETATM    2  H           1     -34.826  -0.390 -10.651  0.00  0.00     0.163 HD
HETATM    3  O           1     -37.923  -0.860 -10.476  0.00  0.00    -0.271 OA
HETATM    4  N           1     -35.748  -0.683 -10.949  0.00  0.00    -0.343 N 
ENDROOT
BRANCH   1   5
HETATM    5  C           1     -36.634   0.116  -8.760  0.00  0.00     0.274 C 
BRANCH   5   6
HETATM    6  C           1     -37.766  -0.318  -7.839  0.00  0.00     0.044 C 
BRANCH   6   7
HETATM    7  C           1     -38.073   0.799  -6.849  0.00  0.00     0.030 C 
BRANCH   7   8
HETATM    8  C           1     -37.215   0.624  -5.603  0.00  0.00     0.230 C 
BRANCH   8   9
HETATM    9  N           1     -37.909  -0.295  -4.642  0.00  0.00    -0.079 N 
HETATM   10  H           1     -37.496  -0.180  -3.689  0.00  0.00     0.274 HD
HETATM   11  H           1     -37.787  -1.284  -4.956  0.00  0.00     0.274 HD
HETATM   12  H           1     -38.927  -0.061  -4.611  0.00  0.00     0.274 HD
ENDBRANCH   8   9
ENDBRANCH   7   8
ENDBRANCH   6   7
ENDBRANCH   5   6
BRANCH   5  13
HETATM   13  N           1     -36.643   1.609  -8.893  0.00  0.00    -0.067 N 
HETATM   14  H           1     -37.436   2.005  -8.338  0.00  0.00     0.275 HD
HETATM   15  H           1     -35.741   1.997  -8.535  0.00  0.00     0.275 HD
HETATM   16  H           1     -36.759   1.869  -9.899  0.00  0.00     0.275 HD
ENDBRANCH   5  13
ENDBRANCH   1   5
BRANCH   4  17
HETATM   17  C           1     -35.930  -1.285 -12.256  0.00  0.00     0.210 C 
BRANCH  17  18
HETATM   18  C           1     -36.026  -0.190 -13.310  0.00  0.00     0.217 C 
BRANCH  18  19
HETATM   19  O           1     -36.859  -0.618 -14.355  0.00  0.00    -0.287 OA
BRANCH  19  20
HETATM   20  P           1     -36.349  -0.281 -15.849  0.00  0.00     0.406 P 
HETATM   21  O           1     -36.162   1.181 -15.990  0.00  0.00    -0.624 OA
HETATM   22  O           1     -37.354  -0.746 -16.830  0.00  0.00    -0.624 OA
BRANCH  20  23
HETATM   23  O           1     -34.944  -1.030 -16.119  0.00  0.00    -0.300 OA
HETATM   24  H           1     -34.822  -0.992 -17.052  0.00  0.00     0.223 HD
ENDBRANCH  20  23
ENDBRANCH  19  20
ENDBRANCH  18  19
ENDBRANCH  17  18
BRANCH  17  25
HETATM   25  C           1     -34.754  -2.179 -12.566  0.00  0.00     0.198 C 
HETATM   26  O           1     -33.864  -2.361 -11.707  0.00  0.00    -0.646 OA
HETATM   27  O           1     -34.670  -2.738 -13.681  0.00  0.00    -0.646 OA
ENDBRANCH  17  25
ENDBRANCH   4  17
TORSDOF 12
ENDMDL
MODEL 3
REMARK VINA RESULT:      -6.3     13.218     15.203
REMARK  12 active torsions:
REMARK  status: ('A' for Active; 'I' for Inactive)
REMARK       I    between atoms: C_1  and  N_27 
REMARK    1  A    between atoms: C_1  and  C_3 
REMARK    2  A    between atoms: N_2  and  C_12 
REMARK    3  A    between atoms: C_3  and  C_11 
REMARK    4  A    between atoms: C_3  and  N_4 
REMARK    5  A    between atoms: P_5  and  O_9 
REMARK    6  A    between atoms: P_5  and  O_20 
REMARK    7  A    between atoms: O_9  and  C_14 
REMARK    8  A    between atoms: C_11  and  C_21 
REMARK    9  A    between atoms: C_12  and  C_21 
REMARK   10  A    between atoms: C_14  and  C_25 
REMARK   11  A    between atoms: C_24  and  C_25 
REMARK   12  A    between atoms: C_25  and  N_27 
ROOT
HETATM    1  C           1     -36.725  -0.174 -13.356  0.00  0.00     0.249 C 
HETATM    2  H           1     -35.168   0.270 -12.067  0.00  0.00     0.163 HD
HETATM    3  O           1     -37.790  -0.731 -13.467  0.00  0.00    -0.271 OA
HETATM    4  N           1     -36.060  -0.197 -12.160  0.00  0.00    -0.343 N 
ENDROOT
BRANCH   1   5
HETATM    5  C           1     -36.127   0.551 -14.538  0.00  0.00     0.274 C 
BRANCH   5   6
HETATM    6  C           1     -36.531  -0.155 -15.825  0.00  0.00     0.044 C 
BRANCH   6   7
HETATM    7  C           1     -35.286  -0.667 -16.537  0.00  0.00     0.030 C 
BRANCH   7   8
HETATM    8  C           1     -35.494  -2.118 -16.946  0.00  0.00     0.230 C 
BRANCH   8   9
HETATM    9  N           1     -34.239  -2.897 -16.687  0.00  0.00    -0.079 N 
HETATM   10  H           1     -34.082  -3.575 -17.466  0.00  0.00     0.274 HD
HETATM   11  H           1     -34.333  -3.419 -15.786  0.00  0.00     0.274 HD
HETATM   12  H           1     -33.428  -2.240 -16.628  0.00  0.00     0.274 HD
ENDBRANCH   8   9
ENDBRANCH   7   8
ENDBRANCH   6   7
ENDBRANCH   5   6
BRANCH   5  13
HETATM   13  N           1     -34.632   0.552 -14.417  0.00  0.00    -0.067 N 
HETATM   14  H           1     -34.212   0.959 -15.283  0.00  0.00     0.275 HD
HETATM   15  H           1     -34.349   1.125 -13.590  0.00  0.00     0.275 HD
HETATM   16  H           1     -34.292  -0.429 -14.293  0.00  0.00     0.275 HD
ENDBRANCH   5  13
ENDBRANCH   1   5
BRANCH   4  17
HETATM   17  C           1     -36.636  -0.893 -11.025  0.00  0.00     0.210 C 
BRANCH  17  18
HETATM   18  C           1     -35.675  -1.976 -10.553  0.00  0.00     0.217 C 
BRANCH  18  19
HETATM   19  O           1     -35.765  -3.086 -11.405  0.00  0.00    -0.287 OA
BRANCH  19  20
HETATM   20  P           1     -34.459  -3.398 -12.301  0.00  0.00     0.406 P 
HETATM   21  O           1     -33.243  -2.996 -11.559  0.00  0.00    -0.624 OA
HETATM   22  O           1     -34.537  -2.638 -13.568  0.00  0.00    -0.624 OA
BRANCH  20  23
HETATM   23  O           1     -34.393  -4.980 -12.623  0.00  0.00    -0.300 OA
HETATM   24  H           1     -35.219  -5.323 -12.330  0.00  0.00     0.223 HD
ENDBRANCH  20  23
ENDBRANCH  19  20
ENDBRANCH  18  19
ENDBRANCH  17  18
BRANCH  17  25
HETATM   25  C           1     -36.879   0.088  -9.904  0.00  0.00     0.198 C 
HETATM   26  O           1     -37.722   1.000 -10.044  0.00  0.00    -0.646 OA
HETATM   27  O           1     -36.237  -0.011  -8.836  0.00  0.00    -0.646 OA
ENDBRANCH  17  25
ENDBRANCH   4  17
TORSDOF 12
ENDMDL
MODEL 4
REMARK VINA RESULT:      -5.9     12.010     14.409
REMARK  12 active torsions:
REMARK  status: ('A' for Active; 'I' for Inactive)
REMARK       I    between atoms: C_1  and  N_27 
REMARK    1  A    between atoms: C_1  and  C_3 
REMARK    2  A    between atoms: N_2  and  C_12 
REMARK    3  A    between atoms: C_3  and  C_11 
REMARK    4  A    between atoms: C_3  and  N_4 
REMARK    5  A    between atoms: P_5  and  O_9 
REMARK    6  A    between atoms: P_5  and  O_20 
REMARK    7  A    between atoms: O_9  and  C_14 
REMARK    8  A    between atoms: C_11  and  C_21 
REMARK    9  A    between atoms: C_12  and  C_21 
REMARK   10  A    between atoms: C_14  and  C_25 
REMARK   11  A    between atoms: C_24  and  C_25 
REMARK   12  A    between atoms: C_25  and  N_27 
ROOT
HETATM    1  C           1     -36.053  -1.552 -11.769  0.00  0.00     0.249 C 
HETATM    2  H           1     -34.491  -1.901 -13.081  0.00  0.00     0.163 HD
HETATM    3  O           1     -36.748  -2.034 -10.907  0.00  0.00    -0.271 OA
HETATM    4  N           1     -35.074  -2.305 -12.359  0.00  0.00    -0.343 N 
ENDROOT
BRANCH   1   5
HETATM    5  C           1     -36.263  -0.119 -12.194  0.00  0.00     0.274 C 
BRANCH   5   6
HETATM    6  C           1     -37.163  -0.080 -13.421  0.00  0.00     0.044 C 
BRANCH   6   7
HETATM    7  C           1     -36.305  -0.076 -14.680  0.00  0.00     0.030 C 
BRANCH   7   8
HETATM    8  C           1     -37.205  -0.098 -15.909  0.00  0.00     0.230 C 
BRANCH   8   9
HETATM    9  N           1     -36.433  -0.621 -17.084  0.00  0.00    -0.079 N 
HETATM   10  H           1     -35.557  -1.081 -16.749  0.00  0.00     0.274 HD
HETATM   11  H           1     -36.188   0.172 -17.719  0.00  0.00     0.274 HD
HETATM   12  H           1     -37.016  -1.316 -17.602  0.00  0.00     0.274 HD
ENDBRANCH   8   9
ENDBRANCH   7   8
ENDBRANCH   6   7
ENDBRANCH   5   6
BRANCH   5  13
HETATM   13  N           1     -34.939   0.502 -12.524  0.00  0.00    -0.067 N 
HETATM   14  H           1     -34.833   0.567 -13.562  0.00  0.00     0.275 HD
HETATM   15  H           1     -34.890   1.460 -12.110  0.00  0.00     0.275 HD
HETATM   16  H           1     -34.170  -0.087 -12.132  0.00  0.00     0.275 HD
ENDBRANCH   5  13
ENDBRANCH   1   5
BRANCH   4  17
HETATM   17  C           1     -34.872  -3.682 -11.950  0.00  0.00     0.210 C 
BRANCH  17  18
HETATM   18  C           1     -34.492  -4.520 -13.163  0.00  0.00     0.217 C 
BRANCH  18  19
HETATM   19  O           1     -33.809  -3.720 -14.090  0.00  0.00    -0.287 OA
BRANCH  19  20
HETATM   20  P           1     -34.097  -4.038 -15.647  0.00  0.00     0.406 P 
HETATM   21  O           1     -32.813  -4.240 -16.356  0.00  0.00    -0.624 OA
HETATM   22  O           1     -34.824  -2.903 -16.257  0.00  0.00    -0.624 OA
BRANCH  20  23
HETATM   23  O           1     -34.992  -5.378 -15.764  0.00  0.00    -0.300 OA
HETATM   24  H           1     -34.370  -6.084 -15.805  0.00  0.00     0.223 HD
ENDBRANCH  20  23
ENDBRANCH  19  20
ENDBRANCH  18  19
ENDBRANCH  17  18
BRANCH  17  25
HETATM   25  C           1     -33.765  -3.744 -10.927  0.00  0.00     0.198 C 
HETATM   26  O           1     -32.886  -2.856 -10.901  0.00  0.00    -0.646 OA
HETATM   27  O           1     -33.726  -4.685 -10.104  0.00  0.00    -0.646 OA
ENDBRANCH  17  25
ENDBRANCH   4  17
TORSDOF 12
ENDMDL
MODEL 5
REMARK VINA RESULT:      -5.8      3.881      7.227
REMARK  12 active torsions:
REMARK  status: ('A' for Active; 'I' for Inactive)
REMARK       I    between atoms: C_1  and  N_27 
REMARK    1  A    between atoms: C_1  and  C_3 
REMARK    2  A    between atoms: N_2  and  C_12 
REMARK    3  A    between atoms: C_3  and  C_11 
REMARK    4  A    between atoms: C_3  and  N_4 
REMARK    5  A    between atoms: P_5  and  O_9 
REMARK    6  A    between atoms: P_5  and  O_20 
REMARK    7  A    between atoms: O_9  and  C_14 
REMARK    8  A    between atoms: C_11  and  C_21 
REMARK    9  A    between atoms: C_12  and  C_21 
REMARK   10  A    between atoms: C_14  and  C_25 
REMARK   11  A    between atoms: C_24  and  C_25 
REMARK   12  A    between atoms: C_25  and  N_27 
ROOT
HETATM    1  C           1     -23.212  -4.283  -8.985  0.00  0.00     0.249 C 
HETATM    2  H           1     -22.240  -6.094  -9.235  0.00  0.00     0.163 HD
HETATM    3  O           1     -23.190  -3.218  -8.415  0.00  0.00    -0.271 OA
HETATM    4  N           1     -22.222  -5.201  -8.758  0.00  0.00    -0.343 N 
ENDROOT
BRANCH   1   5
HETATM    5  C           1     -24.330  -4.601  -9.948  0.00  0.00     0.274 C 
BRANCH   5   6
HETATM    6  C           1     -23.797  -4.572 -11.373  0.00  0.00     0.044 C 
BRANCH   6   7
HETATM    7  C           1     -23.827  -3.143 -11.899  0.00  0.00     0.030 C 
BRANCH   7   8
HETATM    8  C           1     -22.717  -2.953 -12.923  0.00  0.00     0.230 C 
BRANCH   8   9
HETATM    9  N           1     -21.516  -3.753 -12.512  0.00  0.00    -0.079 N 
HETATM   10  H           1     -20.652  -3.312 -12.904  0.00  0.00     0.274 HD
HETATM   11  H           1     -21.605  -4.728 -12.878  0.00  0.00     0.274 HD
HETATM   12  H           1     -21.453  -3.775 -11.469  0.00  0.00     0.274 HD
ENDBRANCH   8   9
ENDBRANCH   7   8
ENDBRANCH   6   7
ENDBRANCH   5   6
BRANCH   5  13
HETATM   13  N           1     -25.419  -3.581  -9.801  0.00  0.00    -0.067 N 
HETATM   14  H           1     -26.301  -4.053  -9.495  0.00  0.00     0.275 HD
HETATM   15  H           1     -25.140  -2.872  -9.086  0.00  0.00     0.275 HD
HETATM   16  H           1     -25.579  -3.107 -10.719  0.00  0.00     0.275 HD
ENDBRANCH   5  13
ENDBRANCH   1   5
BRANCH   4  17
HETATM   17  C           1     -21.148  -4.895  -7.832  0.00  0.00     0.210 C 
BRANCH  17  18
HETATM   18  C           1     -20.828  -6.130  -7.001  0.00  0.00     0.217 C 
BRANCH  18  19
HETATM   19  O           1     -20.701  -5.766  -5.652  0.00  0.00    -0.287 OA
BRANCH  19  20
HETATM   20  P           1     -21.721  -6.483  -4.627  0.00  0.00     0.406 P 
HETATM   21  O           1     -21.445  -6.019  -3.248  0.00  0.00    -0.624 OA
HETATM   22  O           1     -21.541  -7.950  -4.698  0.00  0.00    -0.624 OA
BRANCH  20  23
HETATM   23  O           1     -23.240  -6.106  -5.027  0.00  0.00    -0.300 OA
HETATM   24  H           1     -23.547  -5.555  -4.329  0.00  0.00     0.223 HD
ENDBRANCH  20  23
ENDBRANCH  19  20
ENDBRANCH  18  19
ENDBRANCH  17  18
BRANCH  17  25
HETATM   25  C           1     -19.922  -4.477  -8.607  0.00  0.00     0.198 C 
HETATM   26  O           1     -19.931  -4.507  -9.856  0.00  0.00    -0.646 OA
HETATM   27  O           1     -18.897  -4.100  -7.998  0.00  0.00    -0.646 OA
ENDBRANCH  17  25
ENDBRANCH   4  17
TORSDOF 12
ENDMDL
MODEL 6
REMARK VINA RESULT:      -5.8     13.531     15.471
REMARK  12 active torsions:
REMARK  status: ('A' for Active; 'I' for Inactive)
REMARK       I    between atoms: C_1  and  N_27 
REMARK    1  A    between atoms: C_1  and  C_3 
REMARK    2  A    between atoms: N_2  and  C_12 
REMARK    3  A    between atoms: C_3  and  C_11 
REMARK    4  A    between atoms: C_3  and  N_4 
REMARK    5  A    between atoms: P_5  and  O_9 
REMARK    6  A    between atoms: P_5  and  O_20 
REMARK    7  A    between atoms: O_9  and  C_14 
REMARK    8  A    between atoms: C_11  and  C_21 
REMARK    9  A    between atoms: C_12  and  C_21 
REMARK   10  A    between atoms: C_14  and  C_25 
REMARK   11  A    between atoms: C_24  and  C_25 
REMARK   12  A    between atoms: C_25  and  N_27 
ROOT
HETATM    1  C           1     -36.514   0.037 -12.984  0.00  0.00     0.249 C 
HETATM    2  H           1     -35.549   0.597 -11.241  0.00  0.00     0.163 HD
HETATM    3  O           1     -37.406  -0.629 -13.452  0.00  0.00    -0.271 OA
HETATM    4  N           1     -36.297   0.039 -11.633  0.00  0.00    -0.343 N 
ENDROOT
BRANCH   1   5
HETATM    5  C           1     -35.638   0.867 -13.891  0.00  0.00     0.274 C 
BRANCH   5   6
HETATM    6  C           1     -36.123   0.735 -15.328  0.00  0.00     0.044 C 
BRANCH   6   7
HETATM    7  C           1     -35.406  -0.428 -16.001  0.00  0.00     0.030 C 
BRANCH   7   8
HETATM    8  C           1     -36.389  -1.196 -16.874  0.00  0.00     0.230 C 
BRANCH   8   9
HETATM    9  N           1     -37.791  -0.808 -16.507  0.00  0.00    -0.079 N 
HETATM   10  H           1     -37.773   0.069 -15.938  0.00  0.00     0.274 HD
HETATM   11  H           1     -38.230  -1.575 -15.949  0.00  0.00     0.274 HD
HETATM   12  H           1     -38.347  -0.646 -17.377  0.00  0.00     0.274 HD
ENDBRANCH   8   9
ENDBRANCH   7   8
ENDBRANCH   6   7
ENDBRANCH   5   6
BRANCH   5  13
HETATM   13  N           1     -34.222   0.385 -13.795  0.00  0.00    -0.067 N 
HETATM   14  H           1     -33.686   1.002 -13.143  0.00  0.00     0.275 HD
HETATM   15  H           1     -34.211  -0.596 -13.433  0.00  0.00     0.275 HD
HETATM   16  H           1     -33.779   0.411 -14.742  0.00  0.00     0.275 HD
ENDBRANCH   5  13
ENDBRANCH   1   5
BRANCH   4  17
HETATM   17  C           1     -37.138  -0.759 -10.763  0.00  0.00     0.210 C 
BRANCH  17  18
HETATM   18  C           1     -36.331  -1.924 -10.204  0.00  0.00     0.217 C 
BRANCH  18  19
HETATM   19  O           1     -35.931  -2.762 -11.255  0.00  0.00    -0.287 OA
BRANCH  19  20
HETATM   20  P           1     -34.344  -2.821 -11.547  0.00  0.00     0.406 P 
HETATM   21  O           1     -34.115  -3.081 -12.986  0.00  0.00    -0.624 OA
HETATM   22  O           1     -33.735  -3.907 -10.747  0.00  0.00    -0.624 OA
BRANCH  20  23
HETATM   23  O           1     -33.670  -1.409 -11.142  0.00  0.00    -0.300 OA
HETATM   24  H           1     -33.141  -1.600 -10.388  0.00  0.00     0.223 HD
ENDBRANCH  20  23
ENDBRANCH  19  20
ENDBRANCH  18  19
ENDBRANCH  17  18
BRANCH  17  25
HETATM   25  C           1     -37.640   0.097  -9.625  0.00  0.00     0.198 C 
HETATM   26  O           1     -37.621  -0.343  -8.456  0.00  0.00    -0.646 OA
HETATM   27  O           1     -38.075   1.247  -9.853  0.00  0.00    -0.646 OA
ENDBRANCH  17  25
ENDBRANCH   4  17
TORSDOF 12
ENDMDL
MODEL 7
REMARK VINA RESULT:      -5.8      2.275      3.537
REMARK  12 active torsions:
REMARK  status: ('A' for Active; 'I' for Inactive)
REMARK       I    between atoms: C_1  and  N_27 
REMARK    1  A    between atoms: C_1  and  C_3 
REMARK    2  A    between atoms: N_2  and  C_12 
REMARK    3  A    between atoms: C_3  and  C_11 
REMARK    4  A    between atoms: C_3  and  N_4 
REMARK    5  A    between atoms: P_5  and  O_9 
REMARK    6  A    between atoms: P_5  and  O_20 
REMARK    7  A    between atoms: O_9  and  C_14 
REMARK    8  A    between atoms: C_11  and  C_21 
REMARK    9  A    between atoms: C_12  and  C_21 
REMARK   10  A    between atoms: C_14  and  C_25 
REMARK   11  A    between atoms: C_24  and  C_25 
REMARK   12  A    between atoms: C_25  and  N_27 
ROOT
HETATM    1  C           1     -21.201  -6.214  -6.156  0.00  0.00     0.249 C 
HETATM    2  H           1     -21.497  -4.166  -6.187  0.00  0.00     0.163 HD
HETATM    3  O           1     -21.123  -7.214  -6.829  0.00  0.00    -0.271 OA
HETATM    4  N           1     -21.432  -5.004  -6.751  0.00  0.00    -0.343 N 
ENDROOT
BRANCH   1   5
HETATM    5  C           1     -21.043  -6.300  -4.657  0.00  0.00     0.274 C 
BRANCH   5   6
HETATM    6  C           1     -20.405  -7.632  -4.289  0.00  0.00     0.044 C 
BRANCH   6   7
HETATM    7  C           1     -21.468  -8.566  -3.723  0.00  0.00     0.030 C 
BRANCH   7   8
HETATM    8  C           1     -21.260  -9.968  -4.277  0.00  0.00     0.230 C 
BRANCH   8   9
HETATM    9  N           1     -20.940  -9.885  -5.741  0.00  0.00    -0.079 N 
HETATM   10  H           1     -20.034 -10.372  -5.928  0.00  0.00     0.274 HD
HETATM   11  H           1     -20.859  -8.882  -6.023  0.00  0.00     0.274 HD
HETATM   12  H           1     -21.701 -10.343  -6.290  0.00  0.00     0.274 HD
ENDBRANCH   8   9
ENDBRANCH   7   8
ENDBRANCH   6   7
ENDBRANCH   5   6
BRANCH   5  13
HETATM   13  N           1     -22.390  -6.194  -4.007  0.00  0.00    -0.067 N 
HETATM   14  H           1     -22.435  -6.844  -3.189  0.00  0.00     0.275 HD
HETATM   15  H           1     -22.544  -5.213  -3.680  0.00  0.00     0.275 HD
HETATM   16  H           1     -23.132  -6.452  -4.697  0.00  0.00     0.275 HD
ENDBRANCH   5  13
ENDBRANCH   1   5
BRANCH   4  17
HETATM   17  C           1     -21.584  -4.922  -8.191  0.00  0.00     0.210 C 
BRANCH  17  18
HETATM   18  C           1     -22.714  -3.959  -8.529  0.00  0.00     0.217 C 
BRANCH  18  19
HETATM   19  O           1     -23.608  -4.578  -9.414  0.00  0.00    -0.287 OA
BRANCH  19  20
HETATM   20  P           1     -23.697  -3.936 -10.893  0.00  0.00     0.406 P 
HETATM   21  O           1     -24.961  -3.178 -11.028  0.00  0.00    -0.624 OA
HETATM   22  O           1     -23.661  -5.018 -11.903  0.00  0.00    -0.624 OA
BRANCH  20  23
HETATM   23  O           1     -22.445  -2.941 -11.123  0.00  0.00    -0.300 OA
HETATM   24  H           1     -21.769  -3.265 -10.555  0.00  0.00     0.223 HD
ENDBRANCH  20  23
ENDBRANCH  19  20
ENDBRANCH  18  19
ENDBRANCH  17  18
BRANCH  17  25
HETATM   25  C           1     -20.298  -4.424  -8.805  0.00  0.00     0.198 C 
HETATM   26  O           1     -20.112  -4.525 -10.036  0.00  0.00    -0.646 OA
HETATM   27  O           1     -19.418  -3.909  -8.080  0.00  0.00    -0.646 OA
ENDBRANCH  17  25
ENDBRANCH   4  17
TORSDOF 12
ENDMDL
MODEL 8
REMARK VINA RESULT:      -5.6      5.127      7.924
REMARK  12 active torsions:
REMARK  status: ('A' for Active; 'I' for Inactive)
REMARK       I    between atoms: C_1  and  N_27 
REMARK    1  A    between atoms: C_1  and  C_3 
REMARK    2  A    between atoms: N_2  and  C_12 
REMARK    3  A    between atoms: C_3  and  C_11 
REMARK    4  A    between atoms: C_3  and  N_4 
REMARK    5  A    between atoms: P_5  and  O_9 
REMARK    6  A    between atoms: P_5  and  O_20 
REMARK    7  A    between atoms: O_9  and  C_14 
REMARK    8  A    between atoms: C_11  and  C_21 
REMARK    9  A    between atoms: C_12  and  C_21 
REMARK   10  A    between atoms: C_14  and  C_25 
REMARK   11  A    between atoms: C_24  and  C_25 
REMARK   12  A    between atoms: C_25  and  N_27 
ROOT
HETATM    1  C           1     -21.404  -5.806  -5.610  0.00  0.00     0.249 C 
HETATM    2  H           1     -19.924  -6.902  -4.666  0.00  0.00     0.163 HD
HETATM    3  O           1     -22.590  -5.579  -5.659  0.00  0.00    -0.271 OA
HETATM    4  N           1     -20.917  -6.711  -4.707  0.00  0.00    -0.343 N 
ENDROOT
BRANCH   1   5
HETATM    5  C           1     -20.460  -5.090  -6.545  0.00  0.00     0.274 C 
BRANCH   5   6
HETATM    6  C           1     -21.188  -3.931  -7.213  0.00  0.00     0.044 C 
BRANCH   6   7
HETATM    7  C           1     -21.345  -4.220  -8.701  0.00  0.00     0.030 C 
BRANCH   7   8
HETATM    8  C           1     -22.758  -3.862  -9.141  0.00  0.00     0.230 C 
BRANCH   8   9
HETATM    9  N           1     -23.703  -4.049  -7.991  0.00  0.00    -0.079 N 
HETATM   10  H           1     -23.216  -4.559  -7.220  0.00  0.00     0.274 HD
HETATM   11  H           1     -24.530  -4.605  -8.308  0.00  0.00     0.274 HD
HETATM   12  H           1     -24.020  -3.116  -7.646  0.00  0.00     0.274 HD
ENDBRANCH   8   9
ENDBRANCH   7   8
ENDBRANCH   6   7
ENDBRANCH   5   6
BRANCH   5  13
HETATM   13  N           1     -19.975  -6.046  -7.593  0.00  0.00    -0.067 N 
HETATM   14  H           1     -20.446  -5.837  -8.502  0.00  0.00     0.275 HD
HETATM   15  H           1     -18.941  -5.946  -7.706  0.00  0.00     0.275 HD
HETATM   16  H           1     -20.200  -7.025  -7.302  0.00  0.00     0.275 HD
ENDBRANCH   5  13
ENDBRANCH   1   5
BRANCH   4  17
HETATM   17  C           1     -21.825  -7.399  -3.809  0.00  0.00     0.210 C 
BRANCH  17  18
HETATM   18  C           1     -21.553  -8.896  -3.861  0.00  0.00     0.217 C 
BRANCH  18  19
HETATM   19  O           1     -20.948  -9.220  -5.085  0.00  0.00    -0.287 OA
BRANCH  19  20
HETATM   20  P           1     -19.347  -9.420  -5.051  0.00  0.00     0.406 P 
HETATM   21  O           1     -18.723  -8.599  -6.113  0.00  0.00    -0.624 OA
HETATM   22  O           1     -19.023 -10.846  -5.276  0.00  0.00    -0.624 OA
BRANCH  20  23
HETATM   23  O           1     -18.778  -8.958  -3.611  0.00  0.00    -0.300 OA
HETATM   24  H           1     -18.576  -9.760  -3.160  0.00  0.00     0.223 HD
ENDBRANCH  20  23
ENDBRANCH  19  20
ENDBRANCH  18  19
ENDBRANCH  17  18
BRANCH  17  25
HETATM   25  C           1     -21.615  -6.898  -2.401  0.00  0.00     0.198 C 
HETATM   26  O           1     -22.248  -5.901  -1.990  0.00  0.00    -0.646 OA
HETATM   27  O           1     -20.806  -7.479  -1.645  0.00  0.00    -0.646 OA
ENDBRANCH  17  25
ENDBRANCH   4  17
TORSDOF 12
ENDMDL
MODEL 9
REMARK VINA RESULT:      -5.5      3.870      7.640
REMARK  12 active torsions:
REMARK  status: ('A' for Active; 'I' for Inactive)
REMARK       I    between atoms: C_1  and  N_27 
REMARK    1  A    between atoms: C_1  and  C_3 
REMARK    2  A    between atoms: N_2  and  C_12 
REMARK    3  A    between atoms: C_3  and  C_11 
REMARK    4  A    between atoms: C_3  and  N_4 
REMARK    5  A    between atoms: P_5  and  O_9 
REMARK    6  A    between atoms: P_5  and  O_20 
REMARK    7  A    between atoms: O_9  and  C_14 
REMARK    8  A    between atoms: C_11  and  C_21 
REMARK    9  A    between atoms: C_12  and  C_21 
REMARK   10  A    between atoms: C_14  and  C_25 
REMARK   11  A    between atoms: C_24  and  C_25 
REMARK   12  A    between atoms: C_25  and  N_27 
ROOT
HETATM    1  C           1     -22.343  -4.265  -9.133  0.00  0.00     0.249 C 
HETATM    2  H           1     -21.077  -5.858  -8.753  0.00  0.00     0.163 HD
HETATM    3  O           1     -22.931  -3.329  -8.646  0.00  0.00    -0.271 OA
HETATM    4  N           1     -21.570  -5.073  -8.345  0.00  0.00    -0.343 N 
ENDROOT
BRANCH   1   5
HETATM    5  C           1     -22.461  -4.542 -10.612  0.00  0.00     0.274 C 
BRANCH   5   6
HETATM    6  C           1     -22.387  -3.231 -11.383  0.00  0.00     0.044 C 
BRANCH   6   7
HETATM    7  C           1     -23.754  -2.912 -11.974  0.00  0.00     0.030 C 
BRANCH   7   8
HETATM    8  C           1     -23.591  -2.472 -13.423  0.00  0.00     0.230 C 
BRANCH   8   9
HETATM    9  N           1     -22.424  -3.189 -14.035  0.00  0.00    -0.079 N 
HETATM   10  H           1     -22.103  -3.946 -13.389  0.00  0.00     0.274 HD
HETATM   11  H           1     -21.644  -2.512 -14.192  0.00  0.00     0.274 HD
HETATM   12  H           1     -22.713  -3.608 -14.947  0.00  0.00     0.274 HD
ENDBRANCH   8   9
ENDBRANCH   7   8
ENDBRANCH   6   7
ENDBRANCH   5   6
BRANCH   5  13
HETATM   13  N           1     -23.773  -5.212 -10.890  0.00  0.00    -0.067 N 
HETATM   14  H           1     -23.705  -6.227 -10.648  0.00  0.00     0.275 HD
HETATM   15  H           1     -24.522  -4.767 -10.313  0.00  0.00     0.275 HD
HETATM   16  H           1     -24.008  -5.111 -11.904  0.00  0.00     0.275 HD
ENDBRANCH   5  13
ENDBRANCH   1   5
BRANCH   4  17
HETATM   17  C           1     -21.457  -4.806  -6.923  0.00  0.00     0.210 C 
BRANCH  17  18
HETATM   18  C           1     -22.001  -5.993  -6.139  0.00  0.00     0.217 C 
BRANCH  18  19
HETATM   19  O           1     -21.268  -7.144  -6.464  0.00  0.00    -0.287 OA
BRANCH  19  20
HETATM   20  P           1     -20.709  -8.002  -5.216  0.00  0.00     0.406 P 
HETATM   21  O           1     -19.339  -8.477  -5.515  0.00  0.00    -0.624 OA
HETATM   22  O           1     -21.593  -9.165  -4.982  0.00  0.00    -0.624 OA
BRANCH  20  23
HETATM   23  O           1     -20.679  -7.073  -3.895  0.00  0.00    -0.300 OA
HETATM   24  H           1     -21.349  -7.423  -3.335  0.00  0.00     0.223 HD
ENDBRANCH  20  23
ENDBRANCH  19  20
ENDBRANCH  18  19
ENDBRANCH  17  18
BRANCH  17  25
HETATM   25  C           1     -20.006  -4.590  -6.567  0.00  0.00     0.198 C 
HETATM   26  O           1     -19.660  -4.524  -5.367  0.00  0.00    -0.646 OA
HETATM   27  O           1     -19.150  -4.476  -7.471  0.00  0.00    -0.646 OA
ENDBRANCH  17  25
ENDBRANCH   4  17
TORSDOF 12
ENDMDL
