MODEL 1
REMARK VINA RESULT:      -8.6      0.000      0.000
REMARK  11 active torsions:
REMARK  status: ('A' for Active; 'I' for Inactive)
REMARK    1  A    between atoms: C_1  and  C_32 
REMARK    2  A    between atoms: C_1  and  C_2 
REMARK    3  A    between atoms: C_4  and  O_7 
REMARK    4  A    between atoms: C_5  and  C_19 
REMARK    5  A    between atoms: C_5  and  C_10 
REMARK    6  A    between atoms: N_6  and  C_32 
REMARK    7  A    between atoms: N_8  and  C_28 
REMARK       I    between atoms: N_8  and  C_17 
REMARK    8  A    between atoms: C_10  and  C_28 
REMARK    9  A    between atoms: C_16  and  C_28 
REMARK   10  A    between atoms: C_17  and  C_32 
REMARK   11  A    between atoms: C_19  and  N_20 
REMARK       I    between atoms: N_20  and  C_27 
REMARK       I    between atoms: N_26  and  C_27 
ROOT
HETATM    1  N           1     -22.152  -4.893  -8.922  0.00  0.00    -0.345 N 
HETATM    2  H           1     -22.216  -5.847  -9.254  0.00  0.00     0.163 HD
HETATM    3  C           1     -21.600  -4.631  -7.696  0.00  0.00     0.249 C 
HETATM    4  O           1     -21.524  -3.493  -7.298  0.00  0.00    -0.271 OA
ENDROOT
BRANCH   1   5
HETATM    5  C           1     -22.643  -3.804  -9.742  0.00  0.00     0.185 C 
BRANCH   5   6
HETATM    6  C           1     -22.081  -3.935 -11.151  0.00  0.00     0.038 C 
BRANCH   6   7
HETATM    7  C           1     -22.371  -2.662 -11.935  0.00  0.00     0.023 C 
BRANCH   7   8
HETATM    8  C           1     -23.169  -3.005 -13.185  0.00  0.00     0.138 C 
BRANCH   8   9
HETATM    9  N           1     -23.976  -1.843 -13.587  0.00  0.00    -0.227 N 
HETATM   10  H           1     -24.720  -1.474 -12.945  0.00  0.00     0.177 HD
HETATM   11  C           1     -23.772  -1.287 -14.705  0.00  0.00     0.665 C 
HETATM   12  N           1     -22.874  -1.731 -15.480  0.00  0.00    -0.235 N 
HETATM   13  N           1     -24.485  -0.260 -15.060  0.00  0.00    -0.235 N 
HETATM   14  H           1     -22.298  -2.561 -15.193  0.00  0.00     0.174 HD
HETATM   15  H           1     -22.705  -1.270 -16.407  0.00  0.00     0.174 HD
HETATM   16  H           1     -25.227   0.107 -14.421  0.00  0.00     0.174 HD
HETATM   17  H           1     -24.317   0.199 -15.984  0.00  0.00     0.174 HD
ENDBRANCH   8   9
ENDBRANCH   7   8
ENDBRANCH   6   7
ENDBRANCH   5   6
BRANCH   5  18
HETATM   18  C           1     -24.151  -3.856  -9.796  0.00  0.00     0.196 C 
HETATM   19  O           1     -24.821  -2.835  -9.533  0.00  0.00    -0.646 OA
HETATM   20  O           1     -24.729  -4.920 -10.104  0.00  0.00    -0.646 OA
ENDBRANCH   5  18
ENDBRANCH   1   5
BRANCH   3  21
HETATM   21  C           1     -21.088  -5.765  -6.842  0.00  0.00     0.278 C 
BRANCH  21  22
HETATM   22  C           1     -20.997  -5.308  -5.392  0.00  0.00     0.081 C 
BRANCH  22  23
HETATM   23  C           1     -21.233  -6.474  -4.484  0.00  0.00    -0.056 A 
HETATM   24  C           1     -21.252  -6.288  -3.101  0.00  0.00     0.010 A 
HETATM   25  C           1     -21.471  -7.374  -2.254  0.00  0.00     0.037 A 
HETATM   26  C           1     -21.670  -8.647  -2.790  0.00  0.00     0.065 A 
HETATM   27  C           1     -21.651  -8.833  -4.172  0.00  0.00     0.037 A 
HETATM   28  C           1     -21.432  -7.747  -5.019  0.00  0.00     0.010 A 
BRANCH  26  29
HETATM   29  O           1     -21.883  -9.702  -1.967  0.00  0.00    -0.361 OA
HETATM   30  H           1     -21.018 -10.070  -1.720  0.00  0.00     0.217 HD
ENDBRANCH  26  29
ENDBRANCH  22  23
ENDBRANCH  21  22
BRANCH  21  31
HETATM   31  N           1     -19.727  -6.177  -7.322  0.00  0.00    -0.066 N 
HETATM   32  H           1     -19.242  -6.719  -6.571  0.00  0.00     0.275 HD
HETATM   33  H           1     -19.826  -6.774  -8.174  0.00  0.00     0.275 HD
HETATM   34  H           1     -19.168  -5.325  -7.555  0.00  0.00     0.275 HD
ENDBRANCH  21  31
ENDBRANCH   3  21
TORSDOF 11
ENDMDL
MODEL 2
REMARK VINA RESULT:      -8.4     12.470     14.596
REMARK  11 active torsions:
REMARK  status: ('A' for Active; 'I' for Inactive)
REMARK    1  A    between atoms: C_1  and  C_32 
REMARK    2  A    between atoms: C_1  and  C_2 
REMARK    3  A    between atoms: C_4  and  O_7 
REMARK    4  A    between atoms: C_5  and  C_19 
REMARK    5  A    between atoms: C_5  and  C_10 
REMARK    6  A    between atoms: N_6  and  C_32 
REMARK    7  A    between atoms: N_8  and  C_28 
REMARK       I    between atoms: N_8  and  C_17 
REMARK    8  A    between atoms: C_10  and  C_28 
REMARK    9  A    between atoms: C_16  and  C_28 
REMARK   10  A    between atoms: C_17  and  C_32 
REMARK   11  A    between atoms: C_19  and  N_20 
REMARK       I    between atoms: N_20  and  C_27 
REMARK       I    between atoms: N_26  and  C_27 
ROOT
HETATM    1  N           1     -33.398  -3.884 -14.205  0.00  0.00    -0.345 N 
HETATM    2  H           1     -32.498  -3.427 -14.284  0.00  0.00     0.163 HD
HETATM    3  C           1     -33.928  -4.542 -15.282  0.00  0.00     0.249 C 
HETATM    4  O           1     -35.002  -5.086 -15.189  0.00  0.00    -0.271 OA
ENDROOT
BRANCH   1   5
HETATM    5  C           1     -34.126  -3.841 -12.952  0.00  0.00     0.185 C 
BRANCH   5   6
HETATM    6  C           1     -33.141  -3.876 -11.791  0.00  0.00     0.038 C 
BRANCH   6   7
HETATM    7  C           1     -33.776  -4.595 -10.608  0.00  0.00     0.023 C 
BRANCH   7   8
HETATM    8  C           1     -34.629  -5.750 -11.112  0.00  0.00     0.138 C 
BRANCH   8   9
HETATM    9  N           1     -33.857  -6.999 -11.040  0.00  0.00    -0.227 N 
HETATM   10  H           1     -33.021  -7.135 -11.660  0.00  0.00     0.177 HD
HETATM   11  C           1     -34.200  -7.909 -10.231  0.00  0.00     0.665 C 
HETATM   12  N           1     -35.208  -7.745  -9.482  0.00  0.00    -0.235 N 
HETATM   13  N           1     -33.517  -9.013 -10.166  0.00  0.00    -0.235 N 
HETATM   14  H           1     -35.760  -6.853  -9.534  0.00  0.00     0.174 HD
HETATM   15  H           1     -35.492  -8.500  -8.811  0.00  0.00     0.174 HD
HETATM   16  H           1     -32.684  -9.150 -10.784  0.00  0.00     0.174 HD
HETATM   17  H           1     -33.800  -9.765  -9.498  0.00  0.00     0.174 HD
ENDBRANCH   8   9
ENDBRANCH   7   8
ENDBRANCH   6   7
ENDBRANCH   5   6
BRANCH   5  18
HETATM   18  C           1     -34.937  -2.570 -12.885  0.00  0.00     0.196 C 
HETATM   19  O           1     -35.785  -2.418 -11.980  0.00  0.00    -0.646 OA
HETATM   20  O           1     -34.760  -1.670 -13.733  0.00  0.00    -0.646 OA
ENDBRANCH   5  18
ENDBRANCH   1   5
BRANCH   3  21
HETATM   21  C           1     -33.170  -4.586 -16.586  0.00  0.00     0.278 C 
BRANCH  21  22
HETATM   22  C           1     -31.676  -4.676 -16.303  0.00  0.00     0.081 C 
BRANCH  22  23
HETATM   23  C           1     -31.080  -5.789 -17.109  0.00  0.00    -0.056 A 
HETATM   24  C           1     -31.911  -6.713 -17.742  0.00  0.00     0.010 A 
HETATM   25  C           1     -31.357  -7.750 -18.492  0.00  0.00     0.037 A 
HETATM   26  C           1     -29.971  -7.862 -18.609  0.00  0.00     0.065 A 
HETATM   27  C           1     -29.140  -6.938 -17.976  0.00  0.00     0.037 A 
HETATM   28  C           1     -29.695  -5.901 -17.226  0.00  0.00     0.010 A 
BRANCH  26  29
HETATM   29  O           1     -29.432  -8.869 -19.338  0.00  0.00    -0.361 OA
HETATM   30  H           1     -29.217  -9.598 -18.732  0.00  0.00     0.217 HD
ENDBRANCH  26  29
ENDBRANCH  22  23
ENDBRANCH  21  22
BRANCH  21  31
HETATM   31  N           1     -33.454  -3.340 -17.372  0.00  0.00    -0.066 N 
HETATM   32  H           1     -32.637  -2.692 -17.306  0.00  0.00     0.275 HD
HETATM   33  H           1     -33.619  -3.591 -18.373  0.00  0.00     0.275 HD
HETATM   34  H           1     -34.304  -2.871 -16.985  0.00  0.00     0.275 HD
ENDBRANCH  21  31
ENDBRANCH   3  21
TORSDOF 11
ENDMDL
MODEL 3
REMARK VINA RESULT:      -7.9      3.486      9.851
REMARK  11 active torsions:
REMARK  status: ('A' for Active; 'I' for Inactive)
REMARK    1  A    between atoms: C_1  and  C_32 
REMARK    2  A    between atoms: C_1  and  C_2 
REMARK    3  A    between atoms: C_4  and  O_7 
REMARK    4  A    between atoms: C_5  and  C_19 
REMARK    5  A    between atoms: C_5  and  C_10 
REMARK    6  A    between atoms: N_6  and  C_32 
REMARK    7  A    between atoms: N_8  and  C_28 
REMARK       I    between atoms: N_8  and  C_17 
REMARK    8  A    between atoms: C_10  and  C_28 
REMARK    9  A    between atoms: C_16  and  C_28 
REMARK   10  A    between atoms: C_17  and  C_32 
REMARK   11  A    between atoms: C_19  and  N_20 
REMARK       I    between atoms: N_20  and  C_27 
REMARK       I    between atoms: N_26  and  C_27 
ROOT
HETATM    1  N           1     -21.478  -6.433  -5.803  0.00  0.00    -0.345 N 
HETATM    2  H           1     -22.199  -6.918  -6.323  0.00  0.00     0.163 HD
HETATM    3  C           1     -21.144  -5.148  -6.132  0.00  0.00     0.249 C 
HETATM    4  O           1     -20.282  -4.570  -5.513  0.00  0.00    -0.271 OA
ENDROOT
BRANCH   1   5
HETATM    5  C           1     -20.800  -7.102  -4.711  0.00  0.00     0.185 C 
BRANCH   5   6
HETATM    6  C           1     -21.780  -7.335  -3.570  0.00  0.00     0.038 C 
BRANCH   6   7
HETATM    7  C           1     -21.642  -6.219  -2.544  0.00  0.00     0.023 C 
BRANCH   7   8
HETATM    8  C           1     -22.289  -6.648  -1.234  0.00  0.00     0.138 C 
BRANCH   8   9
HETATM    9  N           1     -22.011  -8.072  -0.994  0.00  0.00    -0.227 N 
HETATM   10  H           1     -21.280  -8.567  -1.560  0.00  0.00     0.177 HD
HETATM   11  C           1     -22.654  -8.700  -0.102  0.00  0.00     0.665 C 
HETATM   12  N           1     -23.537  -8.103   0.582  0.00  0.00    -0.235 N 
HETATM   13  N           1     -22.409  -9.958   0.111  0.00  0.00    -0.235 N 
HETATM   14  H           1     -23.734  -7.086   0.410  0.00  0.00     0.174 HD
HETATM   15  H           1     -24.070  -8.624   1.321  0.00  0.00     0.174 HD
HETATM   16  H           1     -21.681 -10.452  -0.453  0.00  0.00     0.174 HD
HETATM   17  H           1     -22.940 -10.477   0.847  0.00  0.00     0.174 HD
ENDBRANCH   8   9
ENDBRANCH   7   8
ENDBRANCH   6   7
ENDBRANCH   5   6
BRANCH   5  18
HETATM   18  C           1     -20.261  -8.428  -5.190  0.00  0.00     0.196 C 
HETATM   19  O           1     -21.008  -9.220  -5.803  0.00  0.00    -0.646 OA
HETATM   20  O           1     -19.069  -8.734  -4.974  0.00  0.00    -0.646 OA
ENDBRANCH   5  18
ENDBRANCH   1   5
BRANCH   3  21
HETATM   21  C           1     -21.851  -4.452  -7.270  0.00  0.00     0.278 C 
BRANCH  21  22
HETATM   22  C           1     -21.332  -4.991  -8.597  0.00  0.00     0.081 C 
BRANCH  22  23
HETATM   23  C           1     -22.002  -4.272  -9.726  0.00  0.00    -0.056 A 
HETATM   24  C           1     -23.394  -4.201  -9.779  0.00  0.00     0.010 A 
HETATM   25  C           1     -24.018  -3.531 -10.831  0.00  0.00     0.037 A 
HETATM   26  C           1     -23.250  -2.934 -11.830  0.00  0.00     0.065 A 
HETATM   27  C           1     -21.859  -3.005 -11.778  0.00  0.00     0.037 A 
HETATM   28  C           1     -21.234  -3.674 -10.726  0.00  0.00     0.010 A 
BRANCH  26  29
HETATM   29  O           1     -23.857  -2.283 -12.852  0.00  0.00    -0.361 OA
HETATM   30  H           1     -24.778  -2.593 -12.902  0.00  0.00     0.217 HD
ENDBRANCH  26  29
ENDBRANCH  22  23
ENDBRANCH  21  22
BRANCH  21  31
HETATM   31  N           1     -21.588  -2.977  -7.194  0.00  0.00    -0.066 N 
HETATM   32  H           1     -20.674  -2.762  -7.655  0.00  0.00     0.275 HD
HETATM   33  H           1     -22.354  -2.462  -7.684  0.00  0.00     0.275 HD
HETATM   34  H           1     -21.552  -2.681  -6.193  0.00  0.00     0.275 HD
ENDBRANCH  21  31
ENDBRANCH   3  21
TORSDOF 11
ENDMDL
MODEL 4
REMARK VINA RESULT:      -7.8      3.945      9.865
REMARK  11 active torsions:
REMARK  status: ('A' for Active; 'I' for Inactive)
REMARK    1  A    between atoms: C_1  and  C_32 
REMARK    2  A    between atoms: C_1  and  C_2 
REMARK    3  A    between atoms: C_4  and  O_7 
REMARK    4  A    between atoms: C_5  and  C_19 
REMARK    5  A    between atoms: C_5  and  C_10 
REMARK    6  A    between atoms: N_6  and  C_32 
REMARK    7  A    between atoms: N_8  and  C_28 
REMARK       I    between atoms: N_8  and  C_17 
REMARK    8  A    between atoms: C_10  and  C_28 
REMARK    9  A    between atoms: C_16  and  C_28 
REMARK   10  A    between atoms: C_17  and  C_32 
REMARK   11  A    between atoms: C_19  and  N_20 
REMARK       I    between atoms: N_20  and  C_27 
REMARK       I    between atoms: N_26  and  C_27 
ROOT
HETATM    1  N           1     -21.468  -6.890  -5.235  0.00  0.00    -0.345 N 
HETATM    2  H           1     -22.394  -6.695  -4.876  0.00  0.00     0.163 HD
HETATM    3  C           1     -21.052  -6.314  -6.404  0.00  0.00     0.249 C 
HETATM    4  O           1     -19.947  -6.547  -6.834  0.00  0.00    -0.271 OA
ENDROOT
BRANCH   1   5
HETATM    5  C           1     -20.582  -7.780  -4.510  0.00  0.00     0.185 C 
BRANCH   5   6
HETATM    6  C           1     -20.753  -7.559  -3.013  0.00  0.00     0.038 C 
BRANCH   6   7
HETATM    7  C           1     -21.774  -6.455  -2.774  0.00  0.00     0.023 C 
BRANCH   7   8
HETATM    8  C           1     -22.323  -6.567  -1.359  0.00  0.00     0.138 C 
BRANCH   8   9
HETATM    9  N           1     -21.582  -7.603  -0.625  0.00  0.00    -0.227 N 
HETATM   10  H           1     -20.576  -7.793  -0.856  0.00  0.00     0.177 HD
HETATM   11  C           1     -22.157  -8.266   0.287  0.00  0.00     0.665 C 
HETATM   12  N           1     -23.370  -8.038   0.568  0.00  0.00    -0.235 N 
HETATM   13  N           1     -21.502  -9.182   0.937  0.00  0.00    -0.235 N 
HETATM   14  H           1     -23.900  -7.298   0.043  0.00  0.00     0.174 HD
HETATM   15  H           1     -23.847  -8.588   1.325  0.00  0.00     0.174 HD
HETATM   16  H           1     -20.500  -9.371   0.706  0.00  0.00     0.174 HD
HETATM   17  H           1     -21.976  -9.729   1.690  0.00  0.00     0.174 HD
ENDBRANCH   8   9
ENDBRANCH   7   8
ENDBRANCH   6   7
ENDBRANCH   5   6
BRANCH   5  18
HETATM   18  C           1     -20.920  -9.212  -4.849  0.00  0.00     0.196 C 
HETATM   19  O           1     -21.822  -9.806  -4.219  0.00  0.00    -0.646 OA
HETATM   20  O           1     -20.300  -9.802  -5.759  0.00  0.00    -0.646 OA
ENDBRANCH   5  18
ENDBRANCH   1   5
BRANCH   3  21
HETATM   21  C           1     -21.974  -5.387  -7.159  0.00  0.00     0.278 C 
BRANCH  21  22
HETATM   22  C           1     -21.194  -4.169  -7.633  0.00  0.00     0.081 C 
BRANCH  22  23
HETATM   23  C           1     -21.384  -3.996  -9.108  0.00  0.00    -0.056 A 
HETATM   24  C           1     -20.318  -4.221  -9.979  0.00  0.00     0.010 A 
HETATM   25  C           1     -20.494  -4.059 -11.353  0.00  0.00     0.037 A 
HETATM   26  C           1     -21.736  -3.672 -11.855  0.00  0.00     0.065 A 
HETATM   27  C           1     -22.802  -3.447 -10.985  0.00  0.00     0.037 A 
HETATM   28  C           1     -22.626  -3.608  -9.611  0.00  0.00     0.010 A 
BRANCH  26  29
HETATM   29  O           1     -21.907  -3.515 -13.191  0.00  0.00    -0.361 OA
HETATM   30  H           1     -22.853  -3.365 -13.357  0.00  0.00     0.217 HD
ENDBRANCH  26  29
ENDBRANCH  22  23
ENDBRANCH  21  22
BRANCH  21  31
HETATM   31  N           1     -23.087  -4.946  -6.255  0.00  0.00    -0.066 N 
HETATM   32  H           1     -23.066  -5.510  -5.375  0.00  0.00     0.275 HD
HETATM   33  H           1     -22.966  -3.934  -6.023  0.00  0.00     0.275 HD
HETATM   34  H           1     -24.004  -5.087  -6.737  0.00  0.00     0.275 HD
ENDBRANCH  21  31
ENDBRANCH   3  21
TORSDOF 11
ENDMDL
MODEL 5
REMARK VINA RESULT:      -7.8      2.052      2.923
REMARK  11 active torsions:
REMARK  status: ('A' for Active; 'I' for Inactive)
REMARK    1  A    between atoms: C_1  and  C_32 
REMARK    2  A    between atoms: C_1  and  C_2 
REMARK    3  A    between atoms: C_4  and  O_7 
REMARK    4  A    between atoms: C_5  and  C_19 
REMARK    5  A    between atoms: C_5  and  C_10 
REMARK    6  A    between atoms: N_6  and  C_32 
REMARK    7  A    between atoms: N_8  and  C_28 
REMARK       I    between atoms: N_8  and  C_17 
REMARK    8  A    between atoms: C_10  and  C_28 
REMARK    9  A    between atoms: C_16  and  C_28 
REMARK   10  A    between atoms: C_17  and  C_32 
REMARK   11  A    between atoms: C_19  and  N_20 
REMARK       I    between atoms: N_20  and  C_27 
REMARK       I    between atoms: N_26  and  C_27 
ROOT
HETATM    1  N           1     -21.439  -4.853  -6.948  0.00  0.00    -0.345 N 
HETATM    2  H           1     -21.421  -3.978  -6.439  0.00  0.00     0.163 HD
HETATM    3  C           1     -21.137  -6.024  -6.307  0.00  0.00     0.249 C 
HETATM    4  O           1     -21.157  -7.069  -6.914  0.00  0.00    -0.271 OA
ENDROOT
BRANCH   1   5
HETATM    5  C           1     -21.783  -4.866  -8.356  0.00  0.00     0.185 C 
BRANCH   5   6
HETATM    6  C           1     -22.997  -3.977  -8.591  0.00  0.00     0.038 C 
BRANCH   6   7
HETATM    7  C           1     -23.798  -4.510  -9.771  0.00  0.00     0.023 C 
BRANCH   7   8
HETATM    8  C           1     -23.976  -3.407 -10.805  0.00  0.00     0.138 C 
BRANCH   8   9
HETATM    9  N           1     -23.020  -3.605 -11.904  0.00  0.00    -0.227 N 
HETATM   10  H           1     -22.201  -4.250 -11.778  0.00  0.00     0.177 HD
HETATM   11  C           1     -23.186  -3.000 -13.003  0.00  0.00     0.665 C 
HETATM   12  N           1     -24.174  -2.224 -13.157  0.00  0.00    -0.235 N 
HETATM   13  N           1     -22.342  -3.176 -13.976  0.00  0.00    -0.235 N 
HETATM   14  H           1     -24.857  -2.082 -12.371  0.00  0.00     0.174 HD
HETATM   15  H           1     -24.311  -1.722 -14.069  0.00  0.00     0.174 HD
HETATM   16  H           1     -21.525  -3.817 -13.850  0.00  0.00     0.174 HD
HETATM   17  H           1     -22.478  -2.676 -14.884  0.00  0.00     0.174 HD
ENDBRANCH   8   9
ENDBRANCH   7   8
ENDBRANCH   6   7
ENDBRANCH   5   6
BRANCH   5  18
HETATM   18  C           1     -20.618  -4.349  -9.164  0.00  0.00     0.196 C 
HETATM   19  O           1     -20.546  -4.597 -10.386  0.00  0.00    -0.646 OA
HETATM   20  O           1     -19.725  -3.672  -8.611  0.00  0.00    -0.646 OA
ENDBRANCH   5  18
ENDBRANCH   1   5
BRANCH   3  21
HETATM   21  C           1     -20.778  -6.010  -4.841  0.00  0.00     0.278 C 
BRANCH  21  22
HETATM   22  C           1     -22.044  -6.149  -4.006  0.00  0.00     0.081 C 
BRANCH  22  23
HETATM   23  C           1     -21.738  -6.912  -2.755  0.00  0.00    -0.056 A 
HETATM   24  C           1     -22.388  -6.586  -1.564  0.00  0.00     0.010 A 
HETATM   25  C           1     -22.103  -7.296  -0.398  0.00  0.00     0.037 A 
HETATM   26  C           1     -21.169  -8.331  -0.423  0.00  0.00     0.065 A 
HETATM   27  C           1     -20.519  -8.657  -1.613  0.00  0.00     0.037 A 
HETATM   28  C           1     -20.804  -7.947  -2.779  0.00  0.00     0.010 A 
BRANCH  26  29
HETATM   29  O           1     -20.892  -9.021   0.710  0.00  0.00    -0.361 OA
HETATM   30  H           1     -20.970  -9.970   0.511  0.00  0.00     0.217 HD
ENDBRANCH  26  29
ENDBRANCH  22  23
ENDBRANCH  21  22
BRANCH  21  31
HETATM   31  N           1     -20.098  -4.716  -4.506  0.00  0.00    -0.066 N 
HETATM   32  H           1     -20.814  -3.961  -4.407  0.00  0.00     0.275 HD
HETATM   33  H           1     -19.577  -4.820  -3.605  0.00  0.00     0.275 HD
HETATM   34  H           1     -19.430  -4.466  -5.269  0.00  0.00     0.275 HD
ENDBRANCH  21  31
ENDBRANCH   3  21
TORSDOF 11
ENDMDL
MODEL 6
REMARK VINA RESULT:      -7.5     11.975     14.400
REMARK  11 active torsions:
REMARK  status: ('A' for Active; 'I' for Inactive)
REMARK    1  A    between atoms: C_1  and  C_32 
REMARK    2  A    between atoms: C_1  and  C_2 
REMARK    3  A    between atoms: C_4  and  O_7 
REMARK    4  A    between atoms: C_5  and  C_19 
REMARK    5  A    between atoms: C_5  and  C_10 
REMARK    6  A    between atoms: N_6  and  C_32 
REMARK    7  A    between atoms: N_8  and  C_28 
REMARK       I    between atoms: N_8  and  C_17 
REMARK    8  A    between atoms: C_10  and  C_28 
REMARK    9  A    between atoms: C_16  and  C_28 
REMARK   10  A    between atoms: C_17  and  C_32 
REMARK   11  A    between atoms: C_19  and  N_20 
REMARK       I    between atoms: N_20  and  C_27 
REMARK       I    between atoms: N_26  and  C_27 
ROOT
HETATM    1  N           1     -36.036  -0.567 -13.920  0.00  0.00    -0.345 N 
HETATM    2  H           1     -36.504  -1.457 -13.801  0.00  0.00     0.163 HD
HETATM    3  C           1     -35.350  -0.011 -12.874  0.00  0.00     0.249 C 
HETATM    4  O           1     -34.792   1.052 -13.014  0.00  0.00    -0.271 OA
ENDROOT
BRANCH   1   5
HETATM    5  C           1     -36.094   0.119 -15.195  0.00  0.00     0.185 C 
BRANCH   5   6
HETATM    6  C           1     -35.117  -0.531 -16.166  0.00  0.00     0.038 C 
BRANCH   6   7
HETATM    7  C           1     -35.121  -2.039 -15.959  0.00  0.00     0.023 C 
BRANCH   7   8
HETATM    8  C           1     -34.333  -2.709 -17.077  0.00  0.00     0.138 C 
BRANCH   8   9
HETATM    9  N           1     -33.590  -3.855 -16.535  0.00  0.00    -0.227 N 
HETATM   10  H           1     -34.065  -4.530 -15.887  0.00  0.00     0.177 HD
HETATM   11  C           1     -32.377  -4.030 -16.851  0.00  0.00     0.665 C 
HETATM   12  N           1     -31.803  -3.217 -17.634  0.00  0.00    -0.235 N 
HETATM   13  N           1     -31.719  -5.044 -16.373  0.00  0.00    -0.235 N 
HETATM   14  H           1     -32.334  -2.397 -18.021  0.00  0.00     0.174 HD
HETATM   15  H           1     -30.797  -3.362 -17.897  0.00  0.00     0.174 HD
HETATM   16  H           1     -32.192  -5.716 -15.727  0.00  0.00     0.174 HD
HETATM   17  H           1     -30.718  -5.188 -16.634  0.00  0.00     0.174 HD
ENDBRANCH   8   9
ENDBRANCH   7   8
ENDBRANCH   6   7
ENDBRANCH   5   6
BRANCH   5  18
HETATM   18  C           1     -37.493   0.026 -15.754  0.00  0.00     0.196 C 
HETATM   19  O           1     -38.074  -1.079 -15.801  0.00  0.00    -0.646 OA
HETATM   20  O           1     -38.071   1.054 -16.167  0.00  0.00    -0.646 OA
ENDBRANCH   5  18
ENDBRANCH   1   5
BRANCH   3  21
HETATM   21  C           1     -35.290  -0.725 -11.546  0.00  0.00     0.278 C 
BRANCH  21  22
HETATM   22  C           1     -36.049  -2.042 -11.642  0.00  0.00     0.081 C 
BRANCH  22  23
HETATM   23  C           1     -35.084  -3.183 -11.548  0.00  0.00    -0.056 A 
HETATM   24  C           1     -35.479  -4.382 -10.954  0.00  0.00     0.010 A 
HETATM   25  C           1     -34.581  -5.445 -10.865  0.00  0.00     0.037 A 
HETATM   26  C           1     -33.287  -5.309 -11.370  0.00  0.00     0.065 A 
HETATM   27  C           1     -32.893  -4.111 -11.964  0.00  0.00     0.037 A 
HETATM   28  C           1     -33.791  -3.048 -12.052  0.00  0.00     0.010 A 
BRANCH  26  29
HETATM   29  O           1     -32.415  -6.342 -11.284  0.00  0.00    -0.361 OA
HETATM   30  H           1     -31.959  -6.280 -10.427  0.00  0.00     0.217 HD
ENDBRANCH  26  29
ENDBRANCH  22  23
ENDBRANCH  21  22
BRANCH  21  31
HETATM   31  N           1     -35.917   0.135 -10.488  0.00  0.00    -0.066 N 
HETATM   32  H           1     -36.645   0.747 -10.923  0.00  0.00     0.275 HD
HETATM   33  H           1     -36.362  -0.474  -9.764  0.00  0.00     0.275 HD
HETATM   34  H           1     -35.183   0.729 -10.042  0.00  0.00     0.275 HD
ENDBRANCH  21  31
ENDBRANCH   3  21
TORSDOF 11
ENDMDL
MODEL 7
REMARK VINA RESULT:      -7.5     12.011     13.628
REMARK  11 active torsions:
REMARK  status: ('A' for Active; 'I' for Inactive)
REMARK    1  A    between atoms: C_1  and  C_32 
REMARK    2  A    between atoms: C_1  and  C_2 
REMARK    3  A    between atoms: C_4  and  O_7 
REMARK    4  A    between atoms: C_5  and  C_19 
REMARK    5  A    between atoms: C_5  and  C_10 
REMARK    6  A    between atoms: N_6  and  C_32 
REMARK    7  A    between atoms: N_8  and  C_28 
REMARK       I    between atoms: N_8  and  C_17 
REMARK    8  A    between atoms: C_10  and  C_28 
REMARK    9  A    between atoms: C_16  and  C_28 
REMARK   10  A    between atoms: C_17  and  C_32 
REMARK   11  A    between atoms: C_19  and  N_20 
REMARK       I    between atoms: N_20  and  C_27 
REMARK       I    between atoms: N_26  and  C_27 
ROOT
HETATM    1  N           1     -35.545  -1.787 -12.378  0.00  0.00    -0.345 N 
HETATM    2  H           1     -36.213  -2.231 -12.997  0.00  0.00     0.163 HD
HETATM    3  C           1     -34.436  -2.474 -11.963  0.00  0.00     0.249 C 
HETATM    4  O           1     -33.640  -1.945 -11.223  0.00  0.00    -0.271 OA
ENDROOT
BRANCH   1   5
HETATM    5  C           1     -35.764  -0.425 -11.932  0.00  0.00     0.185 C 
BRANCH   5   6
HETATM    6  C           1     -36.325   0.402 -13.081  0.00  0.00     0.038 C 
BRANCH   6   7
HETATM    7  C           1     -35.179   1.018 -13.872  0.00  0.00     0.023 C 
BRANCH   7   8
HETATM    8  C           1     -35.372   0.731 -15.355  0.00  0.00     0.138 C 
BRANCH   8   9
HETATM    9  N           1     -34.816  -0.591 -15.675  0.00  0.00    -0.227 N 
HETATM   10  H           1     -33.975  -0.948 -15.158  0.00  0.00     0.177 HD
HETATM   11  C           1     -35.353  -1.302 -16.575  0.00  0.00     0.665 C 
HETATM   12  N           1     -36.368  -0.874 -17.200  0.00  0.00    -0.235 N 
HETATM   13  N           1     -34.862  -2.472 -16.859  0.00  0.00    -0.235 N 
HETATM   14  H           1     -36.764   0.071 -16.970  0.00  0.00     0.174 HD
HETATM   15  H           1     -36.812  -1.463 -17.946  0.00  0.00     0.174 HD
HETATM   16  H           1     -34.024  -2.826 -16.344  0.00  0.00     0.174 HD
HETATM   17  H           1     -35.305  -3.059 -17.602  0.00  0.00     0.174 HD
ENDBRANCH   8   9
ENDBRANCH   7   8
ENDBRANCH   6   7
ENDBRANCH   5   6
BRANCH   5  18
HETATM   18  C           1     -36.745  -0.423 -10.785  0.00  0.00     0.196 C 
HETATM   19  O           1     -37.790  -1.104 -10.857  0.00  0.00    -0.646 OA
HETATM   20  O           1     -36.512   0.258  -9.764  0.00  0.00    -0.646 OA
ENDBRANCH   5  18
ENDBRANCH   1   5
BRANCH   3  21
HETATM   21  C           1     -34.209  -3.892 -12.427  0.00  0.00     0.278 C 
BRANCH  21  22
HETATM   22  C           1     -33.027  -4.489 -11.675  0.00  0.00     0.081 C 
BRANCH  22  23
HETATM   23  C           1     -33.450  -5.759 -11.004  0.00  0.00    -0.056 A 
HETATM   24  C           1     -32.587  -6.854 -10.977  0.00  0.00     0.010 A 
HETATM   25  C           1     -32.981  -8.037 -10.353  0.00  0.00     0.037 A 
HETATM   26  C           1     -34.238  -8.125  -9.756  0.00  0.00     0.065 A 
HETATM   27  C           1     -35.102  -7.031  -9.783  0.00  0.00     0.037 A 
HETATM   28  C           1     -34.708  -5.847 -10.408  0.00  0.00     0.010 A 
BRANCH  26  29
HETATM   29  O           1     -34.621  -9.275  -9.150  0.00  0.00    -0.361 OA
HETATM   30  H           1     -33.843  -9.855  -9.086  0.00  0.00     0.217 HD
ENDBRANCH  26  29
ENDBRANCH  22  23
ENDBRANCH  21  22
BRANCH  21  31
HETATM   31  N           1     -33.917  -3.894 -13.899  0.00  0.00    -0.066 N 
HETATM   32  H           1     -34.395  -3.081 -14.350  0.00  0.00     0.275 HD
HETATM   33  H           1     -32.886  -3.818 -14.048  0.00  0.00     0.275 HD
HETATM   34  H           1     -34.267  -4.783 -14.321  0.00  0.00     0.275 HD
ENDBRANCH  21  31
ENDBRANCH   3  21
TORSDOF 11
ENDMDL
MODEL 8
REMARK VINA RESULT:      -7.3      4.218      9.871
REMARK  11 active torsions:
REMARK  status: ('A' for Active; 'I' for Inactive)
REMARK    1  A    between atoms: C_1  and  C_32 
REMARK    2  A    between atoms: C_1  and  C_2 
REMARK    3  A    between atoms: C_4  and  O_7 
REMARK    4  A    between atoms: C_5  and  C_19 
REMARK    5  A    between atoms: C_5  and  C_10 
REMARK    6  A    between atoms: N_6  and  C_32 
REMARK    7  A    between atoms: N_8  and  C_28 
REMARK       I    between atoms: N_8  and  C_17 
REMARK    8  A    between atoms: C_10  and  C_28 
REMARK    9  A    between atoms: C_16  and  C_28 
REMARK   10  A    between atoms: C_17  and  C_32 
REMARK   11  A    between atoms: C_19  and  N_20 
REMARK       I    between atoms: N_20  and  C_27 
REMARK       I    between atoms: N_26  and  C_27 
ROOT
HETATM    1  N           1     -20.937  -6.613  -4.621  0.00  0.00    -0.345 N 
HETATM    2  H           1     -19.926  -6.556  -4.609  0.00  0.00     0.163 HD
HETATM    3  C           1     -21.656  -5.839  -5.491  0.00  0.00     0.249 C 
HETATM    4  O           1     -22.862  -5.906  -5.505  0.00  0.00    -0.271 OA
ENDROOT
BRANCH   1   5
HETATM    5  C           1     -21.622  -7.514  -3.716  0.00  0.00     0.185 C 
BRANCH   5   6
HETATM    6  C           1     -20.885  -8.845  -3.668  0.00  0.00     0.038 C 
BRANCH   6   7
HETATM    7  C           1     -21.784  -9.945  -4.218  0.00  0.00     0.023 C 
BRANCH   7   8
HETATM    8  C           1     -22.377 -10.741  -3.063  0.00  0.00     0.138 C 
BRANCH   8   9
HETATM    9  N           1     -21.662 -10.413  -1.822  0.00  0.00    -0.227 N 
HETATM   10  H           1     -20.630 -10.227  -1.843  0.00  0.00     0.177 HD
HETATM   11  C           1     -22.293 -10.353  -0.726  0.00  0.00     0.665 C 
HETATM   12  N           1     -23.539 -10.576  -0.698  0.00  0.00    -0.235 N 
HETATM   13  N           1     -21.661 -10.062   0.373  0.00  0.00    -0.235 N 
HETATM   14  H           1     -24.049 -10.811  -1.586  0.00  0.00     0.174 HD
HETATM   15  H           1     -24.061 -10.526   0.211  0.00  0.00     0.174 HD
HETATM   16  H           1     -20.632  -9.877   0.351  0.00  0.00     0.174 HD
HETATM   17  H           1     -22.182 -10.012   1.278  0.00  0.00     0.174 HD
ENDBRANCH   8   9
ENDBRANCH   7   8
ENDBRANCH   6   7
ENDBRANCH   5   6
BRANCH   5  18
HETATM   18  C           1     -21.656  -6.909  -2.333  0.00  0.00     0.196 C 
HETATM   19  O           1     -22.363  -5.903  -2.110  0.00  0.00    -0.646 OA
HETATM   20  O           1     -20.979  -7.414  -1.413  0.00  0.00    -0.646 OA
ENDBRANCH   5  18
ENDBRANCH   1   5
BRANCH   3  21
HETATM   21  C           1     -20.941  -4.901  -6.433  0.00  0.00     0.278 C 
BRANCH  21  22
HETATM   22  C           1     -20.665  -5.616  -7.749  0.00  0.00     0.081 C 
BRANCH  22  23
HETATM   23  C           1     -21.188  -4.793  -8.886  0.00  0.00    -0.056 A 
HETATM   24  C           1     -20.343  -4.442  -9.939  0.00  0.00     0.010 A 
HETATM   25  C           1     -20.829  -3.676 -10.997  0.00  0.00     0.037 A 
HETATM   26  C           1     -22.161  -3.260 -11.002  0.00  0.00     0.065 A 
HETATM   27  C           1     -23.005  -3.610  -9.950  0.00  0.00     0.037 A 
HETATM   28  C           1     -22.519  -4.377  -8.891  0.00  0.00     0.010 A 
BRANCH  26  29
HETATM   29  O           1     -22.633  -2.515 -12.031  0.00  0.00    -0.361 OA
HETATM   30  H           1     -21.896  -2.342 -12.641  0.00  0.00     0.217 HD
ENDBRANCH  26  29
ENDBRANCH  22  23
ENDBRANCH  21  22
BRANCH  21  31
HETATM   31  N           1     -19.644  -4.468  -5.818  0.00  0.00    -0.066 N 
HETATM   32  H           1     -19.328  -5.187  -5.128  0.00  0.00     0.275 HD
HETATM   33  H           1     -18.922  -4.365  -6.567  0.00  0.00     0.275 HD
HETATM   34  H           1     -19.777  -3.552  -5.332  0.00  0.00     0.275 HD
ENDBRANCH  21  31
ENDBRANCH   3  21
TORSDOF 11
ENDMDL
MODEL 9
REMARK VINA RESULT:      -7.3     13.009     16.046
REMARK  11 active torsions:
REMARK  status: ('A' for Active; 'I' for Inactive)
REMARK    1  A    between atoms: C_1  and  C_32 
REMARK    2  A    between atoms: C_1  and  C_2 
REMARK    3  A    between atoms: C_4  and  O_7 
REMARK    4  A    between atoms: C_5  and  C_19 
REMARK    5  A    between atoms: C_5  and  C_10 
REMARK    6  A    between atoms: N_6  and  C_32 
REMARK    7  A    between atoms: N_8  and  C_28 
REMARK       I    between atoms: N_8  and  C_17 
REMARK    8  A    between atoms: C_10  and  C_28 
REMARK    9  A    between atoms: C_16  and  C_28 
REMARK   10  A    between atoms: C_17  and  C_32 
REMARK   11  A    between atoms: C_19  and  N_20 
REMARK       I    between atoms: N_20  and  C_27 
REMARK       I    between atoms: N_26  and  C_27 
ROOT
HETATM    1  N           1     -35.581  -2.602 -11.688  0.00  0.00    -0.345 N 
HETATM    2  H           1     -36.335  -2.619 -12.364  0.00  0.00     0.163 HD
HETATM    3  C           1     -35.390  -1.497 -10.904  0.00  0.00     0.249 C 
HETATM    4  O           1     -34.490  -1.475 -10.098  0.00  0.00    -0.271 OA
ENDROOT
BRANCH   1   5
HETATM    5  C           1     -34.705  -3.749 -11.550  0.00  0.00     0.185 C 
BRANCH   5   6
HETATM    6  C           1     -35.412  -4.836 -10.752  0.00  0.00     0.038 C 
BRANCH   6   7
HETATM    7  C           1     -34.380  -5.795 -10.175  0.00  0.00     0.023 C 
BRANCH   7   8
HETATM    8  C           1     -35.044  -7.128  -9.859  0.00  0.00     0.138 C 
BRANCH   8   9
HETATM    9  N           1     -34.434  -8.187 -10.676  0.00  0.00    -0.227 N 
HETATM   10  H           1     -34.380  -8.080 -11.719  0.00  0.00     0.177 HD
HETATM   11  C           1     -33.972  -9.227 -10.122  0.00  0.00     0.665 C 
HETATM   12  N           1     -34.036  -9.356  -8.864  0.00  0.00    -0.235 N 
HETATM   13  N           1     -33.432 -10.163 -10.844  0.00  0.00    -0.235 N 
HETATM   14  H           1     -34.473  -8.600  -8.281  0.00  0.00     0.174 HD
HETATM   15  H           1     -33.653 -10.219  -8.405  0.00  0.00     0.174 HD
HETATM   16  H           1     -33.379 -10.057 -11.883  0.00  0.00     0.174 HD
HETATM   17  H           1     -33.051 -11.022 -10.386  0.00  0.00     0.174 HD
ENDBRANCH   8   9
ENDBRANCH   7   8
ENDBRANCH   6   7
ENDBRANCH   5   6
BRANCH   5  18
HETATM   18  C           1     -34.353  -4.279 -12.919  0.00  0.00     0.196 C 
HETATM   19  O           1     -33.331  -3.863 -13.505  0.00  0.00    -0.646 OA
HETATM   20  O           1     -35.082  -5.134 -13.465  0.00  0.00    -0.646 OA
ENDBRANCH   5  18
ENDBRANCH   1   5
BRANCH   3  21
HETATM   21  C           1     -36.303  -0.303 -11.047  0.00  0.00     0.278 C 
BRANCH  21  22
HETATM   22  C           1     -35.668   0.712 -11.989  0.00  0.00     0.081 C 
BRANCH  22  23
HETATM   23  C           1     -35.948   0.322 -13.407  0.00  0.00    -0.056 A 
HETATM   24  C           1     -34.917   0.329 -14.347  0.00  0.00     0.010 A 
HETATM   25  C           1     -35.177  -0.033 -15.669  0.00  0.00     0.037 A 
HETATM   26  C           1     -36.467  -0.402 -16.049  0.00  0.00     0.065 A 
HETATM   27  C           1     -37.497  -0.408 -15.110  0.00  0.00     0.037 A 
HETATM   28  C           1     -37.238  -0.046 -13.789  0.00  0.00     0.010 A 
BRANCH  26  29
HETATM   29  O           1     -36.719  -0.754 -17.334  0.00  0.00    -0.361 OA
HETATM   30  H           1     -37.641  -0.519 -17.535  0.00  0.00     0.217 HD
ENDBRANCH  26  29
ENDBRANCH  22  23
ENDBRANCH  21  22
BRANCH  21  31
HETATM   31  N           1     -36.515   0.328  -9.703  0.00  0.00    -0.066 N 
HETATM   32  H           1     -37.471   0.090  -9.353  0.00  0.00     0.275 HD
HETATM   33  H           1     -35.799  -0.035  -9.033  0.00  0.00     0.275 HD
HETATM   34  H           1     -36.421   1.365  -9.786  0.00  0.00     0.275 HD
ENDBRANCH  21  31
ENDBRANCH   3  21
TORSDOF 11
ENDMDL
