MODEL 1
REMARK VINA RESULT:      -5.7      0.000      0.000
REMARK  10 active torsions:
REMARK  status: ('A' for Active; 'I' for Inactive)
REMARK    1  A    between atoms: Se_1  and  C_2 
REMARK    2  A    between atoms: C_2  and  C_3 
REMARK    3  A    between atoms: C_3  and  C_4 
REMARK    4  A    between atoms: C_3  and  N_7 
REMARK       I    between atoms: N_7  and  C_8 
REMARK    5  A    between atoms: C_8  and  C_9 
REMARK    6  A    between atoms: C_9  and  C_10 
REMARK    7  A    between atoms: C_9  and  N_16 
REMARK    8  A    between atoms: C_10  and  O_11 
REMARK    9  A    between atoms: O_11  and  P_12 
REMARK   10  A    between atoms: P_12  and  O_13 
ROOT
HETATM    1  C           1     -33.607  -2.068 -11.299  0.00  0.00     0.298 C 
ENDROOT
BRANCH   1   2
HETATM    2  C           1     -34.549  -1.917 -12.468  0.00  0.00     0.251 C 
HETATM    3  N           1     -35.285  -0.772 -12.611  0.00  0.00    -0.345 N 
HETATM    4  H           1     -35.197  -0.026 -11.932  0.00  0.00     0.163 HD
HETATM    5  O           1     -34.655  -2.807 -13.278  0.00  0.00    -0.271 OA
BRANCH   3   6
HETATM    6  C           1     -36.191  -0.627 -13.734  0.00  0.00     0.185 C 
BRANCH   6   7
HETATM    7  C           1     -37.528  -0.087 -13.242  0.00  0.00     0.039 C 
BRANCH   7   8
HETATM    8 Se           1     -37.599  -0.205 -11.297  0.00  0.00     0.000 Se
HETATM    9  H           1     -38.278   1.089 -11.129  0.00  0.00     0.000 HD
ENDBRANCH   7   8
ENDBRANCH   6   7
BRANCH   6  10
HETATM   10  C           1     -35.599   0.334 -14.736  0.00  0.00     0.196 C 
HETATM   11  O           1     -36.325   0.848 -15.615  0.00  0.00    -0.646 OA
HETATM   12  O           1     -34.382   0.618 -14.686  0.00  0.00    -0.646 OA
ENDBRANCH   6  10
ENDBRANCH   3   6
ENDBRANCH   1   2
BRANCH   1  13
HETATM   13  C           1     -33.104  -3.503 -11.234  0.00  0.00     0.224 C 
BRANCH  13  14
HETATM   14  O           1     -34.021  -4.289 -10.521  0.00  0.00    -0.287 OA
BRANCH  14  15
HETATM   15  P           1     -34.159  -5.826 -10.999  0.00  0.00     0.406 P 
HETATM   16  O           1     -32.816  -6.445 -11.063  0.00  0.00    -0.624 OA
HETATM   17  O           1     -35.001  -6.568 -10.034  0.00  0.00    -0.624 OA
BRANCH  15  18
HETATM   18  O           1     -34.844  -5.876 -12.460  0.00  0.00    -0.300 OA
HETATM   19  H           1     -35.596  -5.312 -12.397  0.00  0.00     0.223 HD
ENDBRANCH  15  18
ENDBRANCH  14  15
ENDBRANCH  13  14
ENDBRANCH   1  13
BRANCH   1  20
HETATM   20  N           1     -34.331  -1.734 -10.029  0.00  0.00    -0.064 N 
HETATM   21  H           1     -35.356  -1.664 -10.219  0.00  0.00     0.275 HD
HETATM   22  H           1     -34.159  -2.485  -9.322  0.00  0.00     0.275 HD
HETATM   23  H           1     -33.984  -0.821  -9.659  0.00  0.00     0.275 HD
ENDBRANCH   1  20
TORSDOF 10
ENDMDL
MODEL 2
REMARK VINA RESULT:      -5.6      3.219      5.459
REMARK  10 active torsions:
REMARK  status: ('A' for Active; 'I' for Inactive)
REMARK    1  A    between atoms: Se_1  and  C_2 
REMARK    2  A    between atoms: C_2  and  C_3 
REMARK    3  A    between atoms: C_3  and  C_4 
REMARK    4  A    between atoms: C_3  and  N_7 
REMARK       I    between atoms: N_7  and  C_8 
REMARK    5  A    between atoms: C_8  and  C_9 
REMARK    6  A    between atoms: C_9  and  C_10 
REMARK    7  A    between atoms: C_9  and  N_16 
REMARK    8  A    between atoms: C_10  and  O_11 
REMARK    9  A    between atoms: O_11  and  P_12 
REMARK   10  A    between atoms: P_12  and  O_13 
ROOT
HETATM    1  C           1     -36.302  -1.145 -10.750  0.00  0.00     0.298 C 
ENDROOT
BRANCH   1   2
HETATM    2  C           1     -35.213  -2.190 -10.743  0.00  0.00     0.251 C 
HETATM    3  N           1     -35.420  -3.398 -11.355  0.00  0.00    -0.345 N 
HETATM    4  H           1     -36.304  -3.589 -11.811  0.00  0.00     0.163 HD
HETATM    5  O           1     -34.160  -1.963 -10.198  0.00  0.00    -0.271 OA
BRANCH   3   6
HETATM    6  C           1     -34.375  -4.403 -11.348  0.00  0.00     0.185 C 
BRANCH   6   7
HETATM    7  C           1     -34.986  -5.771 -11.619  0.00  0.00     0.039 C 
BRANCH   7   8
HETATM    8 Se           1     -34.603  -6.961 -10.123  0.00  0.00     0.000 Se
HETATM    9  H           1     -34.345  -8.135 -10.972  0.00  0.00     0.000 HD
ENDBRANCH   7   8
ENDBRANCH   6   7
BRANCH   6  10
HETATM   10  C           1     -33.364  -4.081 -12.421  0.00  0.00     0.196 C 
HETATM   11  O           1     -33.745  -3.642 -13.528  0.00  0.00    -0.646 OA
HETATM   12  O           1     -32.145  -4.254 -12.204  0.00  0.00    -0.646 OA
ENDBRANCH   6  10
ENDBRANCH   3   6
ENDBRANCH   1   2
BRANCH   1  13
HETATM   13  C           1     -36.164  -0.276 -11.993  0.00  0.00     0.224 C 
BRANCH  13  14
HETATM   14  O           1     -36.414  -1.050 -13.135  0.00  0.00    -0.287 OA
BRANCH  14  15
HETATM   15  P           1     -35.721  -0.541 -14.502  0.00  0.00     0.406 P 
HETATM   16  O           1     -36.713   0.201 -15.312  0.00  0.00    -0.624 OA
HETATM   17  O           1     -34.583   0.348 -14.177  0.00  0.00    -0.624 OA
BRANCH  15  18
HETATM   18  O           1     -35.186  -1.813 -15.341  0.00  0.00    -0.300 OA
HETATM   19  H           1     -34.382  -1.523 -15.738  0.00  0.00     0.223 HD
ENDBRANCH  15  18
ENDBRANCH  14  15
ENDBRANCH  13  14
ENDBRANCH   1  13
BRANCH   1  20
HETATM   20  N           1     -36.178  -0.288  -9.526  0.00  0.00    -0.064 N 
HETATM   21  H           1     -35.324  -0.564  -8.990  0.00  0.00     0.275 HD
HETATM   22  H           1     -36.101   0.715  -9.809  0.00  0.00     0.275 HD
HETATM   23  H           1     -37.022  -0.415  -8.924  0.00  0.00     0.275 HD
ENDBRANCH   1  20
TORSDOF 10
ENDMDL
MODEL 3
REMARK VINA RESULT:      -5.5      2.982      3.808
REMARK  10 active torsions:
REMARK  status: ('A' for Active; 'I' for Inactive)
REMARK    1  A    between atoms: Se_1  and  C_2 
REMARK    2  A    between atoms: C_2  and  C_3 
REMARK    3  A    between atoms: C_3  and  C_4 
REMARK    4  A    between atoms: C_3  and  N_7 
REMARK       I    between atoms: N_7  and  C_8 
REMARK    5  A    between atoms: C_8  and  C_9 
REMARK    6  A    between atoms: C_9  and  C_10 
REMARK    7  A    between atoms: C_9  and  N_16 
REMARK    8  A    between atoms: C_10  and  O_11 
REMARK    9  A    between atoms: O_11  and  P_12 
REMARK   10  A    between atoms: P_12  and  O_13 
ROOT
HETATM    1  C           1     -33.940  -3.686 -11.492  0.00  0.00     0.298 C 
ENDROOT
BRANCH   1   2
HETATM    2  C           1     -34.324  -2.228 -11.444  0.00  0.00     0.251 C 
HETATM    3  N           1     -35.469  -1.801 -12.063  0.00  0.00    -0.345 N 
HETATM    4  H           1     -36.055  -2.464 -12.554  0.00  0.00     0.163 HD
HETATM    5  O           1     -33.624  -1.437 -10.859  0.00  0.00    -0.271 OA
BRANCH   3   6
HETATM    6  C           1     -35.839  -0.399 -12.017  0.00  0.00     0.185 C 
BRANCH   6   7
HETATM    7  C           1     -36.409   0.019 -13.366  0.00  0.00     0.039 C 
BRANCH   7   8
HETATM    8 Se           1     -34.996   0.811 -14.451  0.00  0.00     0.000 Se
HETATM    9  H           1     -35.720   2.072 -14.679  0.00  0.00     0.000 HD
ENDBRANCH   7   8
ENDBRANCH   6   7
BRANCH   6  10
HETATM   10  C           1     -36.879  -0.191 -10.944  0.00  0.00     0.196 C 
HETATM   11  O           1     -37.954  -0.828 -10.984  0.00  0.00    -0.646 OA
HETATM   12  O           1     -36.666   0.618 -10.015  0.00  0.00    -0.646 OA
ENDBRANCH   6  10
ENDBRANCH   3   6
ENDBRANCH   1   2
BRANCH   1  13
HETATM   13  C           1     -33.521  -4.054 -12.910  0.00  0.00     0.224 C 
BRANCH  13  14
HETATM   14  O           1     -34.590  -3.826 -13.788  0.00  0.00    -0.287 OA
BRANCH  14  15
HETATM   15  P           1     -34.294  -4.103 -15.351  0.00  0.00     0.406 P 
HETATM   16  O           1     -34.812  -2.976 -16.159  0.00  0.00    -0.624 OA
HETATM   17  O           1     -32.835  -4.234 -15.562  0.00  0.00    -0.624 OA
BRANCH  15  18
HETATM   18  O           1     -35.027  -5.469 -15.803  0.00  0.00    -0.300 OA
HETATM   19  H           1     -35.077  -5.420 -16.743  0.00  0.00     0.223 HD
ENDBRANCH  15  18
ENDBRANCH  14  15
ENDBRANCH  13  14
ENDBRANCH   1  13
BRANCH   1  20
HETATM   20  N           1     -35.114  -4.526 -11.085  0.00  0.00    -0.064 N 
HETATM   21  H           1     -34.790  -5.494 -10.862  0.00  0.00     0.275 HD
HETATM   22  H           1     -35.565  -4.108 -10.240  0.00  0.00     0.275 HD
HETATM   23  H           1     -35.805  -4.562 -11.867  0.00  0.00     0.275 HD
ENDBRANCH   1  20
TORSDOF 10
ENDMDL
MODEL 4
REMARK VINA RESULT:      -5.3     12.425     14.655
REMARK  10 active torsions:
REMARK  status: ('A' for Active; 'I' for Inactive)
REMARK    1  A    between atoms: Se_1  and  C_2 
REMARK    2  A    between atoms: C_2  and  C_3 
REMARK    3  A    between atoms: C_3  and  C_4 
REMARK    4  A    between atoms: C_3  and  N_7 
REMARK       I    between atoms: N_7  and  C_8 
REMARK    5  A    between atoms: C_8  and  C_9 
REMARK    6  A    between atoms: C_9  and  C_10 
REMARK    7  A    between atoms: C_9  and  N_16 
REMARK    8  A    between atoms: C_10  and  O_11 
REMARK    9  A    between atoms: O_11  and  P_12 
REMARK   10  A    between atoms: P_12  and  O_13 
ROOT
HETATM    1  C           1     -22.199  -3.748 -10.342  0.00  0.00     0.298 C 
ENDROOT
BRANCH   1   2
HETATM    2  C           1     -22.247  -4.151  -8.888  0.00  0.00     0.251 C 
HETATM    3  N           1     -21.158  -4.742  -8.305  0.00  0.00    -0.345 N 
HETATM    4  H           1     -20.321  -4.908  -8.850  0.00  0.00     0.163 HD
HETATM    5  O           1     -23.245  -3.952  -8.239  0.00  0.00    -0.271 OA
BRANCH   3   6
HETATM    6  C           1     -21.204  -5.129  -6.909  0.00  0.00     0.185 C 
BRANCH   6   7
HETATM    7  C           1     -21.321  -6.644  -6.807  0.00  0.00     0.039 C 
BRANCH   7   8
HETATM    8 Se           1     -21.952  -7.129  -5.028  0.00  0.00     0.000 Se
HETATM    9  H           1     -22.665  -8.333  -5.483  0.00  0.00     0.000 HD
ENDBRANCH   7   8
ENDBRANCH   6   7
BRANCH   6  10
HETATM   10  C           1     -19.941  -4.674  -6.220  0.00  0.00     0.196 C 
HETATM   11  O           1     -19.965  -4.370  -5.008  0.00  0.00    -0.646 OA
HETATM   12  O           1     -18.870  -4.601  -6.861  0.00  0.00    -0.646 OA
ENDBRANCH   6  10
ENDBRANCH   3   6
ENDBRANCH   1   2
BRANCH   1  13
HETATM   13  C           1     -23.533  -4.068 -11.003  0.00  0.00     0.224 C 
BRANCH  13  14
HETATM   14  O           1     -23.958  -2.966 -11.757  0.00  0.00    -0.287 OA
BRANCH  14  15
HETATM   15  P           1     -23.737  -3.071 -13.353  0.00  0.00     0.406 P 
HETATM   16  O           1     -24.498  -4.225 -13.882  0.00  0.00    -0.624 OA
HETATM   17  O           1     -24.211  -1.827 -14.000  0.00  0.00    -0.624 OA
BRANCH  15  18
HETATM   18  O           1     -22.166  -3.275 -13.667  0.00  0.00    -0.300 OA
HETATM   19  H           1     -21.860  -3.868 -13.002  0.00  0.00     0.223 HD
ENDBRANCH  15  18
ENDBRANCH  14  15
ENDBRANCH  13  14
ENDBRANCH   1  13
BRANCH   1  20
HETATM   20  N           1     -21.104  -4.505 -11.033  0.00  0.00    -0.064 N 
HETATM   21  H           1     -21.261  -4.481 -12.066  0.00  0.00     0.275 HD
HETATM   22  H           1     -20.183  -4.065 -10.812  0.00  0.00     0.275 HD
HETATM   23  H           1     -21.105  -5.497 -10.705  0.00  0.00     0.275 HD
ENDBRANCH   1  20
TORSDOF 10
ENDMDL
MODEL 5
REMARK VINA RESULT:      -5.1      2.530      2.805
REMARK  10 active torsions:
REMARK  status: ('A' for Active; 'I' for Inactive)
REMARK    1  A    between atoms: Se_1  and  C_2 
REMARK    2  A    between atoms: C_2  and  C_3 
REMARK    3  A    between atoms: C_3  and  C_4 
REMARK    4  A    between atoms: C_3  and  N_7 
REMARK       I    between atoms: N_7  and  C_8 
REMARK    5  A    between atoms: C_8  and  C_9 
REMARK    6  A    between atoms: C_9  and  C_10 
REMARK    7  A    between atoms: C_9  and  N_16 
REMARK    8  A    between atoms: C_10  and  O_11 
REMARK    9  A    between atoms: O_11  and  P_12 
REMARK   10  A    between atoms: P_12  and  O_13 
ROOT
HETATM    1  C           1     -34.133  -3.911 -11.843  0.00  0.00     0.298 C 
ENDROOT
BRANCH   1   2
HETATM    2  C           1     -34.407  -2.432 -11.721  0.00  0.00     0.251 C 
HETATM    3  N           1     -35.527  -1.894 -12.297  0.00  0.00    -0.345 N 
HETATM    4  H           1     -36.171  -2.489 -12.804  0.00  0.00     0.163 HD
HETATM    5  O           1     -33.639  -1.723 -11.118  0.00  0.00    -0.271 OA
BRANCH   3   6
HETATM    6  C           1     -35.791  -0.473 -12.181  0.00  0.00     0.185 C 
BRANCH   6   7
HETATM    7  C           1     -36.371   0.043 -13.491  0.00  0.00     0.039 C 
BRANCH   7   8
HETATM    8 Se           1     -34.945   0.817 -14.572  0.00  0.00     0.000 Se
HETATM    9  H           1     -35.492   0.330 -15.849  0.00  0.00     0.000 HD
ENDBRANCH   7   8
ENDBRANCH   6   7
BRANCH   6  10
HETATM   10  C           1     -36.779  -0.236 -11.065  0.00  0.00     0.196 C 
HETATM   11  O           1     -37.863  -0.860 -11.046  0.00  0.00    -0.646 OA
HETATM   12  O           1     -36.514   0.583 -10.159  0.00  0.00    -0.646 OA
ENDBRANCH   6  10
ENDBRANCH   3   6
ENDBRANCH   1   2
BRANCH   1  13
HETATM   13  C           1     -34.220  -4.559 -10.467  0.00  0.00     0.224 C 
BRANCH  13  14
HETATM   14  O           1     -35.079  -5.665 -10.523  0.00  0.00    -0.287 OA
BRANCH  14  15
HETATM   15  P           1     -34.382  -7.113 -10.364  0.00  0.00     0.406 P 
HETATM   16  O           1     -32.956  -7.018 -10.747  0.00  0.00    -0.624 OA
HETATM   17  O           1     -34.488  -7.559  -8.956  0.00  0.00    -0.624 OA
BRANCH  15  18
HETATM   18  O           1     -35.127  -8.177 -11.322  0.00  0.00    -0.300 OA
HETATM   19  H           1     -34.592  -8.224 -12.097  0.00  0.00     0.223 HD
ENDBRANCH  15  18
ENDBRANCH  14  15
ENDBRANCH  13  14
ENDBRANCH   1  13
BRANCH   1  20
HETATM   20  N           1     -32.760  -4.120 -12.407  0.00  0.00    -0.064 N 
HETATM   21  H           1     -32.457  -5.105 -12.236  0.00  0.00     0.275 HD
HETATM   22  H           1     -32.774  -3.935 -13.436  0.00  0.00     0.275 HD
HETATM   23  H           1     -32.089  -3.466 -11.944  0.00  0.00     0.275 HD
ENDBRANCH   1  20
TORSDOF 10
ENDMDL
MODEL 6
REMARK VINA RESULT:      -5.1     25.388     26.478
REMARK  10 active torsions:
REMARK  status: ('A' for Active; 'I' for Inactive)
REMARK    1  A    between atoms: Se_1  and  C_2 
REMARK    2  A    between atoms: C_2  and  C_3 
REMARK    3  A    between atoms: C_3  and  C_4 
REMARK    4  A    between atoms: C_3  and  N_7 
REMARK       I    between atoms: N_7  and  C_8 
REMARK    5  A    between atoms: C_8  and  C_9 
REMARK    6  A    between atoms: C_9  and  C_10 
REMARK    7  A    between atoms: C_9  and  N_16 
REMARK    8  A    between atoms: C_10  and  O_11 
REMARK    9  A    between atoms: O_11  and  P_12 
REMARK   10  A    between atoms: P_12  and  O_13 
ROOT
HETATM    1  C           1     -13.731   5.650 -20.415  0.00  0.00     0.298 C 
ENDROOT
BRANCH   1   2
HETATM    2  C           1     -13.113   6.960 -20.838  0.00  0.00     0.251 C 
HETATM    3  N           1     -12.451   7.731 -19.920  0.00  0.00    -0.345 N 
HETATM    4  H           1     -12.378   7.423 -18.959  0.00  0.00     0.163 HD
HETATM    5  O           1     -13.202   7.328 -21.984  0.00  0.00    -0.271 OA
BRANCH   3   6
HETATM    6  C           1     -11.857   8.990 -20.326  0.00  0.00     0.185 C 
BRANCH   6   7
HETATM    7  C           1     -12.752  10.140 -19.882  0.00  0.00     0.039 C 
BRANCH   7   8
HETATM    8 Se           1     -12.938  11.419 -21.340  0.00  0.00     0.000 Se
HETATM    9  H           1     -13.381  12.521 -20.471  0.00  0.00     0.000 HD
ENDBRANCH   7   8
ENDBRANCH   6   7
BRANCH   6  10
HETATM   10  C           1     -10.498   9.133 -19.684  0.00  0.00     0.196 C 
HETATM   11  O           1      -9.574   9.707 -20.300  0.00  0.00    -0.646 OA
HETATM   12  O           1     -10.297   8.678 -18.538  0.00  0.00    -0.646 OA
ENDBRANCH   6  10
ENDBRANCH   3   6
ENDBRANCH   1   2
BRANCH   1  13
HETATM   13  C           1     -12.630   4.651 -20.086  0.00  0.00     0.224 C 
BRANCH  13  14
HETATM   14  O           1     -11.852   5.143 -19.029  0.00  0.00    -0.287 OA
BRANCH  14  15
HETATM   15  P           1     -10.251   5.074 -19.236  0.00  0.00     0.406 P 
HETATM   16  O           1      -9.828   3.660 -19.340  0.00  0.00    -0.624 OA
HETATM   17  O           1      -9.882   5.793 -20.476  0.00  0.00    -0.624 OA
BRANCH  15  18
HETATM   18  O           1      -9.515   5.764 -17.976  0.00  0.00    -0.300 OA
HETATM   19  H           1     -10.205   6.182 -17.489  0.00  0.00     0.223 HD
ENDBRANCH  15  18
ENDBRANCH  14  15
ENDBRANCH  13  14
ENDBRANCH   1  13
BRANCH   1  20
HETATM   20  N           1     -14.575   5.113 -21.533  0.00  0.00    -0.064 N 
HETATM   21  H           1     -14.544   4.068 -21.523  0.00  0.00     0.275 HD
HETATM   22  H           1     -15.562   5.432 -21.409  0.00  0.00     0.275 HD
HETATM   23  H           1     -14.208   5.462 -22.446  0.00  0.00     0.275 HD
ENDBRANCH   1  20
TORSDOF 10
ENDMDL
MODEL 7
REMARK VINA RESULT:      -5.1     12.942     15.514
REMARK  10 active torsions:
REMARK  status: ('A' for Active; 'I' for Inactive)
REMARK    1  A    between atoms: Se_1  and  C_2 
REMARK    2  A    between atoms: C_2  and  C_3 
REMARK    3  A    between atoms: C_3  and  C_4 
REMARK    4  A    between atoms: C_3  and  N_7 
REMARK       I    between atoms: N_7  and  C_8 
REMARK    5  A    between atoms: C_8  and  C_9 
REMARK    6  A    between atoms: C_9  and  C_10 
REMARK    7  A    between atoms: C_9  and  N_16 
REMARK    8  A    between atoms: C_10  and  O_11 
REMARK    9  A    between atoms: O_11  and  P_12 
REMARK   10  A    between atoms: P_12  and  O_13 
ROOT
HETATM    1  C           1     -21.085  -4.068  -7.843  0.00  0.00     0.298 C 
ENDROOT
BRANCH   1   2
HETATM    2  C           1     -20.785  -4.752  -6.532  0.00  0.00     0.251 C 
HETATM    3  N           1     -21.351  -5.967  -6.249  0.00  0.00    -0.345 N 
HETATM    4  H           1     -21.971  -6.405  -6.919  0.00  0.00     0.163 HD
HETATM    5  O           1     -20.047  -4.230  -5.732  0.00  0.00    -0.271 OA
BRANCH   3   6
HETATM    6  C           1     -21.064  -6.625  -4.989  0.00  0.00     0.185 C 
BRANCH   6   7
HETATM    7  C           1     -22.341  -6.723  -4.165  0.00  0.00     0.039 C 
BRANCH   7   8
HETATM    8 Se           1     -21.951  -6.288  -2.306  0.00  0.00     0.000 Se
HETATM    9  H           1     -21.884  -7.692  -1.871  0.00  0.00     0.000 HD
ENDBRANCH   7   8
ENDBRANCH   6   7
BRANCH   6  10
HETATM   10  C           1     -20.530  -8.011  -5.257  0.00  0.00     0.196 C 
HETATM   11  O           1     -19.504  -8.160  -5.957  0.00  0.00    -0.646 OA
HETATM   12  O           1     -21.111  -9.008  -4.780  0.00  0.00    -0.646 OA
ENDBRANCH   6  10
ENDBRANCH   3   6
ENDBRANCH   1   2
BRANCH   1  13
HETATM   13  C           1     -22.532  -4.333  -8.235  0.00  0.00     0.224 C 
BRANCH  13  14
HETATM   14  O           1     -22.955  -3.360  -9.151  0.00  0.00    -0.287 OA
BRANCH  14  15
HETATM   15  P           1     -24.080  -3.826 -10.213  0.00  0.00     0.406 P 
HETATM   16  O           1     -24.158  -2.840 -11.313  0.00  0.00    -0.624 OA
HETATM   17  O           1     -23.720  -5.153 -10.761  0.00  0.00    -0.624 OA
BRANCH  15  18
HETATM   18  O           1     -25.512  -3.920  -9.473  0.00  0.00    -0.300 OA
HETATM   19  H           1     -25.332  -3.727  -8.568  0.00  0.00     0.223 HD
ENDBRANCH  15  18
ENDBRANCH  14  15
ENDBRANCH  13  14
ENDBRANCH   1  13
BRANCH   1  20
HETATM   20  N           1     -20.173  -4.605  -8.906  0.00  0.00    -0.064 N 
HETATM   21  H           1     -19.308  -4.021  -8.951  0.00  0.00     0.275 HD
HETATM   22  H           1     -19.915  -5.591  -8.677  0.00  0.00     0.275 HD
HETATM   23  H           1     -20.660  -4.577  -9.830  0.00  0.00     0.275 HD
ENDBRANCH   1  20
TORSDOF 10
ENDMDL
MODEL 8
REMARK VINA RESULT:      -5.1     25.038     26.184
REMARK  10 active torsions:
REMARK  status: ('A' for Active; 'I' for Inactive)
REMARK    1  A    between atoms: Se_1  and  C_2 
REMARK    2  A    between atoms: C_2  and  C_3 
REMARK    3  A    between atoms: C_3  and  C_4 
REMARK    4  A    between atoms: C_3  and  N_7 
REMARK       I    between atoms: N_7  and  C_8 
REMARK    5  A    between atoms: C_8  and  C_9 
REMARK    6  A    between atoms: C_9  and  C_10 
REMARK    7  A    between atoms: C_9  and  N_16 
REMARK    8  A    between atoms: C_10  and  O_11 
REMARK    9  A    between atoms: O_11  and  P_12 
REMARK   10  A    between atoms: P_12  and  O_13 
ROOT
HETATM    1  C           1     -10.490   6.681 -20.589  0.00  0.00     0.298 C 
ENDROOT
BRANCH   1   2
HETATM    2  C           1     -10.778   8.078 -20.098  0.00  0.00     0.251 C 
HETATM    3  N           1     -11.907   8.731 -20.515  0.00  0.00    -0.345 N 
HETATM    4  H           1     -12.547   8.276 -21.154  0.00  0.00     0.163 HD
HETATM    5  O           1     -10.014   8.621 -19.337  0.00  0.00    -0.271 OA
BRANCH   3   6
HETATM    6  C           1     -12.186  10.074 -20.043  0.00  0.00     0.185 C 
BRANCH   6   7
HETATM    7  C           1     -12.617  10.944 -21.216  0.00  0.00     0.039 C 
BRANCH   7   8
HETATM    8 Se           1     -13.233   9.809 -22.676  0.00  0.00     0.000 Se
HETATM    9  H           1     -13.473   8.638 -21.818  0.00  0.00     0.000 HD
ENDBRANCH   7   8
ENDBRANCH   6   7
BRANCH   6  10
HETATM   10  C           1     -13.291  10.026 -19.018  0.00  0.00     0.196 C 
HETATM   11  O           1     -13.117   9.419 -17.938  0.00  0.00    -0.646 OA
HETATM   12  O           1     -14.381  10.592 -19.247  0.00  0.00    -0.646 OA
ENDBRANCH   6  10
ENDBRANCH   3   6
ENDBRANCH   1   2
BRANCH   1  13
HETATM   13  C           1     -11.185   5.671 -19.686  0.00  0.00     0.224 C 
BRANCH  13  14
HETATM   14  O           1     -12.509   6.074 -19.465  0.00  0.00    -0.287 OA
BRANCH  14  15
HETATM   15  P           1     -13.621   5.420 -20.437  0.00  0.00     0.406 P 
HETATM   16  O           1     -13.825   6.295 -21.613  0.00  0.00    -0.624 OA
HETATM   17  O           1     -13.160   4.087 -20.886  0.00  0.00    -0.624 OA
BRANCH  15  18
HETATM   18  O           1     -15.013   5.265 -19.634  0.00  0.00    -0.300 OA
HETATM   19  H           1     -14.916   5.808 -18.870  0.00  0.00     0.223 HD
ENDBRANCH  15  18
ENDBRANCH  14  15
ENDBRANCH  13  14
ENDBRANCH   1  13
BRANCH   1  20
HETATM   20  N           1      -9.010   6.439 -20.563  0.00  0.00    -0.064 N 
HETATM   21  H           1      -8.593   6.909 -19.728  0.00  0.00     0.275 HD
HETATM   22  H           1      -8.826   5.411 -20.511  0.00  0.00     0.275 HD
HETATM   23  H           1      -8.577   6.826 -21.432  0.00  0.00     0.275 HD
ENDBRANCH   1  20
TORSDOF 10
ENDMDL
MODEL 9
REMARK VINA RESULT:      -5.0     25.578     26.667
REMARK  10 active torsions:
REMARK  status: ('A' for Active; 'I' for Inactive)
REMARK    1  A    between atoms: Se_1  and  C_2 
REMARK    2  A    between atoms: C_2  and  C_3 
REMARK    3  A    between atoms: C_3  and  C_4 
REMARK    4  A    between atoms: C_3  and  N_7 
REMARK       I    between atoms: N_7  and  C_8 
REMARK    5  A    between atoms: C_8  and  C_9 
REMARK    6  A    between atoms: C_9  and  C_10 
REMARK    7  A    between atoms: C_9  and  N_16 
REMARK    8  A    between atoms: C_10  and  O_11 
REMARK    9  A    between atoms: O_11  and  P_12 
REMARK   10  A    between atoms: P_12  and  O_13 
ROOT
HETATM    1  C           1     -10.267   5.062 -19.815  0.00  0.00     0.298 C 
ENDROOT
BRANCH   1   2
HETATM    2  C           1     -10.492   6.104 -20.883  0.00  0.00     0.251 C 
HETATM    3  N           1     -10.637   7.420 -20.536  0.00  0.00    -0.345 N 
HETATM    4  H           1     -10.594   7.694 -19.562  0.00  0.00     0.163 HD
HETATM    5  O           1     -10.544   5.777 -22.044  0.00  0.00    -0.271 OA
BRANCH   3   6
HETATM    6  C           1     -10.853   8.422 -21.562  0.00  0.00     0.185 C 
BRANCH   6   7
HETATM    7  C           1     -12.135   9.188 -21.261  0.00  0.00     0.039 C 
BRANCH   7   8
HETATM    8 Se           1     -12.441   9.211 -19.336  0.00  0.00     0.000 Se
HETATM    9  H           1     -12.339   7.750 -19.186  0.00  0.00     0.000 HD
ENDBRANCH   7   8
ENDBRANCH   6   7
BRANCH   6  10
HETATM   10  C           1      -9.687   9.379 -21.583  0.00  0.00     0.196 C 
HETATM   11  O           1      -9.274   9.837 -22.670  0.00  0.00    -0.646 OA
HETATM   12  O           1      -9.135   9.714 -20.513  0.00  0.00    -0.646 OA
ENDBRANCH   6  10
ENDBRANCH   3   6
ENDBRANCH   1   2
BRANCH   1  13
HETATM   13  C           1     -11.611   4.546 -19.318  0.00  0.00     0.224 C 
BRANCH  13  14
HETATM   14  O           1     -12.575   5.556 -19.442  0.00  0.00    -0.287 OA
BRANCH  14  15
HETATM   15  P           1     -13.865   5.197 -20.346  0.00  0.00     0.406 P 
HETATM   16  O           1     -13.956   6.149 -21.475  0.00  0.00    -0.624 OA
HETATM   17  O           1     -13.732   3.819 -20.870  0.00  0.00    -0.624 OA
BRANCH  15  18
HETATM   18  O           1     -15.201   5.303 -19.445  0.00  0.00    -0.300 OA
HETATM   19  H           1     -15.854   5.666 -20.018  0.00  0.00     0.223 HD
ENDBRANCH  15  18
ENDBRANCH  14  15
ENDBRANCH  13  14
ENDBRANCH   1  13
BRANCH   1  20
HETATM   20  N           1      -9.514   5.675 -18.672  0.00  0.00    -0.064 N 
HETATM   21  H           1      -9.203   4.923 -18.015  0.00  0.00     0.275 HD
HETATM   22  H           1      -8.678   6.183 -19.038  0.00  0.00     0.275 HD
HETATM   23  H           1     -10.134   6.344 -18.164  0.00  0.00     0.275 HD
ENDBRANCH   1  20
TORSDOF 10
ENDMDL
