MODEL 1
REMARK VINA RESULT:      -7.1      0.000      0.000
REMARK  10 active torsions:
REMARK  status: ('A' for Active; 'I' for Inactive)
REMARK    1  A    between atoms: N_4  and  C_27 
REMARK    2  A    between atoms: C_5  and  C_27 
REMARK    3  A    between atoms: C_5  and  C_13 
REMARK    4  A    between atoms: N_6  and  C_22 
REMARK    5  A    between atoms: C_12  and  C_14 
REMARK    6  A    between atoms: C_12  and  C_29 
REMARK    7  A    between atoms: C_12  and  N_23 
REMARK    8  A    between atoms: C_13  and  C_22 
REMARK       I    between atoms: C_16  and  N_23 
REMARK    9  A    between atoms: C_16  and  C_27 
REMARK   10  A    between atoms: C_24  and  C_29 
ROOT
HETATM    1  H           1     -20.583  -4.506  -5.938  0.00  0.00     0.163 HD
HETATM    2  C           1     -20.475  -6.540  -6.309  0.00  0.00     0.249 C 
HETATM    3  O           1     -19.372  -7.014  -6.439  0.00  0.00    -0.271 OA
HETATM    4  N           1     -20.699  -5.230  -6.636  0.00  0.00    -0.344 N 
ENDROOT
BRANCH   4   5
HETATM    5  C           1     -21.103  -4.877  -7.984  0.00  0.00     0.190 C 
BRANCH   5   6
HETATM    6  C           1     -19.877  -4.653  -8.834  0.00  0.00     0.197 C 
HETATM    7  O           1     -18.914  -3.997  -8.381  0.00  0.00    -0.646 OA
HETATM    8  O           1     -19.823  -5.125  -9.990  0.00  0.00    -0.646 OA
ENDBRANCH   5   6
BRANCH   5   9
HETATM    9  C           1     -21.933  -3.601  -7.946  0.00  0.00     0.077 C 
BRANCH   9  10
HETATM   10  C           1     -23.050  -3.701  -8.939  0.00  0.00    -0.021 A 
HETATM   11  C           1     -22.967  -3.404 -10.327  0.00  0.00     0.005 A 
HETATM   12  C           1     -24.231  -3.632 -10.872  0.00  0.00     0.132 A 
HETATM   13  C           1     -21.934  -2.961 -11.174  0.00  0.00     0.014 A 
HETATM   14  N           1     -25.045  -4.052  -9.844  0.00  0.00    -0.076 N 
HETATM   15  C           1     -24.515  -3.438 -12.229  0.00  0.00     0.037 A 
HETATM   16  C           1     -24.340  -4.098  -8.670  0.00  0.00     0.195 A 
HETATM   17  H           1     -26.060  -4.302  -9.945  0.00  0.00     0.272 HD
HETATM   18  C           1     -23.473  -2.998 -13.051  0.00  0.00     0.002 A 
HETATM   19  C           1     -22.200  -2.762 -12.534  0.00  0.00     0.001 A 
ENDBRANCH   9  10
ENDBRANCH   5   9
ENDBRANCH   4   5
BRANCH   2  20
HETATM   20  C           1     -21.606  -7.391  -5.788  0.00  0.00     0.274 C 
BRANCH  20  21
HETATM   21  N           1     -21.152  -8.817  -5.686  0.00  0.00    -0.067 N 
HETATM   22  H           1     -20.664  -8.964  -4.774  0.00  0.00     0.275 HD
HETATM   23  H           1     -21.981  -9.451  -5.743  0.00  0.00     0.275 HD
HETATM   24  H           1     -20.495  -9.030  -6.470  0.00  0.00     0.275 HD
ENDBRANCH  20  21
BRANCH  20  25
HETATM   25  C           1     -22.025  -6.893  -4.411  0.00  0.00     0.044 C 
BRANCH  25  26
HETATM   26  C           1     -21.434  -7.801  -3.340  0.00  0.00     0.033 C 
BRANCH  26  27
HETATM   27  C           1     -21.452  -7.084  -1.997  0.00  0.00     0.619 C 
BRANCH  27  28
HETATM   28  N           1     -22.348  -5.884  -2.082  0.00  0.00    -0.077 N 
HETATM   29  H           1     -23.177  -6.111  -2.676  0.00  0.00     0.274 HD
HETATM   30  H           1     -22.668  -5.620  -1.123  0.00  0.00     0.274 HD
HETATM   31  H           1     -21.822  -5.087  -2.505  0.00  0.00     0.274 HD
ENDBRANCH  27  28
ENDBRANCH  26  27
ENDBRANCH  25  26
ENDBRANCH  20  25
ENDBRANCH   2  20
TORSDOF 10
ENDMDL
MODEL 2
REMARK VINA RESULT:      -7.1      1.891      7.982
REMARK  10 active torsions:
REMARK  status: ('A' for Active; 'I' for Inactive)
REMARK    1  A    between atoms: N_4  and  C_27 
REMARK    2  A    between atoms: C_5  and  C_27 
REMARK    3  A    between atoms: C_5  and  C_13 
REMARK    4  A    between atoms: N_6  and  C_22 
REMARK    5  A    between atoms: C_12  and  C_14 
REMARK    6  A    between atoms: C_12  and  C_29 
REMARK    7  A    between atoms: C_12  and  N_23 
REMARK    8  A    between atoms: C_13  and  C_22 
REMARK       I    between atoms: C_16  and  N_23 
REMARK    9  A    between atoms: C_16  and  C_27 
REMARK   10  A    between atoms: C_24  and  C_29 
ROOT
HETATM    1  H           1     -20.332  -7.594  -7.499  0.00  0.00     0.163 HD
HETATM    2  C           1     -20.278  -5.584  -7.009  0.00  0.00     0.249 C 
HETATM    3  O           1     -19.247  -4.994  -7.230  0.00  0.00    -0.271 OA
HETATM    4  N           1     -20.255  -6.926  -6.742  0.00  0.00    -0.344 N 
ENDROOT
BRANCH   4   5
HETATM    5  C           1     -20.119  -7.393  -5.376  0.00  0.00     0.190 C 
BRANCH   5   6
HETATM    6  C           1     -19.101  -8.505  -5.322  0.00  0.00     0.197 C 
HETATM    7  O           1     -18.962  -9.175  -4.277  0.00  0.00    -0.646 OA
HETATM    8  O           1     -18.397  -8.756  -6.324  0.00  0.00    -0.646 OA
ENDBRANCH   5   6
BRANCH   5   9
HETATM    9  C           1     -21.463  -7.911  -4.882  0.00  0.00     0.077 C 
BRANCH   9  10
HETATM   10  C           1     -21.757  -7.334  -3.532  0.00  0.00    -0.021 A 
HETATM   11  C           1     -21.800  -8.051  -2.304  0.00  0.00     0.005 A 
HETATM   12  C           1     -22.107  -7.130  -1.302  0.00  0.00     0.132 A 
HETATM   13  C           1     -21.606  -9.399  -1.950  0.00  0.00     0.014 A 
HETATM   14  N           1     -22.243  -5.902  -1.908  0.00  0.00    -0.076 N 
HETATM   15  C           1     -22.230  -7.493   0.044  0.00  0.00     0.037 A 
HETATM   16  C           1     -22.033  -6.013  -3.257  0.00  0.00     0.195 A 
HETATM   17  H           1     -22.475  -5.007  -1.409  0.00  0.00     0.272 HD
HETATM   18  C           1     -22.033  -8.838   0.373  0.00  0.00     0.002 A 
HETATM   19  C           1     -21.726  -9.780  -0.608  0.00  0.00     0.001 A 
ENDBRANCH   9  10
ENDBRANCH   5   9
ENDBRANCH   4   5
BRANCH   2  20
HETATM   20  C           1     -21.591  -4.841  -7.026  0.00  0.00     0.274 C 
BRANCH  20  21
HETATM   21  N           1     -21.351  -3.396  -6.704  0.00  0.00    -0.067 N 
HETATM   22  H           1     -20.391  -3.281  -6.310  0.00  0.00     0.275 HD
HETATM   23  H           1     -21.441  -2.826  -7.576  0.00  0.00     0.275 HD
HETATM   24  H           1     -22.056  -3.074  -6.003  0.00  0.00     0.275 HD
ENDBRANCH  20  21
BRANCH  20  25
HETATM   25  C           1     -22.222  -4.956  -8.407  0.00  0.00     0.044 C 
BRANCH  25  26
HETATM   26  C           1     -23.387  -3.979  -8.516  0.00  0.00     0.033 C 
BRANCH  26  27
HETATM   27  C           1     -24.152  -4.241  -9.806  0.00  0.00     0.619 C 
BRANCH  27  28
HETATM   28  N           1     -25.457  -3.504  -9.774  0.00  0.00    -0.077 N 
HETATM   29  H           1     -25.348  -2.581 -10.253  0.00  0.00     0.274 HD
HETATM   30  H           1     -26.188  -4.067 -10.264  0.00  0.00     0.274 HD
HETATM   31  H           1     -25.744  -3.349  -8.781  0.00  0.00     0.274 HD
ENDBRANCH  27  28
ENDBRANCH  26  27
ENDBRANCH  25  26
ENDBRANCH  20  25
ENDBRANCH   2  20
TORSDOF 10
ENDMDL
MODEL 3
REMARK VINA RESULT:      -7.0      2.372      3.756
REMARK  10 active torsions:
REMARK  status: ('A' for Active; 'I' for Inactive)
REMARK    1  A    between atoms: N_4  and  C_27 
REMARK    2  A    between atoms: C_5  and  C_27 
REMARK    3  A    between atoms: C_5  and  C_13 
REMARK    4  A    between atoms: N_6  and  C_22 
REMARK    5  A    between atoms: C_12  and  C_14 
REMARK    6  A    between atoms: C_12  and  C_29 
REMARK    7  A    between atoms: C_12  and  N_23 
REMARK    8  A    between atoms: C_13  and  C_22 
REMARK       I    between atoms: C_16  and  N_23 
REMARK    9  A    between atoms: C_16  and  C_27 
REMARK   10  A    between atoms: C_24  and  C_29 
ROOT
HETATM    1  H           1     -23.463  -6.091  -4.172  0.00  0.00     0.163 HD
HETATM    2  C           1     -21.742  -6.309  -3.042  0.00  0.00     0.249 C 
HETATM    3  O           1     -21.136  -5.300  -2.768  0.00  0.00    -0.271 OA
HETATM    4  N           1     -22.490  -6.368  -4.187  0.00  0.00    -0.344 N 
ENDROOT
BRANCH   4   5
HETATM    5  C           1     -21.888  -6.830  -5.424  0.00  0.00     0.190 C 
BRANCH   5   6
HETATM    6  C           1     -20.984  -8.003  -5.135  0.00  0.00     0.197 C 
HETATM    7  O           1     -19.760  -7.822  -4.963  0.00  0.00    -0.646 OA
HETATM    8  O           1     -21.460  -9.157  -5.069  0.00  0.00    -0.646 OA
ENDBRANCH   5   6
BRANCH   5   9
HETATM    9  C           1     -21.073  -5.701  -6.041  0.00  0.00     0.077 C 
BRANCH   9  10
HETATM   10  C           1     -21.881  -5.025  -7.105  0.00  0.00    -0.021 A 
HETATM   11  C           1     -21.438  -4.702  -8.418  0.00  0.00     0.005 A 
HETATM   12  C           1     -22.505  -4.085  -9.071  0.00  0.00     0.132 A 
HETATM   13  C           1     -20.227  -4.876  -9.113  0.00  0.00     0.014 A 
HETATM   14  N           1     -23.554  -4.040  -8.180  0.00  0.00    -0.076 N 
HETATM   15  C           1     -22.421  -3.631 -10.392  0.00  0.00     0.037 A 
HETATM   16  C           1     -23.188  -4.607  -6.988  0.00  0.00     0.195 A 
HETATM   17  H           1     -24.499  -3.630  -8.385  0.00  0.00     0.272 HD
HETATM   18  C           1     -21.208  -3.815 -11.063  0.00  0.00     0.002 A 
HETATM   19  C           1     -20.125  -4.428 -10.436  0.00  0.00     0.001 A 
ENDBRANCH   9  10
ENDBRANCH   5   9
ENDBRANCH   4   5
BRANCH   2  20
HETATM   20  C           1     -21.676  -7.503  -2.122  0.00  0.00     0.274 C 
BRANCH  20  21
HETATM   21  N           1     -20.242  -7.824  -1.823  0.00  0.00    -0.067 N 
HETATM   22  H           1     -19.996  -7.471  -0.872  0.00  0.00     0.275 HD
HETATM   23  H           1     -20.103  -8.860  -1.858  0.00  0.00     0.275 HD
HETATM   24  H           1     -19.627  -7.366  -2.534  0.00  0.00     0.275 HD
ENDBRANCH  20  21
BRANCH  20  25
HETATM   25  C           1     -22.405  -7.185  -0.823  0.00  0.00     0.044 C 
BRANCH  25  26
HETATM   26  C           1     -22.111  -8.271   0.203  0.00  0.00     0.033 C 
BRANCH  26  27
HETATM   27  C           1     -23.016  -9.470  -0.051  0.00  0.00     0.619 C 
BRANCH  27  28
HETATM   28  N           1     -22.203 -10.730  -0.006  0.00  0.00    -0.077 N 
HETATM   29  H           1     -21.988 -10.970   0.988  0.00  0.00     0.274 HD
HETATM   30  H           1     -22.744 -11.509  -0.443  0.00  0.00     0.274 HD
HETATM   31  H           1     -21.312 -10.587  -0.532  0.00  0.00     0.274 HD
ENDBRANCH  27  28
ENDBRANCH  26  27
ENDBRANCH  25  26
ENDBRANCH  20  25
ENDBRANCH   2  20
TORSDOF 10
ENDMDL
MODEL 4
REMARK VINA RESULT:      -7.0      3.703      8.449
REMARK  10 active torsions:
REMARK  status: ('A' for Active; 'I' for Inactive)
REMARK    1  A    between atoms: N_4  and  C_27 
REMARK    2  A    between atoms: C_5  and  C_27 
REMARK    3  A    between atoms: C_5  and  C_13 
REMARK    4  A    between atoms: N_6  and  C_22 
REMARK    5  A    between atoms: C_12  and  C_14 
REMARK    6  A    between atoms: C_12  and  C_29 
REMARK    7  A    between atoms: C_12  and  N_23 
REMARK    8  A    between atoms: C_13  and  C_22 
REMARK       I    between atoms: C_16  and  N_23 
REMARK    9  A    between atoms: C_16  and  C_27 
REMARK   10  A    between atoms: C_24  and  C_29 
ROOT
HETATM    1  H           1     -21.095  -5.766  -2.361  0.00  0.00     0.163 HD
HETATM    2  C           1     -21.593  -6.300  -4.297  0.00  0.00     0.249 C 
HETATM    3  O           1     -22.720  -6.059  -4.659  0.00  0.00    -0.271 OA
HETATM    4  N           1     -21.334  -6.535  -2.974  0.00  0.00    -0.344 N 
ENDROOT
BRANCH   4   5
HETATM    5  C           1     -21.403  -7.885  -2.449  0.00  0.00     0.190 C 
BRANCH   5   6
HETATM    6  C           1     -22.215  -7.889  -1.177  0.00  0.00     0.197 C 
HETATM    7  O           1     -22.342  -8.944  -0.520  0.00  0.00    -0.646 OA
HETATM    8  O           1     -22.761  -6.836  -0.780  0.00  0.00    -0.646 OA
ENDBRANCH   5   6
BRANCH   5   9
HETATM    9  C           1     -19.996  -8.386  -2.154  0.00  0.00     0.077 C 
BRANCH   9  10
HETATM   10  C           1     -19.529  -9.257  -3.279  0.00  0.00    -0.021 A 
HETATM   11  C           1     -18.182  -9.625  -3.553  0.00  0.00     0.005 A 
HETATM   12  C           1     -18.201 -10.440  -4.685  0.00  0.00     0.132 A 
HETATM   13  C           1     -16.947  -9.340  -2.944  0.00  0.00     0.014 A 
HETATM   14  N           1     -19.516 -10.558  -5.077  0.00  0.00    -0.076 N 
HETATM   15  C           1     -17.039 -10.988  -5.241  0.00  0.00     0.037 A 
HETATM   16  C           1     -20.328  -9.847  -4.233  0.00  0.00     0.195 A 
HETATM   17  H           1     -19.849 -11.114  -5.904  0.00  0.00     0.272 HD
HETATM   18  C           1     -15.823 -10.691  -4.619  0.00  0.00     0.002 A 
HETATM   19  C           1     -15.774  -9.879  -3.487  0.00  0.00     0.001 A 
ENDBRANCH   9  10
ENDBRANCH   5   9
ENDBRANCH   4   5
BRANCH   2  20
HETATM   20  C           1     -20.470  -6.344  -5.304  0.00  0.00     0.274 C 
BRANCH  20  21
HETATM   21  N           1     -20.910  -7.121  -6.509  0.00  0.00    -0.067 N 
HETATM   22  H           1     -20.139  -7.756  -6.815  0.00  0.00     0.275 HD
HETATM   23  H           1     -21.754  -7.689  -6.268  0.00  0.00     0.275 HD
HETATM   24  H           1     -21.143  -6.460  -7.284  0.00  0.00     0.275 HD
ENDBRANCH  20  21
BRANCH  20  25
HETATM   25  C           1     -20.105  -4.925  -5.721  0.00  0.00     0.044 C 
BRANCH  25  26
HETATM   26  C           1     -20.405  -4.738  -7.203  0.00  0.00     0.033 C 
BRANCH  26  27
HETATM   27  C           1     -21.466  -3.659  -7.375  0.00  0.00     0.619 C 
BRANCH  27  28
HETATM   28  N           1     -22.829  -4.272  -7.252  0.00  0.00    -0.077 N 
HETATM   29  H           1     -23.164  -4.181  -6.266  0.00  0.00     0.274 HD
HETATM   30  H           1     -23.492  -3.780  -7.891  0.00  0.00     0.274 HD
HETATM   31  H           1     -22.780  -5.283  -7.512  0.00  0.00     0.274 HD
ENDBRANCH  27  28
ENDBRANCH  26  27
ENDBRANCH  25  26
ENDBRANCH  20  25
ENDBRANCH   2  20
TORSDOF 10
ENDMDL
MODEL 5
REMARK VINA RESULT:      -7.0      2.372      8.417
REMARK  10 active torsions:
REMARK  status: ('A' for Active; 'I' for Inactive)
REMARK    1  A    between atoms: N_4  and  C_27 
REMARK    2  A    between atoms: C_5  and  C_27 
REMARK    3  A    between atoms: C_5  and  C_13 
REMARK    4  A    between atoms: N_6  and  C_22 
REMARK    5  A    between atoms: C_12  and  C_14 
REMARK    6  A    between atoms: C_12  and  C_29 
REMARK    7  A    between atoms: C_12  and  N_23 
REMARK    8  A    between atoms: C_13  and  C_22 
REMARK       I    between atoms: C_16  and  N_23 
REMARK    9  A    between atoms: C_16  and  C_27 
REMARK   10  A    between atoms: C_24  and  C_29 
ROOT
HETATM    1  H           1     -19.617  -7.222  -7.076  0.00  0.00     0.163 HD
HETATM    2  C           1     -20.589  -5.398  -6.965  0.00  0.00     0.249 C 
HETATM    3  O           1     -20.017  -4.507  -6.381  0.00  0.00    -0.271 OA
HETATM    4  N           1     -20.357  -6.702  -6.621  0.00  0.00    -0.344 N 
ENDROOT
BRANCH   4   5
HETATM    5  C           1     -21.170  -7.340  -5.603  0.00  0.00     0.190 C 
BRANCH   5   6
HETATM    6  C           1     -21.960  -6.290  -4.861  0.00  0.00     0.197 C 
HETATM    7  O           1     -23.147  -6.062  -5.179  0.00  0.00    -0.646 OA
HETATM    8  O           1     -21.428  -5.650  -3.929  0.00  0.00    -0.646 OA
ENDBRANCH   5   6
BRANCH   5   9
HETATM    9  C           1     -20.268  -8.081  -4.626  0.00  0.00     0.077 C 
BRANCH   9  10
HETATM   10  C           1     -21.090  -9.024  -3.804  0.00  0.00    -0.021 A 
HETATM   11  C           1     -21.401  -8.882  -2.423  0.00  0.00     0.005 A 
HETATM   12  C           1     -22.185  -9.978  -2.063  0.00  0.00     0.132 A 
HETATM   13  C           1     -21.090  -7.921  -1.443  0.00  0.00     0.014 A 
HETATM   14  N           1     -22.338 -10.753  -3.190  0.00  0.00    -0.076 N 
HETATM   15  C           1     -22.674 -10.163  -0.765  0.00  0.00     0.037 A 
HETATM   16  C           1     -21.681 -10.185  -4.249  0.00  0.00     0.195 A 
HETATM   17  H           1     -22.882 -11.651  -3.233  0.00  0.00     0.272 HD
HETATM   18  C           1     -22.352  -9.195   0.192  0.00  0.00     0.002 A 
HETATM   19  C           1     -21.571  -8.089  -0.139  0.00  0.00     0.001 A 
ENDBRANCH   9  10
ENDBRANCH   5   9
ENDBRANCH   4   5
BRANCH   2  20
HETATM   20  C           1     -21.559  -5.071  -8.073  0.00  0.00     0.274 C 
BRANCH  20  21
HETATM   21  N           1     -22.566  -4.076  -7.579  0.00  0.00    -0.067 N 
HETATM   22  H           1     -22.072  -3.285  -7.108  0.00  0.00     0.275 HD
HETATM   23  H           1     -23.119  -3.709  -8.387  0.00  0.00     0.275 HD
HETATM   24  H           1     -23.208  -4.539  -6.898  0.00  0.00     0.275 HD
ENDBRANCH  20  21
BRANCH  20  25
HETATM   25  C           1     -20.801  -4.482  -9.256  0.00  0.00     0.044 C 
BRANCH  25  26
HETATM   26  C           1     -21.771  -3.723 -10.153  0.00  0.00     0.033 C 
BRANCH  26  27
HETATM   27  C           1     -22.006  -4.516 -11.433  0.00  0.00     0.619 C 
BRANCH  27  28
HETATM   28  N           1     -21.698  -3.654 -12.621  0.00  0.00    -0.077 N 
HETATM   29  H           1     -22.537  -3.606 -13.242  0.00  0.00     0.274 HD
HETATM   30  H           1     -21.448  -2.693 -12.298  0.00  0.00     0.274 HD
HETATM   31  H           1     -20.895  -4.064 -13.149  0.00  0.00     0.274 HD
ENDBRANCH  27  28
ENDBRANCH  26  27
ENDBRANCH  25  26
ENDBRANCH  20  25
ENDBRANCH   2  20
TORSDOF 10
ENDMDL
MODEL 6
REMARK VINA RESULT:      -6.9      2.246      7.987
REMARK  10 active torsions:
REMARK  status: ('A' for Active; 'I' for Inactive)
REMARK    1  A    between atoms: N_4  and  C_27 
REMARK    2  A    between atoms: C_5  and  C_27 
REMARK    3  A    between atoms: C_5  and  C_13 
REMARK    4  A    between atoms: N_6  and  C_22 
REMARK    5  A    between atoms: C_12  and  C_14 
REMARK    6  A    between atoms: C_12  and  C_29 
REMARK    7  A    between atoms: C_12  and  N_23 
REMARK    8  A    between atoms: C_13  and  C_22 
REMARK       I    between atoms: C_16  and  N_23 
REMARK    9  A    between atoms: C_16  and  C_27 
REMARK   10  A    between atoms: C_24  and  C_29 
ROOT
HETATM    1  H           1     -19.401  -7.519  -7.057  0.00  0.00     0.163 HD
HETATM    2  C           1     -20.391  -5.931  -6.172  0.00  0.00     0.249 C 
HETATM    3  O           1     -19.715  -4.995  -5.816  0.00  0.00    -0.271 OA
HETATM    4  N           1     -19.851  -7.189  -6.213  0.00  0.00    -0.344 N 
ENDROOT
BRANCH   4   5
HETATM    5  C           1     -19.924  -8.048  -5.046  0.00  0.00     0.190 C 
BRANCH   5   6
HETATM    6  C           1     -18.783  -9.034  -5.077  0.00  0.00     0.197 C 
HETATM    7  O           1     -18.104  -9.237  -4.048  0.00  0.00    -0.646 OA
HETATM    8  O           1     -18.517  -9.650  -6.132  0.00  0.00    -0.646 OA
ENDBRANCH   5   6
BRANCH   5   9
HETATM    9  C           1     -21.247  -8.801  -5.054  0.00  0.00     0.077 C 
BRANCH   9  10
HETATM   10  C           1     -21.529  -9.331  -3.682  0.00  0.00    -0.021 A 
HETATM   11  C           1     -21.809  -8.554  -2.524  0.00  0.00     0.005 A 
HETATM   12  C           1     -22.010  -9.446  -1.470  0.00  0.00     0.132 A 
HETATM   13  C           1     -21.909  -7.173  -2.272  0.00  0.00     0.014 A 
HETATM   14  N           1     -21.857 -10.715  -1.980  0.00  0.00    -0.076 N 
HETATM   15  C           1     -22.309  -9.023  -0.170  0.00  0.00     0.037 A 
HETATM   16  C           1     -21.567 -10.658  -3.317  0.00  0.00     0.195 A 
HETATM   17  H           1     -21.950 -11.602  -1.424  0.00  0.00     0.272 HD
HETATM   18  C           1     -22.404  -7.647   0.057  0.00  0.00     0.002 A 
HETATM   19  C           1     -22.207  -6.732  -0.976  0.00  0.00     0.001 A 
ENDBRANCH   9  10
ENDBRANCH   5   9
ENDBRANCH   4   5
BRANCH   2  20
HETATM   20  C           1     -21.830  -5.714  -6.571  0.00  0.00     0.274 C 
BRANCH  20  21
HETATM   21  N           1     -22.699  -5.760  -5.350  0.00  0.00    -0.067 N 
HETATM   22  H           1     -22.652  -6.712  -4.923  0.00  0.00     0.275 HD
HETATM   23  H           1     -22.364  -5.051  -4.658  0.00  0.00     0.275 HD
HETATM   24  H           1     -23.686  -5.547  -5.617  0.00  0.00     0.275 HD
ENDBRANCH  20  21
BRANCH  20  25
HETATM   25  C           1     -21.971  -4.356  -7.244  0.00  0.00     0.044 C 
BRANCH  25  26
HETATM   26  C           1     -21.747  -4.506  -8.743  0.00  0.00     0.033 C 
BRANCH  26  27
HETATM   27  C           1     -22.953  -3.958  -9.495  0.00  0.00     0.619 C 
BRANCH  27  28
HETATM   28  N           1     -24.083  -3.734  -8.535  0.00  0.00    -0.077 N 
HETATM   29  H           1     -24.295  -4.625  -8.032  0.00  0.00     0.274 HD
HETATM   30  H           1     -23.812  -2.999  -7.844  0.00  0.00     0.274 HD
HETATM   31  H           1     -24.930  -3.421  -9.062  0.00  0.00     0.274 HD
ENDBRANCH  27  28
ENDBRANCH  26  27
ENDBRANCH  25  26
ENDBRANCH  20  25
ENDBRANCH   2  20
TORSDOF 10
ENDMDL
MODEL 7
REMARK VINA RESULT:      -6.7      2.738      8.539
REMARK  10 active torsions:
REMARK  status: ('A' for Active; 'I' for Inactive)
REMARK    1  A    between atoms: N_4  and  C_27 
REMARK    2  A    between atoms: C_5  and  C_27 
REMARK    3  A    between atoms: C_5  and  C_13 
REMARK    4  A    between atoms: N_6  and  C_22 
REMARK    5  A    between atoms: C_12  and  C_14 
REMARK    6  A    between atoms: C_12  and  C_29 
REMARK    7  A    between atoms: C_12  and  N_23 
REMARK    8  A    between atoms: C_13  and  C_22 
REMARK       I    between atoms: C_16  and  N_23 
REMARK    9  A    between atoms: C_16  and  C_27 
REMARK   10  A    between atoms: C_24  and  C_29 
ROOT
HETATM    1  H           1     -21.496  -8.536  -6.528  0.00  0.00     0.163 HD
HETATM    2  C           1     -20.381  -6.820  -6.223  0.00  0.00     0.249 C 
HETATM    3  O           1     -19.465  -6.619  -6.985  0.00  0.00    -0.271 OA
HETATM    4  N           1     -20.783  -8.101  -5.957  0.00  0.00    -0.344 N 
ENDROOT
BRANCH   4   5
HETATM    5  C           1     -20.186  -8.835  -4.858  0.00  0.00     0.190 C 
BRANCH   5   6
HETATM    6  C           1     -18.964  -9.570  -5.349  0.00  0.00     0.197 C 
HETATM    7  O           1     -19.059 -10.376  -6.299  0.00  0.00    -0.646 OA
HETATM    8  O           1     -17.854  -9.372  -4.807  0.00  0.00    -0.646 OA
ENDBRANCH   5   6
BRANCH   5   9
HETATM    9  C           1     -21.195  -9.836  -4.311  0.00  0.00     0.077 C 
BRANCH   9  10
HETATM   10  C           1     -21.602  -9.431  -2.928  0.00  0.00    -0.021 A 
HETATM   11  C           1     -22.480 -10.148  -2.069  0.00  0.00     0.005 A 
HETATM   12  C           1     -22.582  -9.418  -0.884  0.00  0.00     0.132 A 
HETATM   13  C           1     -23.200 -11.351  -2.187  0.00  0.00     0.014 A 
HETATM   14  N           1     -21.790  -8.301  -1.028  0.00  0.00    -0.076 N 
HETATM   15  C           1     -23.371  -9.834   0.194  0.00  0.00     0.037 A 
HETATM   16  C           1     -21.192  -8.299  -2.261  0.00  0.00     0.195 A 
HETATM   17  H           1     -21.662  -7.556  -0.298  0.00  0.00     0.272 HD
HETATM   18  C           1     -24.078 -11.032   0.054  0.00  0.00     0.002 A 
HETATM   19  C           1     -23.996 -11.782  -1.118  0.00  0.00     0.001 A 
ENDBRANCH   9  10
ENDBRANCH   5   9
ENDBRANCH   4   5
BRANCH   2  20
HETATM   20  C           1     -21.082  -5.657  -5.564  0.00  0.00     0.274 C 
BRANCH  20  21
HETATM   21  N           1     -20.110  -4.531  -5.374  0.00  0.00    -0.067 N 
HETATM   22  H           1     -20.511  -3.833  -4.707  0.00  0.00     0.275 HD
HETATM   23  H           1     -19.214  -4.905  -4.988  0.00  0.00     0.275 HD
HETATM   24  H           1     -19.929  -4.069  -6.293  0.00  0.00     0.275 HD
ENDBRANCH  20  21
BRANCH  20  25
HETATM   25  C           1     -22.233  -5.191  -6.445  0.00  0.00     0.044 C 
BRANCH  25  26
HETATM   26  C           1     -21.794  -3.977  -7.253  0.00  0.00     0.033 C 
BRANCH  26  27
HETATM   27  C           1     -22.505  -3.978  -8.601  0.00  0.00     0.619 C 
BRANCH  27  28
HETATM   28  N           1     -23.981  -3.813  -8.389  0.00  0.00    -0.077 N 
HETATM   29  H           1     -24.250  -2.820  -8.574  0.00  0.00     0.274 HD
HETATM   30  H           1     -24.499  -4.442  -9.042  0.00  0.00     0.274 HD
HETATM   31  H           1     -24.220  -4.062  -7.403  0.00  0.00     0.274 HD
ENDBRANCH  27  28
ENDBRANCH  26  27
ENDBRANCH  25  26
ENDBRANCH  20  25
ENDBRANCH   2  20
TORSDOF 10
ENDMDL
MODEL 8
REMARK VINA RESULT:      -6.4      3.407      5.241
REMARK  10 active torsions:
REMARK  status: ('A' for Active; 'I' for Inactive)
REMARK    1  A    between atoms: N_4  and  C_27 
REMARK    2  A    between atoms: C_5  and  C_27 
REMARK    3  A    between atoms: C_5  and  C_13 
REMARK    4  A    between atoms: N_6  and  C_22 
REMARK    5  A    between atoms: C_12  and  C_14 
REMARK    6  A    between atoms: C_12  and  C_29 
REMARK    7  A    between atoms: C_12  and  N_23 
REMARK    8  A    between atoms: C_13  and  C_22 
REMARK       I    between atoms: C_16  and  N_23 
REMARK    9  A    between atoms: C_16  and  C_27 
REMARK   10  A    between atoms: C_24  and  C_29 
ROOT
HETATM    1  H           1     -22.635  -9.093  -3.878  0.00  0.00     0.163 HD
HETATM    2  C           1     -20.675  -9.727  -3.673  0.00  0.00     0.249 C 
HETATM    3  O           1     -20.341 -10.127  -2.583  0.00  0.00    -0.271 OA
HETATM    4  N           1     -21.672  -8.796  -3.784  0.00  0.00    -0.344 N 
ENDROOT
BRANCH   4   5
HETATM    5  C           1     -21.348  -7.382  -3.767  0.00  0.00     0.190 C 
BRANCH   5   6
HETATM    6  C           1     -21.629  -6.819  -2.395  0.00  0.00     0.197 C 
HETATM    7  O           1     -21.058  -7.300  -1.394  0.00  0.00    -0.646 OA
HETATM    8  O           1     -22.433  -5.871  -2.261  0.00  0.00    -0.646 OA
ENDBRANCH   5   6
BRANCH   5   9
HETATM    9  C           1     -22.200  -6.655  -4.798  0.00  0.00     0.077 C 
BRANCH   9  10
HETATM   10  C           1     -21.341  -6.231  -5.948  0.00  0.00    -0.021 A 
HETATM   11  C           1     -21.730  -5.376  -7.017  0.00  0.00     0.005 A 
HETATM   12  C           1     -20.628  -5.247  -7.862  0.00  0.00     0.132 A 
HETATM   13  C           1     -22.919  -4.699  -7.345  0.00  0.00     0.014 A 
HETATM   14  N           1     -19.611  -5.999  -7.318  0.00  0.00    -0.076 N 
HETATM   15  C           1     -20.655  -4.470  -9.025  0.00  0.00     0.037 A 
HETATM   16  C           1     -20.031  -6.598  -6.160  0.00  0.00     0.195 A 
HETATM   17  H           1     -18.650  -6.099  -7.731  0.00  0.00     0.272 HD
HETATM   18  C           1     -21.847  -3.806  -9.332  0.00  0.00     0.002 A 
HETATM   19  C           1     -22.964  -3.917  -8.506  0.00  0.00     0.001 A 
ENDBRANCH   9  10
ENDBRANCH   5   9
ENDBRANCH   4   5
BRANCH   2  20
HETATM   20  C           1     -19.994 -10.255  -4.912  0.00  0.00     0.274 C 
BRANCH  20  21
HETATM   21  N           1     -20.911 -10.105  -6.089  0.00  0.00    -0.067 N 
HETATM   22  H           1     -21.771 -10.678  -5.936  0.00  0.00     0.275 HD
HETATM   23  H           1     -21.178  -9.100  -6.196  0.00  0.00     0.275 HD
HETATM   24  H           1     -20.424 -10.432  -6.953  0.00  0.00     0.275 HD
ENDBRANCH  20  21
BRANCH  20  25
HETATM   25  C           1     -18.714  -9.468  -5.162  0.00  0.00     0.044 C 
BRANCH  25  26
HETATM   26  C           1     -17.510 -10.334  -4.814  0.00  0.00     0.033 C 
BRANCH  26  27
HETATM   27  C           1     -16.807  -9.759  -3.591  0.00  0.00     0.619 C 
BRANCH  27  28
HETATM   28  N           1     -17.318 -10.436  -2.354  0.00  0.00    -0.077 N 
HETATM   29  H           1     -16.970 -11.421  -2.328  0.00  0.00     0.274 HD
HETATM   30  H           1     -16.977  -9.924  -1.510  0.00  0.00     0.274 HD
HETATM   31  H           1     -18.363 -10.435  -2.364  0.00  0.00     0.274 HD
ENDBRANCH  27  28
ENDBRANCH  26  27
ENDBRANCH  25  26
ENDBRANCH  20  25
ENDBRANCH   2  20
TORSDOF 10
ENDMDL
MODEL 9
REMARK VINA RESULT:      -6.4      3.685      5.584
REMARK  10 active torsions:
REMARK  status: ('A' for Active; 'I' for Inactive)
REMARK    1  A    between atoms: N_4  and  C_27 
REMARK    2  A    between atoms: C_5  and  C_27 
REMARK    3  A    between atoms: C_5  and  C_13 
REMARK    4  A    between atoms: N_6  and  C_22 
REMARK    5  A    between atoms: C_12  and  C_14 
REMARK    6  A    between atoms: C_12  and  C_29 
REMARK    7  A    between atoms: C_12  and  N_23 
REMARK    8  A    between atoms: C_13  and  C_22 
REMARK       I    between atoms: C_16  and  N_23 
REMARK    9  A    between atoms: C_16  and  C_27 
REMARK   10  A    between atoms: C_24  and  C_29 
ROOT
HETATM    1  H           1     -18.766  -9.853  -3.180  0.00  0.00     0.163 HD
HETATM    2  C           1     -20.440 -10.733  -2.340  0.00  0.00     0.249 C 
HETATM    3  O           1     -20.538 -11.933  -2.442  0.00  0.00    -0.271 OA
HETATM    4  N           1     -19.759 -10.018  -3.287  0.00  0.00    -0.344 N 
ENDROOT
BRANCH   4   5
HETATM    5  C           1     -20.459  -9.496  -4.446  0.00  0.00     0.190 C 
BRANCH   5   6
HETATM    6  C           1     -20.437 -10.524  -5.550  0.00  0.00     0.197 C 
HETATM    7  O           1     -21.449 -11.222  -5.774  0.00  0.00    -0.646 OA
HETATM    8  O           1     -19.407 -10.677  -6.242  0.00  0.00    -0.646 OA
ENDBRANCH   5   6
BRANCH   5   9
HETATM    9  C           1     -19.772  -8.224  -4.922  0.00  0.00     0.077 C 
BRANCH   9  10
HETATM   10  C           1     -20.805  -7.202  -5.282  0.00  0.00    -0.021 A 
HETATM   11  C           1     -20.662  -6.169  -6.250  0.00  0.00     0.005 A 
HETATM   12  C           1     -21.859  -5.451  -6.264  0.00  0.00     0.132 A 
HETATM   13  C           1     -19.626  -5.776  -7.117  0.00  0.00     0.014 A 
HETATM   14  N           1     -22.691  -6.035  -5.336  0.00  0.00    -0.076 N 
HETATM   15  C           1     -22.071  -4.354  -7.107  0.00  0.00     0.037 A 
HETATM   16  C           1     -22.065  -7.095  -4.737  0.00  0.00     0.195 A 
HETATM   17  H           1     -23.668  -5.714  -5.118  0.00  0.00     0.272 HD
HETATM   18  C           1     -21.027  -3.982  -7.959  0.00  0.00     0.002 A 
HETATM   19  C           1     -19.821  -4.680  -7.967  0.00  0.00     0.001 A 
ENDBRANCH   9  10
ENDBRANCH   5   9
ENDBRANCH   4   5
BRANCH   2  20
HETATM   20  C           1     -21.070 -10.022  -1.167  0.00  0.00     0.274 C 
BRANCH  20  21
HETATM   21  N           1     -20.600 -10.652   0.110  0.00  0.00    -0.067 N 
HETATM   22  H           1     -21.402 -10.733   0.775  0.00  0.00     0.275 HD
HETATM   23  H           1     -20.218 -11.604  -0.092  0.00  0.00     0.275 HD
HETATM   24  H           1     -19.853 -10.059   0.537  0.00  0.00     0.275 HD
ENDBRANCH  20  21
BRANCH  20  25
HETATM   25  C           1     -20.667  -8.553  -1.186  0.00  0.00     0.044 C 
BRANCH  25  26
HETATM   26  C           1     -21.916  -7.683  -1.138  0.00  0.00     0.033 C 
BRANCH  26  27
HETATM   27  C           1     -22.329  -7.466   0.313  0.00  0.00     0.619 C 
BRANCH  27  28
HETATM   28  N           1     -23.635  -8.155   0.571  0.00  0.00    -0.077 N 
HETATM   29  H           1     -23.455  -9.125   0.917  0.00  0.00     0.274 HD
HETATM   30  H           1     -24.174  -7.623   1.291  0.00  0.00     0.274 HD
HETATM   31  H           1     -24.187  -8.197  -0.316  0.00  0.00     0.274 HD
ENDBRANCH  27  28
ENDBRANCH  26  27
ENDBRANCH  25  26
ENDBRANCH  20  25
ENDBRANCH   2  20
TORSDOF 10
ENDMDL
