MODEL 1
REMARK VINA RESULT:      -7.0      0.000      0.000
REMARK  9 active torsions:
REMARK  status: ('A' for Active; 'I' for Inactive)
REMARK    1  A    between atoms: O_1  and  C_25 
REMARK    2  A    between atoms: C_4  and  C_9 
REMARK    3  A    between atoms: C_4  and  C_5 
REMARK    4  A    between atoms: C_9  and  C_18 
REMARK    5  A    between atoms: C_9  and  N_22 
REMARK    6  A    between atoms: O_10  and  C_11 
REMARK    7  A    between atoms: C_11  and  C_12 
REMARK    8  A    between atoms: C_12  and  C_17 
REMARK    9  A    between atoms: C_12  and  N_24 
REMARK       I    between atoms: C_18  and  N_24 
ROOT
HETATM    1  C           1     -22.113  -5.117  -6.722  0.00  0.00     0.278 C 
ENDROOT
BRANCH   1   2
HETATM    2  C           1     -21.531  -3.819  -7.268  0.00  0.00     0.081 C 
BRANCH   2   3
HETATM    3  C           1     -21.587  -3.838  -8.764  0.00  0.00    -0.056 A 
HETATM    4  C           1     -22.783  -3.550  -9.421  0.00  0.00     0.010 A 
HETATM    5  C           1     -22.834  -3.567 -10.816  0.00  0.00     0.037 A 
HETATM    6  C           1     -21.689  -3.872 -11.552  0.00  0.00     0.065 A 
HETATM    7  C           1     -20.494  -4.159 -10.894  0.00  0.00     0.037 A 
HETATM    8  C           1     -20.442  -4.142  -9.500  0.00  0.00     0.010 A 
BRANCH   6   9
HETATM    9  O           1     -21.740  -3.888 -12.906  0.00  0.00    -0.361 OA
HETATM   10  H           1     -22.087  -4.752 -13.182  0.00  0.00     0.217 HD
ENDBRANCH   6   9
ENDBRANCH   2   3
ENDBRANCH   1   2
BRANCH   1  11
HETATM   11  C           1     -21.369  -5.515  -5.471  0.00  0.00     0.249 C 
HETATM   12  O           1     -20.188  -5.284  -5.370  0.00  0.00    -0.271 OA
HETATM   13  N           1     -22.034  -6.139  -4.449  0.00  0.00    -0.343 N 
HETATM   14  H           1     -23.023  -6.333  -4.533  0.00  0.00     0.163 HD
BRANCH  13  15
HETATM   15  C           1     -21.319  -6.522  -3.247  0.00  0.00     0.209 C 
BRANCH  15  16
HETATM   16  C           1     -22.170  -6.199  -2.026  0.00  0.00     0.200 C 
BRANCH  16  17
HETATM   17  O           1     -22.222  -7.318  -1.183  0.00  0.00    -0.398 OA
HETATM   18  H           1     -21.332  -7.570  -1.006  0.00  0.00     0.209 HD
ENDBRANCH  16  17
ENDBRANCH  15  16
BRANCH  15  19
HETATM   19  C           1     -21.033  -8.003  -3.283  0.00  0.00     0.198 C 
HETATM   20  O           1     -21.809  -8.775  -3.887  0.00  0.00    -0.646 OA
HETATM   21  O           1     -20.020  -8.459  -2.709  0.00  0.00    -0.646 OA
ENDBRANCH  15  19
ENDBRANCH  13  15
ENDBRANCH   1  11
BRANCH   1  22
HETATM   22  N           1     -23.564  -4.915  -6.398  0.00  0.00    -0.066 N 
HETATM   23  H           1     -24.100  -5.778  -6.644  0.00  0.00     0.275 HD
HETATM   24  H           1     -23.667  -4.720  -5.376  0.00  0.00     0.275 HD
HETATM   25  H           1     -23.935  -4.107  -6.947  0.00  0.00     0.275 HD
ENDBRANCH   1  22
TORSDOF 9
ENDMDL
MODEL 2
REMARK VINA RESULT:      -6.8      1.650      2.043
REMARK  9 active torsions:
REMARK  status: ('A' for Active; 'I' for Inactive)
REMARK    1  A    between atoms: O_1  and  C_25 
REMARK    2  A    between atoms: C_4  and  C_9 
REMARK    3  A    between atoms: C_4  and  C_5 
REMARK    4  A    between atoms: C_9  and  C_18 
REMARK    5  A    between atoms: C_9  and  N_22 
REMARK    6  A    between atoms: O_10  and  C_11 
REMARK    7  A    between atoms: C_11  and  C_12 
REMARK    8  A    between atoms: C_12  and  C_17 
REMARK    9  A    between atoms: C_12  and  N_24 
REMARK       I    between atoms: C_18  and  N_24 
ROOT
HETATM    1  C           1     -21.750  -4.699  -7.794  0.00  0.00     0.278 C 
ENDROOT
BRANCH   1   2
HETATM    2  C           1     -21.050  -4.661  -9.147  0.00  0.00     0.081 C 
BRANCH   2   3
HETATM    3  C           1     -21.974  -4.077 -10.170  0.00  0.00    -0.056 A 
HETATM    4  C           1     -23.347  -4.297 -10.076  0.00  0.00     0.010 A 
HETATM    5  C           1     -24.208  -3.752 -11.030  0.00  0.00     0.037 A 
HETATM    6  C           1     -23.694  -2.988 -12.077  0.00  0.00     0.065 A 
HETATM    7  C           1     -22.321  -2.767 -12.170  0.00  0.00     0.037 A 
HETATM    8  C           1     -21.460  -3.312 -11.217  0.00  0.00     0.010 A 
BRANCH   6   9
HETATM    9  O           1     -24.530  -2.458 -13.003  0.00  0.00    -0.361 OA
HETATM   10  H           1     -24.940  -3.192 -13.491  0.00  0.00     0.217 HD
ENDBRANCH   6   9
ENDBRANCH   2   3
ENDBRANCH   1   2
BRANCH   1  11
HETATM   11  C           1     -21.007  -5.632  -6.869  0.00  0.00     0.249 C 
HETATM   12  O           1     -19.920  -6.054  -7.183  0.00  0.00    -0.271 OA
HETATM   13  N           1     -21.566  -6.000  -5.674  0.00  0.00    -0.343 N 
HETATM   14  H           1     -22.477  -5.646  -5.412  0.00  0.00     0.163 HD
BRANCH  13  15
HETATM   15  C           1     -20.852  -6.897  -4.786  0.00  0.00     0.209 C 
BRANCH  15  16
HETATM   16  C           1     -21.075  -6.465  -3.343  0.00  0.00     0.200 C 
BRANCH  16  17
HETATM   17  O           1     -22.409  -6.069  -3.173  0.00  0.00    -0.398 OA
HETATM   18  H           1     -22.936  -6.848  -3.233  0.00  0.00     0.209 HD
ENDBRANCH  16  17
ENDBRANCH  15  16
BRANCH  15  19
HETATM   19  C           1     -21.365  -8.303  -4.975  0.00  0.00     0.198 C 
HETATM   20  O           1     -21.974  -8.877  -4.047  0.00  0.00    -0.646 OA
HETATM   21  O           1     -21.180  -8.894  -6.062  0.00  0.00    -0.646 OA
ENDBRANCH  15  19
ENDBRANCH  13  15
ENDBRANCH   1  11
BRANCH   1  22
HETATM   22  N           1     -21.769  -3.320  -7.204  0.00  0.00    -0.066 N 
HETATM   23  H           1     -22.088  -3.371  -6.210  0.00  0.00     0.275 HD
HETATM   24  H           1     -20.807  -2.914  -7.240  0.00  0.00     0.275 HD
HETATM   25  H           1     -22.424  -2.716  -7.749  0.00  0.00     0.275 HD
ENDBRANCH   1  22
TORSDOF 9
ENDMDL
MODEL 3
REMARK VINA RESULT:      -6.7      2.211      7.565
REMARK  9 active torsions:
REMARK  status: ('A' for Active; 'I' for Inactive)
REMARK    1  A    between atoms: O_1  and  C_25 
REMARK    2  A    between atoms: C_4  and  C_9 
REMARK    3  A    between atoms: C_4  and  C_5 
REMARK    4  A    between atoms: C_9  and  C_18 
REMARK    5  A    between atoms: C_9  and  N_22 
REMARK    6  A    between atoms: O_10  and  C_11 
REMARK    7  A    between atoms: C_11  and  C_12 
REMARK    8  A    between atoms: C_12  and  C_17 
REMARK    9  A    between atoms: C_12  and  N_24 
REMARK       I    between atoms: C_18  and  N_24 
ROOT
HETATM    1  C           1     -21.108  -5.683  -6.777  0.00  0.00     0.278 C 
ENDROOT
BRANCH   1   2
HETATM    2  C           1     -20.712  -5.252  -5.371  0.00  0.00     0.081 C 
BRANCH   2   3
HETATM    3  C           1     -21.062  -6.337  -4.400  0.00  0.00    -0.056 A 
HETATM    4  C           1     -21.185  -7.654  -4.842  0.00  0.00     0.010 A 
HETATM    5  C           1     -21.512  -8.666  -3.936  0.00  0.00     0.037 A 
HETATM    6  C           1     -21.713  -8.358  -2.591  0.00  0.00     0.065 A 
HETATM    7  C           1     -21.589  -7.041  -2.150  0.00  0.00     0.037 A 
HETATM    8  C           1     -21.263  -6.030  -3.055  0.00  0.00     0.010 A 
BRANCH   6   9
HETATM    9  O           1     -22.030  -9.340  -1.712  0.00  0.00    -0.361 OA
HETATM   10  H           1     -22.999  -9.397  -1.663  0.00  0.00     0.217 HD
ENDBRANCH   6   9
ENDBRANCH   2   3
ENDBRANCH   1   2
BRANCH   1  11
HETATM   11  C           1     -21.651  -4.494  -7.533  0.00  0.00     0.249 C 
HETATM   12  O           1     -21.481  -3.377  -7.105  0.00  0.00    -0.271 OA
HETATM   13  N           1     -22.338  -4.682  -8.702  0.00  0.00    -0.343 N 
HETATM   14  H           1     -22.481  -5.617  -9.060  0.00  0.00     0.163 HD
BRANCH  13  15
HETATM   15  C           1     -22.861  -3.540  -9.428  0.00  0.00     0.209 C 
BRANCH  15  16
HETATM   16  C           1     -22.141  -3.415 -10.764  0.00  0.00     0.200 C 
BRANCH  16  17
HETATM   17  O           1     -23.040  -2.958 -11.738  0.00  0.00    -0.398 OA
HETATM   18  H           1     -23.236  -3.692 -12.295  0.00  0.00     0.209 HD
ENDBRANCH  16  17
ENDBRANCH  15  16
BRANCH  15  19
HETATM   19  C           1     -24.338  -3.732  -9.668  0.00  0.00     0.198 C 
HETATM   20  O           1     -24.781  -4.861  -9.968  0.00  0.00    -0.646 OA
HETATM   21  O           1     -25.119  -2.760  -9.566  0.00  0.00    -0.646 OA
ENDBRANCH  15  19
ENDBRANCH  13  15
ENDBRANCH   1  11
BRANCH   1  22
HETATM   22  N           1     -19.904  -6.220  -7.492  0.00  0.00    -0.066 N 
HETATM   23  H           1     -20.126  -7.160  -7.891  0.00  0.00     0.275 HD
HETATM   24  H           1     -19.639  -5.568  -8.265  0.00  0.00     0.275 HD
HETATM   25  H           1     -19.109  -6.306  -6.820  0.00  0.00     0.275 HD
ENDBRANCH   1  22
TORSDOF 9
ENDMDL
MODEL 4
REMARK VINA RESULT:      -6.6      1.897      2.868
REMARK  9 active torsions:
REMARK  status: ('A' for Active; 'I' for Inactive)
REMARK    1  A    between atoms: O_1  and  C_25 
REMARK    2  A    between atoms: C_4  and  C_9 
REMARK    3  A    between atoms: C_4  and  C_5 
REMARK    4  A    between atoms: C_9  and  C_18 
REMARK    5  A    between atoms: C_9  and  N_22 
REMARK    6  A    between atoms: O_10  and  C_11 
REMARK    7  A    between atoms: C_11  and  C_12 
REMARK    8  A    between atoms: C_12  and  C_17 
REMARK    9  A    between atoms: C_12  and  N_24 
REMARK       I    between atoms: C_18  and  N_24 
ROOT
HETATM    1  C           1     -21.523  -4.080  -8.020  0.00  0.00     0.278 C 
ENDROOT
BRANCH   1   2
HETATM    2  C           1     -21.488  -4.888  -9.311  0.00  0.00     0.081 C 
BRANCH   2   3
HETATM    3  C           1     -22.282  -4.181 -10.364  0.00  0.00    -0.056 A 
HETATM    4  C           1     -21.659  -3.744 -11.533  0.00  0.00     0.010 A 
HETATM    5  C           1     -22.400  -3.085 -12.515  0.00  0.00     0.037 A 
HETATM    6  C           1     -23.765  -2.864 -12.327  0.00  0.00     0.065 A 
HETATM    7  C           1     -24.387  -3.301 -11.159  0.00  0.00     0.037 A 
HETATM    8  C           1     -23.647  -3.960 -10.177  0.00  0.00     0.010 A 
BRANCH   6   9
HETATM    9  O           1     -24.484  -2.224 -13.281  0.00  0.00    -0.361 OA
HETATM   10  H           1     -23.899  -1.583 -13.717  0.00  0.00     0.217 HD
ENDBRANCH   6   9
ENDBRANCH   2   3
ENDBRANCH   1   2
BRANCH   1  11
HETATM   11  C           1     -22.133  -4.914  -6.921  0.00  0.00     0.249 C 
HETATM   12  O           1     -23.279  -4.730  -6.588  0.00  0.00    -0.271 OA
HETATM   13  N           1     -21.387  -5.879  -6.299  0.00  0.00    -0.343 N 
HETATM   14  H           1     -20.426  -6.034  -6.578  0.00  0.00     0.163 HD
BRANCH  13  15
HETATM   15  C           1     -21.973  -6.680  -5.242  0.00  0.00     0.209 C 
BRANCH  15  16
HETATM   16  C           1     -21.409  -8.093  -5.303  0.00  0.00     0.200 C 
BRANCH  16  17
HETATM   17  O           1     -20.772  -8.396  -4.092  0.00  0.00    -0.398 OA
HETATM   18  H           1     -19.919  -7.999  -4.124  0.00  0.00     0.209 HD
ENDBRANCH  16  17
ENDBRANCH  15  16
BRANCH  15  19
HETATM   19  C           1     -21.643  -6.065  -3.904  0.00  0.00     0.198 C 
HETATM   20  O           1     -20.567  -5.448  -3.749  0.00  0.00    -0.646 OA
HETATM   21  O           1     -22.446  -6.172  -2.952  0.00  0.00    -0.646 OA
ENDBRANCH  15  19
ENDBRANCH  13  15
ENDBRANCH   1  11
BRANCH   1  22
HETATM   22  N           1     -20.125  -3.693  -7.636  0.00  0.00    -0.066 N 
HETATM   23  H           1     -19.745  -3.019  -8.338  0.00  0.00     0.275 HD
HETATM   24  H           1     -20.137  -3.243  -6.693  0.00  0.00     0.275 HD
HETATM   25  H           1     -19.522  -4.546  -7.610  0.00  0.00     0.275 HD
ENDBRANCH   1  22
TORSDOF 9
ENDMDL
MODEL 5
REMARK VINA RESULT:      -6.5      1.910      7.667
REMARK  9 active torsions:
REMARK  status: ('A' for Active; 'I' for Inactive)
REMARK    1  A    between atoms: O_1  and  C_25 
REMARK    2  A    between atoms: C_4  and  C_9 
REMARK    3  A    between atoms: C_4  and  C_5 
REMARK    4  A    between atoms: C_9  and  C_18 
REMARK    5  A    between atoms: C_9  and  N_22 
REMARK    6  A    between atoms: O_10  and  C_11 
REMARK    7  A    between atoms: C_11  and  C_12 
REMARK    8  A    between atoms: C_12  and  C_17 
REMARK    9  A    between atoms: C_12  and  N_24 
REMARK       I    between atoms: C_18  and  N_24 
ROOT
HETATM    1  C           1     -22.142  -4.727  -6.883  0.00  0.00     0.278 C 
ENDROOT
BRANCH   1   2
HETATM    2  C           1     -21.351  -6.029  -6.908  0.00  0.00     0.081 C 
BRANCH   2   3
HETATM    3  C           1     -21.373  -6.652  -5.547  0.00  0.00    -0.056 A 
HETATM    4  C           1     -21.271  -5.849  -4.411  0.00  0.00     0.010 A 
HETATM    5  C           1     -21.293  -6.430  -3.142  0.00  0.00     0.037 A 
HETATM    6  C           1     -21.417  -7.813  -3.010  0.00  0.00     0.065 A 
HETATM    7  C           1     -21.520  -8.615  -4.146  0.00  0.00     0.037 A 
HETATM    8  C           1     -21.499  -8.035  -5.415  0.00  0.00     0.010 A 
BRANCH   6   9
HETATM    9  O           1     -21.438  -8.376  -1.778  0.00  0.00    -0.361 OA
HETATM   10  H           1     -20.824  -7.881  -1.212  0.00  0.00     0.217 HD
ENDBRANCH   6   9
ENDBRANCH   2   3
ENDBRANCH   1   2
BRANCH   1  11
HETATM   11  C           1     -22.046  -4.055  -8.232  0.00  0.00     0.249 C 
HETATM   12  O           1     -21.110  -3.334  -8.482  0.00  0.00    -0.271 OA
HETATM   13  N           1     -23.020  -4.262  -9.171  0.00  0.00    -0.343 N 
HETATM   14  H           1     -23.805  -4.867  -8.961  0.00  0.00     0.163 HD
BRANCH  13  15
HETATM   15  C           1     -22.929  -3.616 -10.466  0.00  0.00     0.209 C 
BRANCH  15  16
HETATM   16  C           1     -22.312  -4.579 -11.471  0.00  0.00     0.200 C 
BRANCH  16  17
HETATM   17  O           1     -21.762  -3.854 -12.537  0.00  0.00    -0.398 OA
HETATM   18  H           1     -20.849  -3.727 -12.340  0.00  0.00     0.209 HD
ENDBRANCH  16  17
ENDBRANCH  15  16
BRANCH  15  19
HETATM   19  C           1     -24.310  -3.223 -10.929  0.00  0.00     0.198 C 
HETATM   20  O           1     -24.487  -2.825 -12.100  0.00  0.00    -0.646 OA
HETATM   21  O           1     -25.277  -3.295 -10.139  0.00  0.00    -0.646 OA
ENDBRANCH  15  19
ENDBRANCH  13  15
ENDBRANCH   1  11
BRANCH   1  22
HETATM   22  N           1     -23.580  -5.023  -6.574  0.00  0.00    -0.066 N 
HETATM   23  H           1     -23.798  -6.009  -6.842  0.00  0.00     0.275 HD
HETATM   24  H           1     -23.748  -4.895  -5.551  0.00  0.00     0.275 HD
HETATM   25  H           1     -24.193  -4.371  -7.114  0.00  0.00     0.275 HD
ENDBRANCH   1  22
TORSDOF 9
ENDMDL
MODEL 6
REMARK VINA RESULT:      -6.4      3.458      8.709
REMARK  9 active torsions:
REMARK  status: ('A' for Active; 'I' for Inactive)
REMARK    1  A    between atoms: O_1  and  C_25 
REMARK    2  A    between atoms: C_4  and  C_9 
REMARK    3  A    between atoms: C_4  and  C_5 
REMARK    4  A    between atoms: C_9  and  C_18 
REMARK    5  A    between atoms: C_9  and  N_22 
REMARK    6  A    between atoms: O_10  and  C_11 
REMARK    7  A    between atoms: C_11  and  C_12 
REMARK    8  A    between atoms: C_12  and  C_17 
REMARK    9  A    between atoms: C_12  and  N_24 
REMARK       I    between atoms: C_18  and  N_24 
ROOT
HETATM    1  C           1     -23.567  -3.158 -10.180  0.00  0.00     0.278 C 
ENDROOT
BRANCH   1   2
HETATM    2  C           1     -22.883  -4.517 -10.113  0.00  0.00     0.081 C 
BRANCH   2   3
HETATM    3  C           1     -21.893  -4.522  -8.990  0.00  0.00    -0.056 A 
HETATM    4  C           1     -22.296  -4.891  -7.707  0.00  0.00     0.010 A 
HETATM    5  C           1     -21.372  -4.896  -6.660  0.00  0.00     0.037 A 
HETATM    6  C           1     -20.047  -4.533  -6.899  0.00  0.00     0.065 A 
HETATM    7  C           1     -19.645  -4.166  -8.182  0.00  0.00     0.037 A 
HETATM    8  C           1     -20.567  -4.160  -9.228  0.00  0.00     0.010 A 
BRANCH   6   9
HETATM    9  O           1     -19.150  -4.538  -5.883  0.00  0.00    -0.361 OA
HETATM   10  H           1     -18.894  -5.460  -5.714  0.00  0.00     0.217 HD
ENDBRANCH   6   9
ENDBRANCH   2   3
ENDBRANCH   1   2
BRANCH   1  11
HETATM   11  C           1     -24.190  -2.974 -11.543  0.00  0.00     0.249 C 
HETATM   12  O           1     -25.317  -3.354 -11.748  0.00  0.00    -0.271 OA
HETATM   13  N           1     -23.474  -2.378 -12.547  0.00  0.00    -0.343 N 
HETATM   14  H           1     -22.529  -2.060 -12.375  0.00  0.00     0.163 HD
BRANCH  13  15
HETATM   15  C           1     -24.072  -2.202 -13.856  0.00  0.00     0.209 C 
BRANCH  15  16
HETATM   16  C           1     -23.755  -0.806 -14.376  0.00  0.00     0.200 C 
BRANCH  16  17
HETATM   17  O           1     -24.925  -0.215 -14.872  0.00  0.00    -0.398 OA
HETATM   18  H           1     -24.919  -0.339 -15.806  0.00  0.00     0.209 HD
ENDBRANCH  16  17
ENDBRANCH  15  16
BRANCH  15  19
HETATM   19  C           1     -23.510  -3.232 -14.806  0.00  0.00     0.198 C 
HETATM   20  O           1     -22.465  -2.988 -15.446  0.00  0.00    -0.646 OA
HETATM   21  O           1     -24.091  -4.330 -14.951  0.00  0.00    -0.646 OA
ENDBRANCH  15  19
ENDBRANCH  13  15
ENDBRANCH   1  11
BRANCH   1  22
HETATM   22  N           1     -24.636  -3.084  -9.129  0.00  0.00    -0.066 N 
HETATM   23  H           1     -24.258  -2.609  -8.279  0.00  0.00     0.275 HD
HETATM   24  H           1     -25.449  -2.542  -9.499  0.00  0.00     0.275 HD
HETATM   25  H           1     -24.945  -4.051  -8.879  0.00  0.00     0.275 HD
ENDBRANCH   1  22
TORSDOF 9
ENDMDL
MODEL 7
REMARK VINA RESULT:      -6.1      1.448      2.239
REMARK  9 active torsions:
REMARK  status: ('A' for Active; 'I' for Inactive)
REMARK    1  A    between atoms: O_1  and  C_25 
REMARK    2  A    between atoms: C_4  and  C_9 
REMARK    3  A    between atoms: C_4  and  C_5 
REMARK    4  A    between atoms: C_9  and  C_18 
REMARK    5  A    between atoms: C_9  and  N_22 
REMARK    6  A    between atoms: O_10  and  C_11 
REMARK    7  A    between atoms: C_11  and  C_12 
REMARK    8  A    between atoms: C_12  and  C_17 
REMARK    9  A    between atoms: C_12  and  N_24 
REMARK       I    between atoms: C_18  and  N_24 
ROOT
HETATM    1  C           1     -20.358  -5.234  -6.450  0.00  0.00     0.278 C 
ENDROOT
BRANCH   1   2
HETATM    2  C           1     -21.043  -3.966  -6.945  0.00  0.00     0.081 C 
BRANCH   2   3
HETATM    3  C           1     -21.338  -4.098  -8.407  0.00  0.00    -0.056 A 
HETATM    4  C           1     -20.320  -3.920  -9.342  0.00  0.00     0.010 A 
HETATM    5  C           1     -20.595  -4.043 -10.705  0.00  0.00     0.037 A 
HETATM    6  C           1     -21.889  -4.345 -11.130  0.00  0.00     0.065 A 
HETATM    7  C           1     -22.907  -4.523 -10.194  0.00  0.00     0.037 A 
HETATM    8  C           1     -22.632  -4.400  -8.832  0.00  0.00     0.010 A 
BRANCH   6   9
HETATM    9  O           1     -22.156  -4.465 -12.453  0.00  0.00    -0.361 OA
HETATM   10  H           1     -23.002  -4.020 -12.630  0.00  0.00     0.217 HD
ENDBRANCH   6   9
ENDBRANCH   2   3
ENDBRANCH   1   2
BRANCH   1  11
HETATM   11  C           1     -21.283  -5.971  -5.511  0.00  0.00     0.249 C 
HETATM   12  O           1     -22.468  -5.743  -5.528  0.00  0.00    -0.271 OA
HETATM   13  N           1     -20.776  -6.899  -4.640  0.00  0.00    -0.343 N 
HETATM   14  H           1     -19.783  -7.090  -4.626  0.00  0.00     0.163 HD
BRANCH  13  15
HETATM   15  C           1     -21.664  -7.607  -3.738  0.00  0.00     0.209 C 
BRANCH  15  16
HETATM   16  C           1     -21.216  -9.057  -3.619  0.00  0.00     0.200 C 
BRANCH  16  17
HETATM   17  O           1     -22.025  -9.722  -2.687  0.00  0.00    -0.398 OA
HETATM   18  H           1     -21.449 -10.093  -2.040  0.00  0.00     0.209 HD
ENDBRANCH  16  17
ENDBRANCH  15  16
BRANCH  15  19
HETATM   19  C           1     -21.622  -6.954  -2.378  0.00  0.00     0.198 C 
HETATM   20  O           1     -20.905  -7.436  -1.476  0.00  0.00    -0.646 OA
HETATM   21  O           1     -22.305  -5.930  -2.155  0.00  0.00    -0.646 OA
ENDBRANCH  15  19
ENDBRANCH  13  15
ENDBRANCH   1  11
BRANCH   1  22
HETATM   22  N           1     -20.030  -6.113  -7.620  0.00  0.00    -0.066 N 
HETATM   23  H           1     -20.359  -7.086  -7.428  0.00  0.00     0.275 HD
HETATM   24  H           1     -20.507  -5.746  -8.474  0.00  0.00     0.275 HD
HETATM   25  H           1     -18.996  -6.119  -7.772  0.00  0.00     0.275 HD
ENDBRANCH   1  22
TORSDOF 9
ENDMDL
MODEL 8
REMARK VINA RESULT:      -6.0      1.872      2.539
REMARK  9 active torsions:
REMARK  status: ('A' for Active; 'I' for Inactive)
REMARK    1  A    between atoms: O_1  and  C_25 
REMARK    2  A    between atoms: C_4  and  C_9 
REMARK    3  A    between atoms: C_4  and  C_5 
REMARK    4  A    between atoms: C_9  and  C_18 
REMARK    5  A    between atoms: C_9  and  N_22 
REMARK    6  A    between atoms: O_10  and  C_11 
REMARK    7  A    between atoms: C_11  and  C_12 
REMARK    8  A    between atoms: C_12  and  C_17 
REMARK    9  A    between atoms: C_12  and  N_24 
REMARK       I    between atoms: C_18  and  N_24 
ROOT
HETATM    1  C           1     -21.554  -5.920  -6.578  0.00  0.00     0.278 C 
ENDROOT
BRANCH   1   2
HETATM    2  C           1     -20.950  -4.593  -7.019  0.00  0.00     0.081 C 
BRANCH   2   3
HETATM    3  C           1     -21.157  -4.417  -8.491  0.00  0.00    -0.056 A 
HETATM    4  C           1     -20.073  -4.511  -9.364  0.00  0.00     0.010 A 
HETATM    5  C           1     -20.267  -4.347 -10.736  0.00  0.00     0.037 A 
HETATM    6  C           1     -21.544  -4.089 -11.234  0.00  0.00     0.065 A 
HETATM    7  C           1     -22.627  -3.995 -10.361  0.00  0.00     0.037 A 
HETATM    8  C           1     -22.434  -4.159  -8.989  0.00  0.00     0.010 A 
BRANCH   6   9
HETATM    9  O           1     -21.732  -3.929 -12.567  0.00  0.00    -0.361 OA
HETATM   10  H           1     -22.265  -3.128 -12.701  0.00  0.00     0.217 HD
ENDBRANCH   6   9
ENDBRANCH   2   3
ENDBRANCH   1   2
BRANCH   1  11
HETATM   11  C           1     -20.452  -6.854  -6.141  0.00  0.00     0.249 C 
HETATM   12  O           1     -19.402  -6.870  -6.737  0.00  0.00    -0.271 OA
HETATM   13  N           1     -20.643  -7.685  -5.069  0.00  0.00    -0.343 N 
HETATM   14  H           1     -21.523  -7.672  -4.570  0.00  0.00     0.163 HD
BRANCH  13  15
HETATM   15  C           1     -19.585  -8.583  -4.650  0.00  0.00     0.209 C 
BRANCH  15  16
HETATM   16  C           1     -19.691  -8.829  -3.151  0.00  0.00     0.200 C 
BRANCH  16  17
HETATM   17  O           1     -19.826 -10.203  -2.910  0.00  0.00    -0.398 OA
HETATM   18  H           1     -19.967 -10.306  -1.984  0.00  0.00     0.209 HD
ENDBRANCH  16  17
ENDBRANCH  15  16
BRANCH  15  19
HETATM   19  C           1     -19.719  -9.894  -5.385  0.00  0.00     0.198 C 
HETATM   20  O           1     -18.709 -10.600  -5.593  0.00  0.00    -0.646 OA
HETATM   21  O           1     -20.841 -10.274  -5.786  0.00  0.00    -0.646 OA
ENDBRANCH  15  19
ENDBRANCH  13  15
ENDBRANCH   1  11
BRANCH   1  22
HETATM   22  N           1     -22.492  -5.684  -5.431  0.00  0.00    -0.066 N 
HETATM   23  H           1     -23.037  -4.809  -5.600  0.00  0.00     0.275 HD
HETATM   24  H           1     -23.150  -6.493  -5.348  0.00  0.00     0.275 HD
HETATM   25  H           1     -21.944  -5.588  -4.547  0.00  0.00     0.275 HD
ENDBRANCH   1  22
TORSDOF 9
ENDMDL
MODEL 9
REMARK VINA RESULT:      -5.9      2.167      7.817
REMARK  9 active torsions:
REMARK  status: ('A' for Active; 'I' for Inactive)
REMARK    1  A    between atoms: O_1  and  C_25 
REMARK    2  A    between atoms: C_4  and  C_9 
REMARK    3  A    between atoms: C_4  and  C_5 
REMARK    4  A    between atoms: C_9  and  C_18 
REMARK    5  A    between atoms: C_9  and  N_22 
REMARK    6  A    between atoms: O_10  and  C_11 
REMARK    7  A    between atoms: C_11  and  C_12 
REMARK    8  A    between atoms: C_12  and  C_17 
REMARK    9  A    between atoms: C_12  and  N_24 
REMARK       I    between atoms: C_18  and  N_24 
ROOT
HETATM    1  C           1     -21.437  -6.953  -5.317  0.00  0.00     0.278 C 
ENDROOT
BRANCH   1   2
HETATM    2  C           1     -20.406  -7.050  -4.201  0.00  0.00     0.081 C 
BRANCH   2   3
HETATM    3  C           1     -21.100  -7.323  -2.903  0.00  0.00    -0.056 A 
HETATM    4  C           1     -21.810  -6.307  -2.264  0.00  0.00     0.010 A 
HETATM    5  C           1     -22.457  -6.562  -1.054  0.00  0.00     0.037 A 
HETATM    6  C           1     -22.394  -7.834  -0.485  0.00  0.00     0.065 A 
HETATM    7  C           1     -21.686  -8.850  -1.125  0.00  0.00     0.037 A 
HETATM    8  C           1     -21.038  -8.595  -2.334  0.00  0.00     0.010 A 
BRANCH   6   9
HETATM    9  O           1     -23.023  -8.082   0.689  0.00  0.00    -0.361 OA
HETATM   10  H           1     -23.141  -9.043   0.769  0.00  0.00     0.217 HD
ENDBRANCH   6   9
ENDBRANCH   2   3
ENDBRANCH   1   2
BRANCH   1  11
HETATM   11  C           1     -21.168  -5.721  -6.146  0.00  0.00     0.249 C 
HETATM   12  O           1     -20.618  -4.767  -5.649  0.00  0.00    -0.271 OA
HETATM   13  N           1     -21.547  -5.683  -7.462  0.00  0.00    -0.343 N 
HETATM   14  H           1     -22.008  -6.482  -7.878  0.00  0.00     0.163 HD
BRANCH  13  15
HETATM   15  C           1     -21.289  -4.499  -8.257  0.00  0.00     0.209 C 
BRANCH  15  16
HETATM   16  C           1     -20.034  -4.713  -9.093  0.00  0.00     0.200 C 
BRANCH  16  17
HETATM   17  O           1     -20.330  -4.497 -10.446  0.00  0.00    -0.398 OA
HETATM   18  H           1     -20.496  -5.341 -10.828  0.00  0.00     0.209 HD
ENDBRANCH  16  17
ENDBRANCH  15  16
BRANCH  15  19
HETATM   19  C           1     -22.463  -4.242  -9.170  0.00  0.00     0.198 C 
HETATM   20  O           1     -23.034  -5.198  -9.737  0.00  0.00    -0.646 OA
HETATM   21  O           1     -22.863  -3.073  -9.358  0.00  0.00    -0.646 OA
ENDBRANCH  15  19
ENDBRANCH  13  15
ENDBRANCH   1  11
BRANCH   1  22
HETATM   22  N           1     -21.345  -8.171  -6.189  0.00  0.00    -0.066 N 
HETATM   23  H           1     -20.345  -8.459  -6.280  0.00  0.00     0.275 HD
HETATM   24  H           1     -21.894  -8.948  -5.758  0.00  0.00     0.275 HD
HETATM   25  H           1     -21.731  -7.952  -7.135  0.00  0.00     0.275 HD
ENDBRANCH   1  22
TORSDOF 9
ENDMDL
