MODEL 1
REMARK VINA RESULT:      -7.0      0.000      0.000
REMARK  8 active torsions:
REMARK  status: ('A' for Active; 'I' for Inactive)
REMARK       I    between atoms: C_1  and  N_4 
REMARK    1  A    between atoms: C_1  and  C_3 
REMARK    2  A    between atoms: C_3  and  C_16 
REMARK    3  A    between atoms: C_3  and  N_8 
REMARK    4  A    between atoms: N_4  and  C_12 
REMARK    5  A    between atoms: C_6  and  C_16 
REMARK    6  A    between atoms: C_10  and  O_11 
REMARK    7  A    between atoms: C_10  and  C_12 
REMARK    8  A    between atoms: C_12  and  C_13 
ROOT
HETATM    1  C           1     -35.247  -1.624 -12.698  0.00  0.00     0.249 C 
HETATM    2  N           1     -34.967  -1.154 -13.953  0.00  0.00    -0.343 N 
HETATM    3  O           1     -36.373  -1.565 -12.268  0.00  0.00    -0.271 OA
HETATM    4  H           1     -34.022  -1.202 -14.313  0.00  0.00     0.163 HD
ENDROOT
BRANCH   1   5
HETATM    5  C           1     -34.146  -2.215 -11.851  0.00  0.00     0.278 C 
BRANCH   5   6
HETATM    6  C           1     -34.129  -3.727 -12.024  0.00  0.00     0.021 C 
HETATM    7  C           1     -32.692  -4.229 -11.981  0.00  0.00     0.012 C 
BRANCH   6   8
HETATM    8  C           1     -34.926  -4.375 -10.900  0.00  0.00     0.002 C 
HETATM    9  C           1     -34.256  -5.680 -10.488  0.00  0.00     0.005 C 
ENDBRANCH   6   8
ENDBRANCH   5   6
BRANCH   5  10
HETATM   10  N           1     -34.391  -1.880 -10.409  0.00  0.00    -0.066 N 
HETATM   11  H           1     -33.836  -1.033 -10.149  0.00  0.00     0.275 HD
HETATM   12  H           1     -35.408  -1.687 -10.264  0.00  0.00     0.275 HD
HETATM   13  H           1     -34.099  -2.684  -9.811  0.00  0.00     0.275 HD
ENDBRANCH   5  10
ENDBRANCH   1   5
BRANCH   2  14
HETATM   14  C           1     -36.025  -0.587 -14.766  0.00  0.00     0.214 C 
BRANCH  14  15
HETATM   15  C           1     -35.984   0.933 -14.663  0.00  0.00     0.147 C 
HETATM   16  C           1     -34.653   1.365 -14.061  0.00  0.00     0.042 C 
BRANCH  15  17
HETATM   17  O           1     -36.122   1.491 -15.942  0.00  0.00    -0.393 OA
HETATM   18  H           1     -36.330   0.784 -16.528  0.00  0.00     0.210 HD
ENDBRANCH  15  17
ENDBRANCH  14  15
BRANCH  14  19
HETATM   19  C           1     -35.828  -0.998 -16.205  0.00  0.00     0.199 C 
HETATM   20  O           1     -34.720  -1.435 -16.584  0.00  0.00    -0.646 OA
HETATM   21  O           1     -36.774  -0.902 -17.017  0.00  0.00    -0.646 OA
ENDBRANCH  14  19
ENDBRANCH   2  14
TORSDOF 8
ENDMDL
MODEL 2
REMARK VINA RESULT:      -6.4      1.782      3.277
REMARK  8 active torsions:
REMARK  status: ('A' for Active; 'I' for Inactive)
REMARK       I    between atoms: C_1  and  N_4 
REMARK    1  A    between atoms: C_1  and  C_3 
REMARK    2  A    between atoms: C_3  and  C_16 
REMARK    3  A    between atoms: C_3  and  N_8 
REMARK    4  A    between atoms: N_4  and  C_12 
REMARK    5  A    between atoms: C_6  and  C_16 
REMARK    6  A    between atoms: C_10  and  O_11 
REMARK    7  A    between atoms: C_10  and  C_12 
REMARK    8  A    between atoms: C_12  and  C_13 
ROOT
HETATM    1  C           1     -33.946  -2.856 -11.898  0.00  0.00     0.249 C 
HETATM    2  N           1     -34.864  -2.253 -12.715  0.00  0.00    -0.343 N 
HETATM    3  O           1     -33.315  -2.195 -11.109  0.00  0.00    -0.271 OA
HETATM    4  H           1     -35.392  -2.806 -13.378  0.00  0.00     0.163 HD
ENDROOT
BRANCH   1   5
HETATM    5  C           1     -33.723  -4.346 -11.983  0.00  0.00     0.278 C 
BRANCH   5   6
HETATM    6  C           1     -34.201  -5.005 -10.697  0.00  0.00     0.021 C 
HETATM    7  C           1     -35.691  -4.747 -10.515  0.00  0.00     0.012 C 
BRANCH   6   8
HETATM    8  C           1     -33.951  -6.505 -10.772  0.00  0.00     0.002 C 
HETATM    9  C           1     -34.868  -7.223  -9.791  0.00  0.00     0.005 C 
ENDBRANCH   6   8
ENDBRANCH   5   6
BRANCH   5  10
HETATM   10  N           1     -32.261  -4.622 -12.173  0.00  0.00    -0.066 N 
HETATM   11  H           1     -32.113  -5.649 -12.296  0.00  0.00     0.275 HD
HETATM   12  H           1     -31.919  -4.117 -13.022  0.00  0.00     0.275 HD
HETATM   13  H           1     -31.733  -4.292 -11.335  0.00  0.00     0.275 HD
ENDBRANCH   5  10
ENDBRANCH   1   5
BRANCH   2  14
HETATM   14  C           1     -35.078  -0.821 -12.633  0.00  0.00     0.214 C 
BRANCH  14  15
HETATM   15  C           1     -35.501  -0.292 -13.998  0.00  0.00     0.147 C 
HETATM   16  C           1     -34.700   0.961 -14.327  0.00  0.00     0.042 C 
BRANCH  15  17
HETATM   17  O           1     -35.260  -1.271 -14.973  0.00  0.00    -0.393 OA
HETATM   18  H           1     -35.713  -0.998 -15.752  0.00  0.00     0.210 HD
ENDBRANCH  15  17
ENDBRANCH  14  15
BRANCH  14  19
HETATM   19  C           1     -36.161  -0.532 -11.624  0.00  0.00     0.199 C 
HETATM   20  O           1     -37.235  -1.172 -11.658  0.00  0.00    -0.646 OA
HETATM   21  O           1     -35.984   0.348 -10.753  0.00  0.00    -0.646 OA
ENDBRANCH  14  19
ENDBRANCH   2  14
TORSDOF 8
ENDMDL
MODEL 3
REMARK VINA RESULT:      -6.1     12.669     14.471
REMARK  8 active torsions:
REMARK  status: ('A' for Active; 'I' for Inactive)
REMARK       I    between atoms: C_1  and  N_4 
REMARK    1  A    between atoms: C_1  and  C_3 
REMARK    2  A    between atoms: C_3  and  C_16 
REMARK    3  A    between atoms: C_3  and  N_8 
REMARK    4  A    between atoms: N_4  and  C_12 
REMARK    5  A    between atoms: C_6  and  C_16 
REMARK    6  A    between atoms: C_10  and  O_11 
REMARK    7  A    between atoms: C_10  and  C_12 
REMARK    8  A    between atoms: C_12  and  C_13 
ROOT
HETATM    1  C           1     -21.761  -4.730  -7.935  0.00  0.00     0.249 C 
HETATM    2  N           1     -22.164  -4.846  -9.238  0.00  0.00    -0.343 N 
HETATM    3  O           1     -21.798  -3.656  -7.385  0.00  0.00    -0.271 OA
HETATM    4  H           1     -22.132  -5.747  -9.700  0.00  0.00     0.163 HD
ENDROOT
BRANCH   1   5
HETATM    5  C           1     -21.270  -5.945  -7.186  0.00  0.00     0.278 C 
BRANCH   5   6
HETATM    6  C           1     -21.520  -5.758  -5.696  0.00  0.00     0.021 C 
HETATM    7  C           1     -22.919  -6.249  -5.349  0.00  0.00     0.012 C 
BRANCH   6   8
HETATM    8  C           1     -20.492  -6.556  -4.905  0.00  0.00     0.002 C 
HETATM    9  C           1     -21.099  -7.887  -4.480  0.00  0.00     0.005 C 
ENDBRANCH   6   8
ENDBRANCH   5   6
BRANCH   5  10
HETATM   10  N           1     -19.800  -6.121  -7.428  0.00  0.00    -0.066 N 
HETATM   11  H           1     -19.319  -6.319  -6.522  0.00  0.00     0.275 HD
HETATM   12  H           1     -19.648  -6.920  -8.085  0.00  0.00     0.275 HD
HETATM   13  H           1     -19.409  -5.247  -7.846  0.00  0.00     0.275 HD
ENDBRANCH   5  10
ENDBRANCH   1   5
BRANCH   2  14
HETATM   14  C           1     -22.635  -3.679  -9.958  0.00  0.00     0.214 C 
BRANCH  14  15
HETATM   15  C           1     -21.870  -3.548 -11.269  0.00  0.00     0.147 C 
HETATM   16  C           1     -20.426  -3.984 -11.059  0.00  0.00     0.042 C 
BRANCH  15  17
HETATM   17  O           1     -22.468  -4.362 -12.241  0.00  0.00    -0.393 OA
HETATM   18  H           1     -22.193  -5.246 -12.065  0.00  0.00     0.210 HD
ENDBRANCH  15  17
ENDBRANCH  14  15
BRANCH  14  19
HETATM   19  C           1     -24.108  -3.828 -10.248  0.00  0.00     0.199 C 
HETATM   20  O           1     -24.727  -2.912 -10.832  0.00  0.00    -0.646 OA
HETATM   21  O           1     -24.710  -4.869  -9.904  0.00  0.00    -0.646 OA
ENDBRANCH  14  19
ENDBRANCH   2  14
TORSDOF 8
ENDMDL
MODEL 4
REMARK VINA RESULT:      -5.8     13.215     15.635
REMARK  8 active torsions:
REMARK  status: ('A' for Active; 'I' for Inactive)
REMARK       I    between atoms: C_1  and  N_4 
REMARK    1  A    between atoms: C_1  and  C_3 
REMARK    2  A    between atoms: C_3  and  C_16 
REMARK    3  A    between atoms: C_3  and  N_8 
REMARK    4  A    between atoms: N_4  and  C_12 
REMARK    5  A    between atoms: C_6  and  C_16 
REMARK    6  A    between atoms: C_10  and  O_11 
REMARK    7  A    between atoms: C_10  and  C_12 
REMARK    8  A    between atoms: C_12  and  C_13 
ROOT
HETATM    1  C           1     -22.346  -4.131  -8.113  0.00  0.00     0.249 C 
HETATM    2  N           1     -22.158  -5.296  -7.420  0.00  0.00    -0.343 N 
HETATM    3  O           1     -21.808  -3.115  -7.743  0.00  0.00    -0.271 OA
HETATM    4  H           1     -22.610  -6.148  -7.728  0.00  0.00     0.163 HD
ENDROOT
BRANCH   1   5
HETATM    5  C           1     -23.226  -4.116  -9.338  0.00  0.00     0.278 C 
BRANCH   5   6
HETATM    6  C           1     -22.496  -3.421 -10.479  0.00  0.00     0.021 C 
HETATM    7  C           1     -21.468  -4.371 -11.079  0.00  0.00     0.012 C 
BRANCH   6   8
HETATM    8  C           1     -23.499  -3.016 -11.551  0.00  0.00     0.002 C 
HETATM    9  C           1     -22.815  -3.014 -12.912  0.00  0.00     0.005 C 
ENDBRANCH   6   8
ENDBRANCH   5   6
BRANCH   5  10
HETATM   10  N           1     -24.495  -3.375  -9.033  0.00  0.00    -0.066 N 
HETATM   11  H           1     -24.405  -2.384  -9.350  0.00  0.00     0.275 HD
HETATM   12  H           1     -25.293  -3.829  -9.533  0.00  0.00     0.275 HD
HETATM   13  H           1     -24.671  -3.397  -8.003  0.00  0.00     0.275 HD
ENDBRANCH   5  10
ENDBRANCH   1   5
BRANCH   2  14
HETATM   14  C           1     -21.312  -5.311  -6.242  0.00  0.00     0.214 C 
BRANCH  14  15
HETATM   15  C           1     -21.877  -6.293  -5.224  0.00  0.00     0.147 C 
HETATM   16  C           1     -21.246  -6.031  -3.863  0.00  0.00     0.042 C 
BRANCH  15  17
HETATM   17  O           1     -23.266  -6.126  -5.135  0.00  0.00    -0.393 OA
HETATM   18  H           1     -23.520  -5.565  -5.848  0.00  0.00     0.210 HD
ENDBRANCH  15  17
ENDBRANCH  14  15
BRANCH  14  19
HETATM   19  C           1     -19.917  -5.735  -6.630  0.00  0.00     0.199 C 
HETATM   20  O           1     -19.629  -6.950  -6.697  0.00  0.00    -0.646 OA
HETATM   21  O           1     -19.050  -4.871  -6.885  0.00  0.00    -0.646 OA
ENDBRANCH  14  19
ENDBRANCH   2  14
TORSDOF 8
ENDMDL
MODEL 5
REMARK VINA RESULT:      -5.7     12.582     14.326
REMARK  8 active torsions:
REMARK  status: ('A' for Active; 'I' for Inactive)
REMARK       I    between atoms: C_1  and  N_4 
REMARK    1  A    between atoms: C_1  and  C_3 
REMARK    2  A    between atoms: C_3  and  C_16 
REMARK    3  A    between atoms: C_3  and  N_8 
REMARK    4  A    between atoms: N_4  and  C_12 
REMARK    5  A    between atoms: C_6  and  C_16 
REMARK    6  A    between atoms: C_10  and  O_11 
REMARK    7  A    between atoms: C_10  and  C_12 
REMARK    8  A    between atoms: C_12  and  C_13 
ROOT
HETATM    1  C           1     -21.691  -4.754  -8.494  0.00  0.00     0.249 C 
HETATM    2  N           1     -22.513  -4.268  -9.475  0.00  0.00    -0.343 N 
HETATM    3  O           1     -20.726  -5.417  -8.789  0.00  0.00    -0.271 OA
HETATM    4  H           1     -23.323  -3.712  -9.228  0.00  0.00     0.163 HD
ENDROOT
BRANCH   1   5
HETATM    5  C           1     -21.990  -4.460  -7.045  0.00  0.00     0.278 C 
BRANCH   5   6
HETATM    6  C           1     -21.276  -5.474  -6.163  0.00  0.00     0.021 C 
HETATM    7  C           1     -20.230  -4.764  -5.314  0.00  0.00     0.012 C 
BRANCH   6   8
HETATM    8  C           1     -22.289  -6.158  -5.254  0.00  0.00     0.002 C 
HETATM    9  C           1     -21.790  -7.552  -4.895  0.00  0.00     0.005 C 
ENDBRANCH   6   8
ENDBRANCH   5   6
BRANCH   5  10
HETATM   10  N           1     -23.470  -4.549  -6.813  0.00  0.00    -0.066 N 
HETATM   11  H           1     -23.698  -4.166  -5.868  0.00  0.00     0.275 HD
HETATM   12  H           1     -23.971  -3.995  -7.543  0.00  0.00     0.275 HD
HETATM   13  H           1     -23.770  -5.548  -6.865  0.00  0.00     0.275 HD
ENDBRANCH   5  10
ENDBRANCH   1   5
BRANCH   2  14
HETATM   14  C           1     -22.225  -4.550 -10.868  0.00  0.00     0.214 C 
BRANCH  14  15
HETATM   15  C           1     -23.503  -4.414 -11.688  0.00  0.00     0.147 C 
HETATM   16  C           1     -24.421  -3.393 -11.030  0.00  0.00     0.042 C 
BRANCH  15  17
HETATM   17  O           1     -23.181  -3.987 -12.984  0.00  0.00    -0.393 OA
HETATM   18  H           1     -23.102  -4.761 -13.515  0.00  0.00     0.210 HD
ENDBRANCH  15  17
ENDBRANCH  14  15
BRANCH  14  19
HETATM   19  C           1     -21.195  -3.572 -11.376  0.00  0.00     0.199 C 
HETATM   20  O           1     -20.022  -3.952 -11.584  0.00  0.00    -0.646 OA
HETATM   21  O           1     -21.515  -2.383 -11.590  0.00  0.00    -0.646 OA
ENDBRANCH  14  19
ENDBRANCH   2  14
TORSDOF 8
ENDMDL
MODEL 6
REMARK VINA RESULT:      -5.5      9.841     11.653
REMARK  8 active torsions:
REMARK  status: ('A' for Active; 'I' for Inactive)
REMARK       I    between atoms: C_1  and  N_4 
REMARK    1  A    between atoms: C_1  and  C_3 
REMARK    2  A    between atoms: C_3  and  C_16 
REMARK    3  A    between atoms: C_3  and  N_8 
REMARK    4  A    between atoms: N_4  and  C_12 
REMARK    5  A    between atoms: C_6  and  C_16 
REMARK    6  A    between atoms: C_10  and  O_11 
REMARK    7  A    between atoms: C_10  and  C_12 
REMARK    8  A    between atoms: C_12  and  C_13 
ROOT
HETATM    1  C           1     -26.319  -6.296 -17.772  0.00  0.00     0.249 C 
HETATM    2  N           1     -27.486  -6.987 -17.964  0.00  0.00    -0.343 N 
HETATM    3  O           1     -26.273  -5.404 -16.959  0.00  0.00    -0.271 OA
HETATM    4  H           1     -27.526  -7.733 -18.646  0.00  0.00     0.163 HD
ENDROOT
BRANCH   1   5
HETATM    5  C           1     -25.092  -6.650 -18.575  0.00  0.00     0.278 C 
BRANCH   5   6
HETATM    6  C           1     -25.514  -7.197 -19.932  0.00  0.00     0.021 C 
HETATM    7  C           1     -25.853  -6.041 -20.864  0.00  0.00     0.012 C 
BRANCH   6   8
HETATM    8  C           1     -24.373  -8.011 -20.528  0.00  0.00     0.002 C 
HETATM    9  C           1     -24.297  -7.757 -22.028  0.00  0.00     0.005 C 
ENDBRANCH   6   8
ENDBRANCH   5   6
BRANCH   5  10
HETATM   10  N           1     -24.298  -7.690 -17.842  0.00  0.00    -0.066 N 
HETATM   11  H           1     -24.833  -8.010 -17.003  0.00  0.00     0.275 HD
HETATM   12  H           1     -24.123  -8.504 -18.473  0.00  0.00     0.275 HD
HETATM   13  H           1     -23.386  -7.282 -17.538  0.00  0.00     0.275 HD
ENDBRANCH   5  10
ENDBRANCH   1   5
BRANCH   2  14
HETATM   14  C           1     -28.665  -6.647 -17.192  0.00  0.00     0.214 C 
BRANCH  14  15
HETATM   15  C           1     -29.759  -7.673 -17.457  0.00  0.00     0.147 C 
HETATM   16  C           1     -31.101  -6.964 -17.581  0.00  0.00     0.042 C 
BRANCH  15  17
HETATM   17  O           1     -29.478  -8.356 -18.650  0.00  0.00    -0.393 OA
HETATM   18  H           1     -29.259  -7.703 -19.293  0.00  0.00     0.210 HD
ENDBRANCH  15  17
ENDBRANCH  14  15
BRANCH  14  19
HETATM   19  C           1     -28.321  -6.647 -15.723  0.00  0.00     0.199 C 
HETATM   20  O           1     -27.837  -7.672 -15.194  0.00  0.00    -0.646 OA
HETATM   21  O           1     -28.520  -5.623 -15.034  0.00  0.00    -0.646 OA
ENDBRANCH  14  19
ENDBRANCH   2  14
TORSDOF 8
ENDMDL
MODEL 7
REMARK VINA RESULT:      -5.5     14.853     16.841
REMARK  8 active torsions:
REMARK  status: ('A' for Active; 'I' for Inactive)
REMARK       I    between atoms: C_1  and  N_4 
REMARK    1  A    between atoms: C_1  and  C_3 
REMARK    2  A    between atoms: C_3  and  C_16 
REMARK    3  A    between atoms: C_3  and  N_8 
REMARK    4  A    between atoms: N_4  and  C_12 
REMARK    5  A    between atoms: C_6  and  C_16 
REMARK    6  A    between atoms: C_10  and  O_11 
REMARK    7  A    between atoms: C_10  and  C_12 
REMARK    8  A    between atoms: C_12  and  C_13 
ROOT
HETATM    1  C           1     -21.564  -7.212  -5.372  0.00  0.00     0.249 C 
HETATM    2  N           1     -21.834  -5.907  -5.686  0.00  0.00    -0.343 N 
HETATM    3  O           1     -21.004  -7.921  -6.172  0.00  0.00    -0.271 OA
HETATM    4  H           1     -22.304  -5.311  -5.016  0.00  0.00     0.163 HD
ENDROOT
BRANCH   1   5
HETATM    5  C           1     -21.965  -7.762  -4.026  0.00  0.00     0.278 C 
BRANCH   5   6
HETATM    6  C           1     -21.176  -7.055  -2.932  0.00  0.00     0.021 C 
HETATM    7  C           1     -22.120  -6.200  -2.097  0.00  0.00     0.012 C 
BRANCH   6   8
HETATM    8  C           1     -20.506  -8.091  -2.039  0.00  0.00     0.002 C 
HETATM    9  C           1     -21.165  -8.081  -0.666  0.00  0.00     0.005 C 
ENDBRANCH   6   8
ENDBRANCH   5   6
BRANCH   5  10
HETATM   10  N           1     -21.673  -9.233  -3.981  0.00  0.00    -0.066 N 
HETATM   11  H           1     -20.673  -9.398  -4.236  0.00  0.00     0.275 HD
HETATM   12  H           1     -21.849  -9.594  -3.016  0.00  0.00     0.275 HD
HETATM   13  H           1     -22.291  -9.732  -4.659  0.00  0.00     0.275 HD
ENDBRANCH   5  10
ENDBRANCH   1   5
BRANCH   2  14
HETATM   14  C           1     -21.448  -5.377  -6.979  0.00  0.00     0.214 C 
BRANCH  14  15
HETATM   15  C           1     -22.442  -4.305  -7.406  0.00  0.00     0.147 C 
HETATM   16  C           1     -22.642  -4.370  -8.915  0.00  0.00     0.042 C 
BRANCH  15  17
HETATM   17  O           1     -23.669  -4.523  -6.762  0.00  0.00    -0.393 OA
HETATM   18  H           1     -23.530  -4.358  -5.845  0.00  0.00     0.210 HD
ENDBRANCH  15  17
ENDBRANCH  14  15
BRANCH  14  19
HETATM   19  C           1     -20.068  -4.775  -6.884  0.00  0.00     0.199 C 
HETATM   20  O           1     -19.393  -4.590  -7.921  0.00  0.00    -0.646 OA
HETATM   21  O           1     -19.600  -4.460  -5.769  0.00  0.00    -0.646 OA
ENDBRANCH  14  19
ENDBRANCH   2  14
TORSDOF 8
ENDMDL
MODEL 8
REMARK VINA RESULT:      -5.4      1.995      3.379
REMARK  8 active torsions:
REMARK  status: ('A' for Active; 'I' for Inactive)
REMARK       I    between atoms: C_1  and  N_4 
REMARK    1  A    between atoms: C_1  and  C_3 
REMARK    2  A    between atoms: C_3  and  C_16 
REMARK    3  A    between atoms: C_3  and  N_8 
REMARK    4  A    between atoms: N_4  and  C_12 
REMARK    5  A    between atoms: C_6  and  C_16 
REMARK    6  A    between atoms: C_10  and  O_11 
REMARK    7  A    between atoms: C_10  and  C_12 
REMARK    8  A    between atoms: C_12  and  C_13 
ROOT
HETATM    1  C           1     -34.601  -2.358 -11.959  0.00  0.00     0.249 C 
HETATM    2  N           1     -35.555  -1.626 -12.612  0.00  0.00    -0.343 N 
HETATM    3  O           1     -33.919  -1.839 -11.108  0.00  0.00    -0.271 OA
HETATM    4  H           1     -36.126  -2.060 -13.326  0.00  0.00     0.163 HD
ENDROOT
BRANCH   1   5
HETATM    5  C           1     -34.402  -3.814 -12.302  0.00  0.00     0.278 C 
BRANCH   5   6
HETATM    6  C           1     -33.257  -4.379 -11.472  0.00  0.00     0.021 C 
HETATM    7  C           1     -33.583  -5.808 -11.061  0.00  0.00     0.012 C 
BRANCH   6   8
HETATM    8  C           1     -31.978  -4.368 -12.300  0.00  0.00     0.002 C 
HETATM    9  C           1     -31.155  -5.610 -11.979  0.00  0.00     0.005 C 
ENDBRANCH   6   8
ENDBRANCH   5   6
BRANCH   5  10
HETATM   10  N           1     -34.073  -3.942 -13.760  0.00  0.00    -0.066 N 
HETATM   11  H           1     -33.768  -3.015 -14.132  0.00  0.00     0.275 HD
HETATM   12  H           1     -33.302  -4.637 -13.884  0.00  0.00     0.275 HD
HETATM   13  H           1     -34.920  -4.264 -14.280  0.00  0.00     0.275 HD
ENDBRANCH   5  10
ENDBRANCH   1   5
BRANCH   2  14
HETATM   14  C           1     -35.747  -0.227 -12.282  0.00  0.00     0.214 C 
BRANCH  14  15
HETATM   15  C           1     -36.127   0.544 -13.540  0.00  0.00     0.147 C 
HETATM   16  C           1     -35.204   0.137 -14.682  0.00  0.00     0.042 C 
BRANCH  15  17
HETATM   17  O           1     -37.454   0.251 -13.885  0.00  0.00    -0.393 OA
HETATM   18  H           1     -37.862   1.066 -14.121  0.00  0.00     0.210 HD
ENDBRANCH  15  17
ENDBRANCH  14  15
BRANCH  14  19
HETATM   19  C           1     -36.851  -0.098 -11.262  0.00  0.00     0.199 C 
HETATM   20  O           1     -36.707   0.659 -10.277  0.00  0.00    -0.646 OA
HETATM   21  O           1     -37.909  -0.749 -11.401  0.00  0.00    -0.646 OA
ENDBRANCH  14  19
ENDBRANCH   2  14
TORSDOF 8
ENDMDL
MODEL 9
REMARK VINA RESULT:      -5.3     24.501     25.980
REMARK  8 active torsions:
REMARK  status: ('A' for Active; 'I' for Inactive)
REMARK       I    between atoms: C_1  and  N_4 
REMARK    1  A    between atoms: C_1  and  C_3 
REMARK    2  A    between atoms: C_3  and  C_16 
REMARK    3  A    between atoms: C_3  and  N_8 
REMARK    4  A    between atoms: N_4  and  C_12 
REMARK    5  A    between atoms: C_6  and  C_16 
REMARK    6  A    between atoms: C_10  and  O_11 
REMARK    7  A    between atoms: C_10  and  C_12 
REMARK    8  A    between atoms: C_12  and  C_13 
ROOT
HETATM    1  C           1     -11.633   6.568 -20.826  0.00  0.00     0.249 C 
HETATM    2  N           1     -11.959   5.239 -20.792  0.00  0.00    -0.343 N 
HETATM    3  O           1     -12.260   7.326 -21.526  0.00  0.00    -0.271 OA
HETATM    4  H           1     -11.433   4.603 -20.207  0.00  0.00     0.163 HD
ENDROOT
BRANCH   1   5
HETATM    5  C           1     -10.489   7.086 -19.989  0.00  0.00     0.278 C 
BRANCH   5   6
HETATM    6  C           1     -10.382   8.595 -20.154  0.00  0.00     0.021 C 
HETATM    7  C           1     -10.295   9.252 -18.783  0.00  0.00     0.012 C 
BRANCH   6   8
HETATM    8  C           1      -9.131   8.930 -20.956  0.00  0.00     0.002 C 
HETATM    9  C           1      -9.533   9.491 -22.314  0.00  0.00     0.005 C 
ENDBRANCH   6   8
ENDBRANCH   5   6
BRANCH   5  10
HETATM   10  N           1      -9.211   6.442 -20.439  0.00  0.00    -0.066 N 
HETATM   11  H           1      -8.525   7.181 -20.713  0.00  0.00     0.275 HD
HETATM   12  H           1      -8.813   5.873 -19.657  0.00  0.00     0.275 HD
HETATM   13  H           1      -9.402   5.824 -21.259  0.00  0.00     0.275 HD
ENDBRANCH   5  10
ENDBRANCH   1   5
BRANCH   2  14
HETATM   14  C           1     -13.059   4.742 -21.596  0.00  0.00     0.214 C 
BRANCH  14  15
HETATM   15  C           1     -12.806   3.284 -21.956  0.00  0.00     0.147 C 
HETATM   16  C           1     -11.802   2.687 -20.977  0.00  0.00     0.042 C 
BRANCH  15  17
HETATM   17  O           1     -14.010   2.570 -21.885  0.00  0.00    -0.393 OA
HETATM   18  H           1     -14.529   2.833 -22.625  0.00  0.00     0.210 HD
ENDBRANCH  15  17
ENDBRANCH  14  15
BRANCH  14  19
HETATM   19  C           1     -14.344   4.851 -20.813  0.00  0.00     0.199 C 
HETATM   20  O           1     -15.392   5.232 -21.380  0.00  0.00    -0.646 OA
HETATM   21  O           1     -14.360   4.562 -19.597  0.00  0.00    -0.646 OA
ENDBRANCH  14  19
ENDBRANCH   2  14
TORSDOF 8
ENDMDL
