MODEL 1
REMARK VINA RESULT:      -5.9      0.000      0.000
REMARK  8 active torsions:
REMARK  status: ('A' for Active; 'I' for Inactive)
REMARK    1  A    between atoms: C_1  and  C_8 
REMARK    2  A    between atoms: C_1  and  N_10 
REMARK    3  A    between atoms: C_2  and  C_3 
REMARK    4  A    between atoms: C_2  and  C_19 
REMARK    5  A    between atoms: C_2  and  N_9 
REMARK    6  A    between atoms: C_3  and  C_4 
REMARK    7  A    between atoms: C_4  and  C_5 
REMARK    8  A    between atoms: C_5  and  N_6 
REMARK       I    between atoms: C_8  and  N_9 
ROOT
HETATM    1  C           1     -35.299  -0.289 -12.530  0.00  0.00     0.185 C 
ENDROOT
BRANCH   1   2
HETATM    2  C           1     -34.807   0.798 -13.475  0.00  0.00     0.038 C 
BRANCH   2   3
HETATM    3  C           1     -35.034   0.360 -14.917  0.00  0.00     0.030 C 
BRANCH   3   4
HETATM    4  C           1     -35.798   1.446 -15.664  0.00  0.00     0.230 C 
BRANCH   4   5
HETATM    5  N           1     -37.235   1.040 -15.806  0.00  0.00    -0.079 N 
HETATM    6  H           1     -37.670   0.956 -14.860  0.00  0.00     0.274 HD
HETATM    7  H           1     -37.748   1.762 -16.362  0.00  0.00     0.274 HD
HETATM    8  H           1     -37.290   0.119 -16.297  0.00  0.00     0.274 HD
ENDBRANCH   4   5
ENDBRANCH   3   4
ENDBRANCH   2   3
ENDBRANCH   1   2
BRANCH   1   9
HETATM    9  C           1     -36.807  -0.259 -12.468  0.00  0.00     0.196 C 
HETATM   10  O           1     -37.381   0.334 -11.529  0.00  0.00    -0.646 OA
HETATM   11  O           1     -37.480  -0.827 -13.354  0.00  0.00    -0.646 OA
ENDBRANCH   1   9
BRANCH   1  12
HETATM   12  N           1     -34.862  -1.584 -13.014  0.00  0.00    -0.345 N 
HETATM   13  C           1     -34.491  -2.557 -12.127  0.00  0.00     0.248 C 
HETATM   14  O           1     -34.528  -2.338 -10.939  0.00  0.00    -0.271 OA
HETATM   15  H           1     -34.830  -1.768 -14.009  0.00  0.00     0.163 HD
BRANCH  13  16
HETATM   16  C           1     -34.036  -3.905 -12.631  0.00  0.00     0.270 C 
HETATM   17  C           1     -32.692  -4.254 -12.006  0.00  0.00     0.050 C 
BRANCH  16  18
HETATM   18  N           1     -33.896  -3.858 -14.123  0.00  0.00    -0.067 N 
HETATM   19  H           1     -34.060  -2.883 -14.459  0.00  0.00     0.275 HD
HETATM   20  H           1     -32.931  -4.160 -14.391  0.00  0.00     0.275 HD
HETATM   21  H           1     -34.595  -4.500 -14.560  0.00  0.00     0.275 HD
ENDBRANCH  16  18
ENDBRANCH  13  16
ENDBRANCH   1  12
TORSDOF 8
ENDMDL
MODEL 2
REMARK VINA RESULT:      -5.8     12.001     13.937
REMARK  8 active torsions:
REMARK  status: ('A' for Active; 'I' for Inactive)
REMARK    1  A    between atoms: C_1  and  C_8 
REMARK    2  A    between atoms: C_1  and  N_10 
REMARK    3  A    between atoms: C_2  and  C_3 
REMARK    4  A    between atoms: C_2  and  C_19 
REMARK    5  A    between atoms: C_2  and  N_9 
REMARK    6  A    between atoms: C_3  and  C_4 
REMARK    7  A    between atoms: C_4  and  C_5 
REMARK    8  A    between atoms: C_5  and  N_6 
REMARK       I    between atoms: C_8  and  N_9 
ROOT
HETATM    1  C           1     -22.667  -3.683  -9.613  0.00  0.00     0.185 C 
ENDROOT
BRANCH   1   2
HETATM    2  C           1     -22.039  -3.832 -10.991  0.00  0.00     0.038 C 
BRANCH   2   3
HETATM    3  C           1     -22.396  -2.623 -11.847  0.00  0.00     0.030 C 
BRANCH   3   4
HETATM    4  C           1     -22.787  -3.087 -13.244  0.00  0.00     0.230 C 
BRANCH   4   5
HETATM    5  N           1     -23.832  -4.158 -13.142  0.00  0.00    -0.079 N 
HETATM    6  H           1     -24.747  -3.787 -13.485  0.00  0.00     0.274 HD
HETATM    7  H           1     -23.549  -4.977 -13.726  0.00  0.00     0.274 HD
HETATM    8  H           1     -23.929  -4.456 -12.146  0.00  0.00     0.274 HD
ENDBRANCH   4   5
ENDBRANCH   3   4
ENDBRANCH   2   3
ENDBRANCH   1   2
BRANCH   1   9
HETATM    9  C           1     -24.166  -3.819  -9.724  0.00  0.00     0.196 C 
HETATM   10  O           1     -24.668  -4.896 -10.112  0.00  0.00    -0.646 OA
HETATM   11  O           1     -24.904  -2.855  -9.428  0.00  0.00    -0.646 OA
ENDBRANCH   1   9
BRANCH   1  12
HETATM   12  N           1     -22.153  -4.715  -8.733  0.00  0.00    -0.345 N 
HETATM   13  C           1     -21.562  -4.372  -7.548  0.00  0.00     0.248 C 
HETATM   14  O           1     -21.469  -3.209  -7.233  0.00  0.00    -0.271 OA
HETATM   15  H           1     -22.231  -5.689  -8.997  0.00  0.00     0.163 HD
BRANCH  13  16
HETATM   16  C           1     -21.027  -5.446  -6.633  0.00  0.00     0.270 C 
HETATM   17  C           1     -20.301  -4.800  -5.460  0.00  0.00     0.050 C 
BRANCH  16  18
HETATM   18  N           1     -20.071  -6.318  -7.391  0.00  0.00    -0.067 N 
HETATM   19  H           1     -20.310  -7.322  -7.228  0.00  0.00     0.275 HD
HETATM   20  H           1     -20.143  -6.105  -8.413  0.00  0.00     0.275 HD
HETATM   21  H           1     -19.096  -6.133  -7.064  0.00  0.00     0.275 HD
ENDBRANCH  16  18
ENDBRANCH  13  16
ENDBRANCH   1  12
TORSDOF 8
ENDMDL
MODEL 3
REMARK VINA RESULT:      -5.8      1.538      4.563
REMARK  8 active torsions:
REMARK  status: ('A' for Active; 'I' for Inactive)
REMARK    1  A    between atoms: C_1  and  C_8 
REMARK    2  A    between atoms: C_1  and  N_10 
REMARK    3  A    between atoms: C_2  and  C_3 
REMARK    4  A    between atoms: C_2  and  C_19 
REMARK    5  A    between atoms: C_2  and  N_9 
REMARK    6  A    between atoms: C_3  and  C_4 
REMARK    7  A    between atoms: C_4  and  C_5 
REMARK    8  A    between atoms: C_5  and  N_6 
REMARK       I    between atoms: C_8  and  N_9 
ROOT
HETATM    1  C           1     -34.881  -1.927 -11.715  0.00  0.00     0.185 C 
ENDROOT
BRANCH   1   2
HETATM    2  C           1     -33.495  -2.156 -11.127  0.00  0.00     0.038 C 
BRANCH   2   3
HETATM    3  C           1     -33.014  -3.556 -11.489  0.00  0.00     0.030 C 
BRANCH   3   4
HETATM    4  C           1     -34.015  -4.210 -12.433  0.00  0.00     0.230 C 
BRANCH   4   5
HETATM    5  N           1     -33.471  -4.193 -13.830  0.00  0.00    -0.079 N 
HETATM    6  H           1     -34.226  -4.460 -14.502  0.00  0.00     0.274 HD
HETATM    7  H           1     -33.126  -3.234 -14.058  0.00  0.00     0.274 HD
HETATM    8  H           1     -32.682  -4.874 -13.904  0.00  0.00     0.274 HD
ENDBRANCH   4   5
ENDBRANCH   3   4
ENDBRANCH   2   3
ENDBRANCH   1   2
BRANCH   1   9
HETATM    9  C           1     -35.889  -1.812 -10.597  0.00  0.00     0.196 C 
HETATM   10  O           1     -36.788  -2.672 -10.476  0.00  0.00    -0.646 OA
HETATM   11  O           1     -35.824  -0.857  -9.794  0.00  0.00    -0.646 OA
ENDBRANCH   1   9
BRANCH   1  12
HETATM   12  N           1     -34.880  -0.703 -12.492  0.00  0.00    -0.345 N 
HETATM   13  C           1     -35.120  -0.748 -13.839  0.00  0.00     0.248 C 
HETATM   14  O           1     -35.334  -1.807 -14.380  0.00  0.00    -0.271 OA
HETATM   15  H           1     -34.702   0.184 -12.039  0.00  0.00     0.163 HD
BRANCH  13  16
HETATM   16  C           1     -35.120   0.526 -14.647  0.00  0.00     0.270 C 
HETATM   17  C           1     -34.592   1.671 -13.792  0.00  0.00     0.050 C 
BRANCH  16  18
HETATM   18  N           1     -36.518   0.838 -15.089  0.00  0.00    -0.067 N 
HETATM   19  H           1     -36.874   0.064 -15.694  0.00  0.00     0.275 HD
HETATM   20  H           1     -37.134   0.934 -14.250  0.00  0.00     0.275 HD
HETATM   21  H           1     -36.522   1.733 -15.629  0.00  0.00     0.275 HD
ENDBRANCH  16  18
ENDBRANCH  13  16
ENDBRANCH   1  12
TORSDOF 8
ENDMDL
MODEL 4
REMARK VINA RESULT:      -5.5     11.447     13.298
REMARK  8 active torsions:
REMARK  status: ('A' for Active; 'I' for Inactive)
REMARK    1  A    between atoms: C_1  and  C_8 
REMARK    2  A    between atoms: C_1  and  N_10 
REMARK    3  A    between atoms: C_2  and  C_3 
REMARK    4  A    between atoms: C_2  and  C_19 
REMARK    5  A    between atoms: C_2  and  N_9 
REMARK    6  A    between atoms: C_3  and  C_4 
REMARK    7  A    between atoms: C_4  and  C_5 
REMARK    8  A    between atoms: C_5  and  N_6 
REMARK       I    between atoms: C_8  and  N_9 
ROOT
HETATM    1  C           1     -23.671  -4.219 -10.899  0.00  0.00     0.185 C 
ENDROOT
BRANCH   1   2
HETATM    2  C           1     -22.538  -4.904 -10.148  0.00  0.00     0.038 C 
BRANCH   2   3
HETATM    3  C           1     -21.232  -4.165 -10.414  0.00  0.00     0.030 C 
BRANCH   3   4
HETATM    4  C           1     -20.386  -4.157  -9.146  0.00  0.00     0.230 C 
BRANCH   4   5
HETATM    5  N           1     -21.266  -3.903  -7.958  0.00  0.00    -0.079 N 
HETATM    6  H           1     -22.200  -4.345  -8.115  0.00  0.00     0.274 HD
HETATM    7  H           1     -20.826  -4.314  -7.105  0.00  0.00     0.274 HD
HETATM    8  H           1     -21.386  -2.873  -7.828  0.00  0.00     0.274 HD
ENDBRANCH   4   5
ENDBRANCH   3   4
ENDBRANCH   2   3
ENDBRANCH   1   2
BRANCH   1   9
HETATM    9  C           1     -24.568  -3.505  -9.916  0.00  0.00     0.196 C 
HETATM   10  O           1     -25.727  -3.179 -10.252  0.00  0.00    -0.646 OA
HETATM   11  O           1     -24.151  -3.241  -8.769  0.00  0.00    -0.646 OA
ENDBRANCH   1   9
BRANCH   1  12
HETATM   12  N           1     -23.119  -3.258 -11.834  0.00  0.00    -0.345 N 
HETATM   13  C           1     -23.589  -3.205 -13.118  0.00  0.00     0.248 C 
HETATM   14  O           1     -24.465  -3.958 -13.473  0.00  0.00    -0.271 OA
HETATM   15  H           1     -22.386  -2.627 -11.537  0.00  0.00     0.163 HD
BRANCH  13  16
HETATM   16  C           1     -23.015  -2.205 -14.091  0.00  0.00     0.270 C 
HETATM   17  C           1     -24.135  -1.336 -14.648  0.00  0.00     0.050 C 
BRANCH  16  18
HETATM   18  N           1     -22.342  -2.932 -15.217  0.00  0.00    -0.067 N 
HETATM   19  H           1     -22.690  -3.917 -15.253  0.00  0.00     0.275 HD
HETATM   20  H           1     -22.561  -2.453 -16.120  0.00  0.00     0.275 HD
HETATM   21  H           1     -21.309  -2.933 -15.064  0.00  0.00     0.275 HD
ENDBRANCH  16  18
ENDBRANCH  13  16
ENDBRANCH   1  12
TORSDOF 8
ENDMDL
MODEL 5
REMARK VINA RESULT:      -5.4      2.476      4.097
REMARK  8 active torsions:
REMARK  status: ('A' for Active; 'I' for Inactive)
REMARK    1  A    between atoms: C_1  and  C_8 
REMARK    2  A    between atoms: C_1  and  N_10 
REMARK    3  A    between atoms: C_2  and  C_3 
REMARK    4  A    between atoms: C_2  and  C_19 
REMARK    5  A    between atoms: C_2  and  N_9 
REMARK    6  A    between atoms: C_3  and  C_4 
REMARK    7  A    between atoms: C_4  and  C_5 
REMARK    8  A    between atoms: C_5  and  N_6 
REMARK       I    between atoms: C_8  and  N_9 
ROOT
HETATM    1  C           1     -35.606  -1.371 -12.427  0.00  0.00     0.185 C 
ENDROOT
BRANCH   1   2
HETATM    2  C           1     -35.297  -0.237 -13.394  0.00  0.00     0.038 C 
BRANCH   2   3
HETATM    3  C           1     -36.537   0.077 -14.223  0.00  0.00     0.030 C 
BRANCH   3   4
HETATM    4  C           1     -36.127   0.358 -15.664  0.00  0.00     0.230 C 
BRANCH   4   5
HETATM    5  N           1     -36.541   1.750 -16.040  0.00  0.00    -0.079 N 
HETATM    6  H           1     -35.755   2.225 -16.537  0.00  0.00     0.274 HD
HETATM    7  H           1     -37.375   1.707 -16.668  0.00  0.00     0.274 HD
HETATM    8  H           1     -36.782   2.286 -15.176  0.00  0.00     0.274 HD
ENDBRANCH   4   5
ENDBRANCH   3   4
ENDBRANCH   2   3
ENDBRANCH   1   2
BRANCH   1   9
HETATM    9  C           1     -34.576  -2.463 -12.585  0.00  0.00     0.196 C 
HETATM   10  O           1     -33.838  -2.769 -11.624  0.00  0.00    -0.646 OA
HETATM   11  O           1     -34.463  -3.061 -13.677  0.00  0.00    -0.646 OA
ENDBRANCH   1   9
BRANCH   1  12
HETATM   12  N           1     -35.572  -0.869 -11.067  0.00  0.00    -0.345 N 
HETATM   13  C           1     -36.739  -0.666 -10.383  0.00  0.00     0.248 C 
HETATM   14  O           1     -37.799  -0.906 -10.911  0.00  0.00    -0.271 OA
HETATM   15  H           1     -34.684  -0.668 -10.625  0.00  0.00     0.163 HD
BRANCH  13  16
HETATM   16  C           1     -36.703  -0.143  -8.967  0.00  0.00     0.270 C 
HETATM   17  C           1     -38.075  -0.313  -8.328  0.00  0.00     0.050 C 
BRANCH  16  18
HETATM   18  N           1     -36.336   1.311  -8.981  0.00  0.00    -0.067 N 
HETATM   19  H           1     -37.060   1.858  -8.465  0.00  0.00     0.275 HD
HETATM   20  H           1     -35.407   1.439  -8.517  0.00  0.00     0.275 HD
HETATM   21  H           1     -36.282   1.647  -9.969  0.00  0.00     0.275 HD
ENDBRANCH  16  18
ENDBRANCH  13  16
ENDBRANCH   1  12
TORSDOF 8
ENDMDL
MODEL 6
REMARK VINA RESULT:      -5.2      1.874      5.134
REMARK  8 active torsions:
REMARK  status: ('A' for Active; 'I' for Inactive)
REMARK    1  A    between atoms: C_1  and  C_8 
REMARK    2  A    between atoms: C_1  and  N_10 
REMARK    3  A    between atoms: C_2  and  C_3 
REMARK    4  A    between atoms: C_2  and  C_19 
REMARK    5  A    between atoms: C_2  and  N_9 
REMARK    6  A    between atoms: C_3  and  C_4 
REMARK    7  A    between atoms: C_4  and  C_5 
REMARK    8  A    between atoms: C_5  and  N_6 
REMARK       I    between atoms: C_8  and  N_9 
ROOT
HETATM    1  C           1     -34.930  -2.436 -12.019  0.00  0.00     0.185 C 
ENDROOT
BRANCH   1   2
HETATM    2  C           1     -33.565  -3.028 -11.698  0.00  0.00     0.038 C 
BRANCH   2   3
HETATM    3  C           1     -33.740  -4.276 -10.842  0.00  0.00     0.030 C 
BRANCH   3   4
HETATM    4  C           1     -34.399  -5.372 -11.671  0.00  0.00     0.230 C 
BRANCH   4   5
HETATM    5  N           1     -34.238  -6.691 -10.975  0.00  0.00    -0.079 N 
HETATM    6  H           1     -34.973  -7.354 -11.311  0.00  0.00     0.274 HD
HETATM    7  H           1     -33.293  -7.083 -11.187  0.00  0.00     0.274 HD
HETATM    8  H           1     -34.337  -6.555  -9.944  0.00  0.00     0.274 HD
ENDBRANCH   4   5
ENDBRANCH   3   4
ENDBRANCH   2   3
ENDBRANCH   1   2
BRANCH   1   9
HETATM    9  C           1     -35.628  -2.053 -10.736  0.00  0.00     0.196 C 
HETATM   10  O           1     -36.688  -2.629 -10.407  0.00  0.00    -0.646 OA
HETATM   11  O           1     -35.146  -1.163 -10.004  0.00  0.00    -0.646 OA
ENDBRANCH   1   9
BRANCH   1  12
HETATM   12  N           1     -34.763  -1.257 -12.847  0.00  0.00    -0.345 N 
HETATM   13  C           1     -35.852  -0.676 -13.438  0.00  0.00     0.248 C 
HETATM   14  O           1     -36.953  -1.145 -13.270  0.00  0.00    -0.271 OA
HETATM   15  H           1     -33.841  -0.864 -12.988  0.00  0.00     0.163 HD
BRANCH  13  16
HETATM   16  C           1     -35.678   0.551 -14.300  0.00  0.00     0.270 C 
HETATM   17  C           1     -35.503   0.130 -15.753  0.00  0.00     0.050 C 
BRANCH  16  18
HETATM   18  N           1     -34.464   1.308 -13.851  0.00  0.00    -0.067 N 
HETATM   19  H           1     -34.686   1.837 -12.978  0.00  0.00     0.275 HD
HETATM   20  H           1     -33.686   0.636 -13.660  0.00  0.00     0.275 HD
HETATM   21  H           1     -34.172   1.976 -14.599  0.00  0.00     0.275 HD
ENDBRANCH  16  18
ENDBRANCH  13  16
ENDBRANCH   1  12
TORSDOF 8
ENDMDL
MODEL 7
REMARK VINA RESULT:      -5.0     13.086     15.519
REMARK  8 active torsions:
REMARK  status: ('A' for Active; 'I' for Inactive)
REMARK    1  A    between atoms: C_1  and  C_8 
REMARK    2  A    between atoms: C_1  and  N_10 
REMARK    3  A    between atoms: C_2  and  C_3 
REMARK    4  A    between atoms: C_2  and  C_19 
REMARK    5  A    between atoms: C_2  and  N_9 
REMARK    6  A    between atoms: C_3  and  C_4 
REMARK    7  A    between atoms: C_4  and  C_5 
REMARK    8  A    between atoms: C_5  and  N_6 
REMARK       I    between atoms: C_8  and  N_9 
ROOT
HETATM    1  C           1     -21.534  -4.999  -8.110  0.00  0.00     0.185 C 
ENDROOT
BRANCH   1   2
HETATM    2  C           1     -22.645  -4.016  -8.451  0.00  0.00     0.038 C 
BRANCH   2   3
HETATM    3  C           1     -23.418  -4.521  -9.663  0.00  0.00     0.030 C 
BRANCH   3   4
HETATM    4  C           1     -24.293  -3.401 -10.212  0.00  0.00     0.230 C 
BRANCH   4   5
HETATM    5  N           1     -25.696  -3.569  -9.709  0.00  0.00    -0.079 N 
HETATM    6  H           1     -26.250  -4.124 -10.400  0.00  0.00     0.274 HD
HETATM    7  H           1     -25.680  -4.072  -8.793  0.00  0.00     0.274 HD
HETATM    8  H           1     -26.136  -2.630  -9.584  0.00  0.00     0.274 HD
ENDBRANCH   4   5
ENDBRANCH   3   4
ENDBRANCH   2   3
ENDBRANCH   1   2
BRANCH   1   9
HETATM    9  C           1     -20.238  -4.527  -8.723  0.00  0.00     0.196 C 
HETATM   10  O           1     -19.438  -3.848  -8.044  0.00  0.00    -0.646 OA
HETATM   11  O           1     -19.966  -4.816  -9.908  0.00  0.00    -0.646 OA
ENDBRANCH   1   9
BRANCH   1  12
HETATM   12  N           1     -21.386  -5.080  -6.670  0.00  0.00    -0.345 N 
HETATM   13  C           1     -21.181  -6.292  -6.070  0.00  0.00     0.248 C 
HETATM   14  O           1     -21.124  -7.296  -6.740  0.00  0.00    -0.271 OA
HETATM   15  H           1     -21.435  -4.239  -6.109  0.00  0.00     0.163 HD
BRANCH  13  16
HETATM   16  C           1     -21.027  -6.376  -4.571  0.00  0.00     0.270 C 
HETATM   17  C           1     -20.529  -7.763  -4.188  0.00  0.00     0.050 C 
BRANCH  16  18
HETATM   18  N           1     -22.353  -6.125  -3.917  0.00  0.00    -0.067 N 
HETATM   19  H           1     -22.981  -6.944  -4.076  0.00  0.00     0.275 HD
HETATM   20  H           1     -22.213  -5.987  -2.890  0.00  0.00     0.275 HD
HETATM   21  H           1     -22.787  -5.267  -4.328  0.00  0.00     0.275 HD
ENDBRANCH  16  18
ENDBRANCH  13  16
ENDBRANCH   1  12
TORSDOF 8
ENDMDL
MODEL 8
REMARK VINA RESULT:      -4.8     14.477     16.566
REMARK  8 active torsions:
REMARK  status: ('A' for Active; 'I' for Inactive)
REMARK    1  A    between atoms: C_1  and  C_8 
REMARK    2  A    between atoms: C_1  and  N_10 
REMARK    3  A    between atoms: C_2  and  C_3 
REMARK    4  A    between atoms: C_2  and  C_19 
REMARK    5  A    between atoms: C_2  and  N_9 
REMARK    6  A    between atoms: C_3  and  C_4 
REMARK    7  A    between atoms: C_4  and  C_5 
REMARK    8  A    between atoms: C_5  and  N_6 
REMARK       I    between atoms: C_8  and  N_9 
ROOT
HETATM    1  C           1     -21.317  -5.416  -6.592  0.00  0.00     0.185 C 
ENDROOT
BRANCH   1   2
HETATM    2  C           1     -21.865  -4.074  -7.059  0.00  0.00     0.038 C 
BRANCH   2   3
HETATM    3  C           1     -23.085  -4.303  -7.942  0.00  0.00     0.030 C 
BRANCH   3   4
HETATM    4  C           1     -22.865  -3.637  -9.295  0.00  0.00     0.230 C 
BRANCH   4   5
HETATM    5  N           1     -21.893  -4.448 -10.100  0.00  0.00    -0.079 N 
HETATM    6  H           1     -22.318  -5.374 -10.332  0.00  0.00     0.274 HD
HETATM    7  H           1     -21.665  -3.939 -10.985  0.00  0.00     0.274 HD
HETATM    8  H           1     -21.019  -4.594  -9.547  0.00  0.00     0.274 HD
ENDBRANCH   4   5
ENDBRANCH   3   4
ENDBRANCH   2   3
ENDBRANCH   1   2
BRANCH   1   9
HETATM    9  C           1     -20.027  -5.713  -7.318  0.00  0.00     0.196 C 
HETATM   10  O           1     -19.541  -4.867  -8.099  0.00  0.00    -0.646 OA
HETATM   11  O           1     -19.446  -6.804  -7.137  0.00  0.00    -0.646 OA
ENDBRANCH   1   9
BRANCH   1  12
HETATM   12  N           1     -21.066  -5.364  -5.164  0.00  0.00    -0.345 N 
HETATM   13  C           1     -21.505  -6.378  -4.356  0.00  0.00     0.248 C 
HETATM   14  O           1     -22.100  -7.316  -4.831  0.00  0.00    -0.271 OA
HETATM   15  H           1     -20.568  -4.579  -4.766  0.00  0.00     0.163 HD
BRANCH  13  16
HETATM   16  C           1     -21.244  -6.324  -2.871  0.00  0.00     0.270 C 
HETATM   17  C           1     -20.853  -7.710  -2.373  0.00  0.00     0.050 C 
BRANCH  16  18
HETATM   18  N           1     -22.485  -5.872  -2.161  0.00  0.00    -0.067 N 
HETATM   19  H           1     -23.249  -5.718  -2.858  0.00  0.00     0.275 HD
HETATM   20  H           1     -22.781  -6.605  -1.477  0.00  0.00     0.275 HD
HETATM   21  H           1     -22.291  -4.979  -1.653  0.00  0.00     0.275 HD
ENDBRANCH  16  18
ENDBRANCH  13  16
ENDBRANCH   1  12
TORSDOF 8
ENDMDL
MODEL 9
REMARK VINA RESULT:      -4.7     15.993     18.067
REMARK  8 active torsions:
REMARK  status: ('A' for Active; 'I' for Inactive)
REMARK    1  A    between atoms: C_1  and  C_8 
REMARK    2  A    between atoms: C_1  and  N_10 
REMARK    3  A    between atoms: C_2  and  C_3 
REMARK    4  A    between atoms: C_2  and  C_19 
REMARK    5  A    between atoms: C_2  and  N_9 
REMARK    6  A    between atoms: C_3  and  C_4 
REMARK    7  A    between atoms: C_4  and  C_5 
REMARK    8  A    between atoms: C_5  and  N_6 
REMARK       I    between atoms: C_8  and  N_9 
ROOT
HETATM    1  C           1     -20.907  -6.874  -4.577  0.00  0.00     0.185 C 
ENDROOT
BRANCH   1   2
HETATM    2  C           1     -22.156  -6.792  -3.711  0.00  0.00     0.038 C 
BRANCH   2   3
HETATM    3  C           1     -21.810  -6.138  -2.379  0.00  0.00     0.030 C 
BRANCH   3   4
HETATM    4  C           1     -22.094  -7.114  -1.245  0.00  0.00     0.230 C 
BRANCH   4   5
HETATM    5  N           1     -20.904  -8.004  -1.040  0.00  0.00    -0.079 N 
HETATM    6  H           1     -20.050  -7.418  -0.896  0.00  0.00     0.274 HD
HETATM    7  H           1     -21.059  -8.604  -0.198  0.00  0.00     0.274 HD
HETATM    8  H           1     -20.773  -8.610  -1.881  0.00  0.00     0.274 HD
ENDBRANCH   4   5
ENDBRANCH   3   4
ENDBRANCH   2   3
ENDBRANCH   1   2
BRANCH   1   9
HETATM    9  C           1     -20.455  -8.311  -4.674  0.00  0.00     0.196 C 
HETATM   10  O           1     -19.740  -8.802  -3.773  0.00  0.00    -0.646 OA
HETATM   11  O           1     -20.795  -9.008  -5.653  0.00  0.00    -0.646 OA
ENDBRANCH   1   9
BRANCH   1  12
HETATM   12  N           1     -21.205  -6.372  -5.905  0.00  0.00    -0.345 N 
HETATM   13  C           1     -20.799  -5.117  -6.268  0.00  0.00     0.248 C 
HETATM   14  O           1     -20.192  -4.427  -5.484  0.00  0.00    -0.271 OA
HETATM   15  H           1     -21.714  -6.950  -6.561  0.00  0.00     0.163 HD
BRANCH  13  16
HETATM   16  C           1     -21.110  -4.595  -7.650  0.00  0.00     0.270 C 
HETATM   17  C           1     -19.840  -4.037  -8.280  0.00  0.00     0.050 C 
BRANCH  16  18
HETATM   18  N           1     -22.138  -3.507  -7.553  0.00  0.00    -0.067 N 
HETATM   19  H           1     -22.318  -3.112  -8.504  0.00  0.00     0.275 HD
HETATM   20  H           1     -23.026  -3.902  -7.167  0.00  0.00     0.275 HD
HETATM   21  H           1     -21.788  -2.752  -6.922  0.00  0.00     0.275 HD
ENDBRANCH  16  18
ENDBRANCH  13  16
ENDBRANCH   1  12
TORSDOF 8
ENDMDL
