MODEL 1
REMARK VINA RESULT:      -5.5      0.000      0.000
REMARK  8 active torsions:
REMARK  status: ('A' for Active; 'I' for Inactive)
REMARK    1  A    between atoms: C_1  and  C_9 
REMARK    2  A    between atoms: C_1  and  C_20 
REMARK    3  A    between atoms: C_1  and  N_15 
REMARK    4  A    between atoms: N_6  and  C_19 
REMARK    5  A    between atoms: O_7  and  C_11 
REMARK    6  A    between atoms: C_9  and  S_17 
REMARK       I    between atoms: C_10  and  N_15 
REMARK    7  A    between atoms: C_10  and  C_19 
REMARK    8  A    between atoms: C_11  and  C_19 
ROOT
HETATM    1  H           1     -35.299  -2.030 -13.770  0.00  0.00     0.163 HD
HETATM    2  C           1     -34.124  -2.548 -12.146  0.00  0.00     0.251 C 
HETATM    3  O           1     -33.599  -2.146 -11.135  0.00  0.00    -0.271 OA
HETATM    4  N           1     -34.859  -1.692 -12.922  0.00  0.00    -0.344 N 
ENDROOT
BRANCH   2   5
HETATM    5  C           1     -33.972  -3.993 -12.553  0.00  0.00     0.302 C 
BRANCH   5   6
HETATM    6  N           1     -32.558  -4.432 -12.314  0.00  0.00    -0.064 N 
HETATM    7  H           1     -32.223  -4.988 -13.133  0.00  0.00     0.275 HD
HETATM    8  H           1     -31.948  -3.592 -12.192  0.00  0.00     0.275 HD
HETATM    9  H           1     -32.516  -5.020 -11.451  0.00  0.00     0.275 HD
ENDBRANCH   5   6
BRANCH   5  10
HETATM   10  C           1     -34.916  -4.856 -11.727  0.00  0.00     0.153 C 
HETATM   11  C           1     -34.114  -5.657 -10.710  0.00  0.00     0.042 C 
BRANCH  10  12
HETATM   12  O           1     -35.833  -4.035 -11.055  0.00  0.00    -0.393 OA
HETATM   13  H           1     -35.380  -3.664 -10.317  0.00  0.00     0.210 HD
ENDBRANCH  10  12
ENDBRANCH   5  10
ENDBRANCH   2   5
BRANCH   4  14
HETATM   14  C           1     -35.006  -0.303 -12.532  0.00  0.00     0.194 C 
BRANCH  14  15
HETATM   15  C           1     -35.096   0.566 -13.778  0.00  0.00     0.106 C 
BRANCH  15  16
HETATM   16  S           1     -35.631  -0.446 -15.186  0.00  0.00    -0.180 SA
HETATM   17  H           1     -36.912  -0.566 -14.794  0.00  0.00     0.101 HD
ENDBRANCH  15  16
ENDBRANCH  14  15
BRANCH  14  18
HETATM   18  C           1     -36.264  -0.143 -11.713  0.00  0.00     0.197 C 
HETATM   19  O           1     -36.237   0.517 -10.652  0.00  0.00    -0.646 OA
HETATM   20  O           1     -37.330  -0.670 -12.095  0.00  0.00    -0.646 OA
ENDBRANCH  14  18
ENDBRANCH   4  14
TORSDOF 8
ENDMDL
MODEL 2
REMARK VINA RESULT:      -5.2      2.519      4.728
REMARK  8 active torsions:
REMARK  status: ('A' for Active; 'I' for Inactive)
REMARK    1  A    between atoms: C_1  and  C_9 
REMARK    2  A    between atoms: C_1  and  C_20 
REMARK    3  A    between atoms: C_1  and  N_15 
REMARK    4  A    between atoms: N_6  and  C_19 
REMARK    5  A    between atoms: O_7  and  C_11 
REMARK    6  A    between atoms: C_9  and  S_17 
REMARK       I    between atoms: C_10  and  N_15 
REMARK    7  A    between atoms: C_10  and  C_19 
REMARK    8  A    between atoms: C_11  and  C_19 
ROOT
HETATM    1  H           1     -33.977  -1.262 -13.723  0.00  0.00     0.163 HD
HETATM    2  C           1     -35.975  -0.738 -13.587  0.00  0.00     0.251 C 
HETATM    3  O           1     -37.019  -0.955 -13.019  0.00  0.00    -0.271 OA
HETATM    4  N           1     -34.852  -1.443 -13.247  0.00  0.00    -0.344 N 
ENDROOT
BRANCH   2   5
HETATM    5  C           1     -35.908   0.309 -14.672  0.00  0.00     0.302 C 
BRANCH   5   6
HETATM    6  N           1     -34.475   0.656 -14.943  0.00  0.00    -0.064 N 
HETATM    7  H           1     -34.318   0.707 -15.975  0.00  0.00     0.275 HD
HETATM    8  H           1     -34.253   1.582 -14.511  0.00  0.00     0.275 HD
HETATM    9  H           1     -33.855  -0.078 -14.531  0.00  0.00     0.275 HD
ENDBRANCH   5   6
BRANCH   5  10
HETATM   10  C           1     -36.547  -0.234 -15.943  0.00  0.00     0.153 C 
HETATM   11  C           1     -35.597  -1.223 -16.605  0.00  0.00     0.042 C 
BRANCH  10  12
HETATM   12  O           1     -37.748  -0.884 -15.622  0.00  0.00    -0.393 OA
HETATM   13  H           1     -37.609  -1.326 -14.801  0.00  0.00     0.210 HD
ENDBRANCH  10  12
ENDBRANCH   5  10
ENDBRANCH   2   5
BRANCH   4  14
HETATM   14  C           1     -34.915  -2.450 -12.205  0.00  0.00     0.194 C 
BRANCH  14  15
HETATM   15  C           1     -34.009  -3.617 -12.572  0.00  0.00     0.106 C 
BRANCH  15  16
HETATM   16  S           1     -34.619  -5.130 -11.775  0.00  0.00    -0.180 SA
HETATM   17  H           1     -35.671  -5.305 -12.595  0.00  0.00     0.101 HD
ENDBRANCH  15  16
ENDBRANCH  14  15
BRANCH  14  18
HETATM   18  C           1     -34.458  -1.848 -10.898  0.00  0.00     0.197 C 
HETATM   19  O           1     -35.293  -1.341 -10.118  0.00  0.00    -0.646 OA
HETATM   20  O           1     -33.245  -1.857 -10.596  0.00  0.00    -0.646 OA
ENDBRANCH  14  18
ENDBRANCH   4  14
TORSDOF 8
ENDMDL
MODEL 3
REMARK VINA RESULT:      -5.2      2.259      2.515
REMARK  8 active torsions:
REMARK  status: ('A' for Active; 'I' for Inactive)
REMARK    1  A    between atoms: C_1  and  C_9 
REMARK    2  A    between atoms: C_1  and  C_20 
REMARK    3  A    between atoms: C_1  and  N_15 
REMARK    4  A    between atoms: N_6  and  C_19 
REMARK    5  A    between atoms: O_7  and  C_11 
REMARK    6  A    between atoms: C_9  and  S_17 
REMARK       I    between atoms: C_10  and  N_15 
REMARK    7  A    between atoms: C_10  and  C_19 
REMARK    8  A    between atoms: C_11  and  C_19 
ROOT
HETATM    1  H           1     -35.207  -1.204 -11.663  0.00  0.00     0.163 HD
HETATM    2  C           1     -34.595  -2.666 -12.995  0.00  0.00     0.251 C 
HETATM    3  O           1     -34.592  -3.013 -14.152  0.00  0.00    -0.271 OA
HETATM    4  N           1     -35.204  -1.494 -12.634  0.00  0.00    -0.344 N 
ENDROOT
BRANCH   2   5
HETATM    5  C           1     -33.928  -3.523 -11.947  0.00  0.00     0.302 C 
BRANCH   5   6
HETATM    6  N           1     -33.452  -2.655 -10.821  0.00  0.00    -0.064 N 
HETATM    7  H           1     -34.274  -2.294 -10.288  0.00  0.00     0.275 HD
HETATM    8  H           1     -32.843  -3.216 -10.183  0.00  0.00     0.275 HD
HETATM    9  H           1     -32.905  -1.853 -11.207  0.00  0.00     0.275 HD
ENDBRANCH   5   6
BRANCH   5  10
HETATM   10  C           1     -34.926  -4.543 -11.414  0.00  0.00     0.153 C 
HETATM   11  C           1     -34.237  -5.444 -10.399  0.00  0.00     0.042 C 
BRANCH  10  12
HETATM   12  O           1     -35.993  -3.875 -10.797  0.00  0.00    -0.393 OA
HETATM   13  H           1     -36.487  -3.456 -11.481  0.00  0.00     0.210 HD
ENDBRANCH  10  12
ENDBRANCH   5  10
ENDBRANCH   2   5
BRANCH   4  14
HETATM   14  C           1     -35.845  -0.669 -13.639  0.00  0.00     0.194 C 
BRANCH  14  15
HETATM   15  C           1     -37.114  -0.059 -13.061  0.00  0.00     0.106 C 
BRANCH  15  16
HETATM   16  S           1     -37.136  -0.298 -11.262  0.00  0.00    -0.180 SA
HETATM   17  H           1     -38.208  -1.110 -11.241  0.00  0.00     0.101 HD
ENDBRANCH  15  16
ENDBRANCH  14  15
BRANCH  14  18
HETATM   18  C           1     -34.903   0.431 -14.061  0.00  0.00     0.197 C 
HETATM   19  O           1     -34.346   0.382 -15.179  0.00  0.00    -0.646 OA
HETATM   20  O           1     -34.679   1.391 -13.293  0.00  0.00    -0.646 OA
ENDBRANCH  14  18
ENDBRANCH   4  14
TORSDOF 8
ENDMDL
MODEL 4
REMARK VINA RESULT:      -5.0     12.194     13.535
REMARK  8 active torsions:
REMARK  status: ('A' for Active; 'I' for Inactive)
REMARK    1  A    between atoms: C_1  and  C_9 
REMARK    2  A    between atoms: C_1  and  C_20 
REMARK    3  A    between atoms: C_1  and  N_15 
REMARK    4  A    between atoms: N_6  and  C_19 
REMARK    5  A    between atoms: O_7  and  C_11 
REMARK    6  A    between atoms: C_9  and  S_17 
REMARK       I    between atoms: C_10  and  N_15 
REMARK    7  A    between atoms: C_10  and  C_19 
REMARK    8  A    between atoms: C_11  and  C_19 
ROOT
HETATM    1  H           1     -22.037  -5.735  -9.344  0.00  0.00     0.163 HD
HETATM    2  C           1     -21.487  -4.405  -7.856  0.00  0.00     0.251 C 
HETATM    3  O           1     -21.514  -3.251  -7.500  0.00  0.00    -0.271 OA
HETATM    4  N           1     -22.061  -4.767  -9.046  0.00  0.00    -0.344 N 
ENDROOT
BRANCH   2   5
HETATM    5  C           1     -20.823  -5.447  -6.991  0.00  0.00     0.302 C 
BRANCH   5   6
HETATM    6  N           1     -19.672  -4.826  -6.257  0.00  0.00    -0.064 N 
HETATM    7  H           1     -19.829  -4.909  -5.227  0.00  0.00     0.275 HD
HETATM    8  H           1     -18.788  -5.321  -6.514  0.00  0.00     0.275 HD
HETATM    9  H           1     -19.595  -3.818  -6.519  0.00  0.00     0.275 HD
ENDBRANCH   5   6
BRANCH   5  10
HETATM   10  C           1     -21.830  -5.990  -5.986  0.00  0.00     0.153 C 
HETATM   11  C           1     -21.245  -5.901  -4.583  0.00  0.00     0.042 C 
BRANCH  10  12
HETATM   12  O           1     -23.009  -5.234  -6.049  0.00  0.00    -0.393 OA
HETATM   13  H           1     -23.532  -5.598  -6.743  0.00  0.00     0.210 HD
ENDBRANCH  10  12
ENDBRANCH   5  10
ENDBRANCH   2   5
BRANCH   4  14
HETATM   14  C           1     -22.699  -3.766  -9.878  0.00  0.00     0.194 C 
BRANCH  14  15
HETATM   15  C           1     -22.310  -3.993 -11.332  0.00  0.00     0.106 C 
BRANCH  15  16
HETATM   16  S           1     -23.014  -2.673 -12.361  0.00  0.00    -0.180 SA
HETATM   17  H           1     -22.503  -1.653 -11.648  0.00  0.00     0.101 HD
ENDBRANCH  15  16
ENDBRANCH  14  15
BRANCH  14  18
HETATM   18  C           1     -24.198  -3.876  -9.735  0.00  0.00     0.197 C 
HETATM   19  O           1     -24.763  -4.976  -9.916  0.00  0.00    -0.646 OA
HETATM   20  O           1     -24.872  -2.868  -9.434  0.00  0.00    -0.646 OA
ENDBRANCH  14  18
ENDBRANCH   4  14
TORSDOF 8
ENDMDL
MODEL 5
REMARK VINA RESULT:      -4.7      2.541      5.059
REMARK  8 active torsions:
REMARK  status: ('A' for Active; 'I' for Inactive)
REMARK    1  A    between atoms: C_1  and  C_9 
REMARK    2  A    between atoms: C_1  and  C_20 
REMARK    3  A    between atoms: C_1  and  N_15 
REMARK    4  A    between atoms: N_6  and  C_19 
REMARK    5  A    between atoms: O_7  and  C_11 
REMARK    6  A    between atoms: C_9  and  S_17 
REMARK       I    between atoms: C_10  and  N_15 
REMARK    7  A    between atoms: C_10  and  C_19 
REMARK    8  A    between atoms: C_11  and  C_19 
ROOT
HETATM    1  H           1     -33.824  -1.962 -13.930  0.00  0.00     0.163 HD
HETATM    2  C           1     -35.720  -1.138 -14.017  0.00  0.00     0.251 C 
HETATM    3  O           1     -36.792  -1.059 -13.466  0.00  0.00    -0.271 OA
HETATM    4  N           1     -34.722  -1.896 -13.467  0.00  0.00    -0.344 N 
ENDROOT
BRANCH   2   5
HETATM    5  C           1     -35.482  -0.402 -15.313  0.00  0.00     0.302 C 
BRANCH   5   6
HETATM    6  N           1     -36.774  -0.285 -16.066  0.00  0.00    -0.064 N 
HETATM    7  H           1     -37.184  -1.237 -16.203  0.00  0.00     0.275 HD
HETATM    8  H           1     -37.442   0.306 -15.522  0.00  0.00     0.275 HD
HETATM    9  H           1     -36.596   0.157 -16.996  0.00  0.00     0.275 HD
ENDBRANCH   5   6
BRANCH   5  10
HETATM   10  C           1     -34.942   0.991 -15.014  0.00  0.00     0.153 C 
HETATM   11  C           1     -35.851   2.034 -15.650  0.00  0.00     0.042 C 
BRANCH  10  12
HETATM   12  O           1     -34.902   1.190 -13.627  0.00  0.00    -0.393 OA
HETATM   13  H           1     -34.555   0.400 -13.247  0.00  0.00     0.210 HD
ENDBRANCH  10  12
ENDBRANCH   5  10
ENDBRANCH   2   5
BRANCH   4  14
HETATM   14  C           1     -34.950  -2.603 -12.222  0.00  0.00     0.194 C 
BRANCH  14  15
HETATM   15  C           1     -34.152  -3.900 -12.222  0.00  0.00     0.106 C 
BRANCH  15  16
HETATM   16  S           1     -34.745  -4.976 -10.886  0.00  0.00    -0.180 SA
HETATM   17  H           1     -34.636  -4.058  -9.908  0.00  0.00     0.101 HD
ENDBRANCH  15  16
ENDBRANCH  14  15
BRANCH  14  18
HETATM   18  C           1     -34.509  -1.739 -11.066  0.00  0.00     0.197 C 
HETATM   19  O           1     -33.304  -1.711 -10.731  0.00  0.00    -0.646 OA
HETATM   20  O           1     -35.346  -1.053 -10.443  0.00  0.00    -0.646 OA
ENDBRANCH  14  18
ENDBRANCH   4  14
TORSDOF 8
ENDMDL
MODEL 6
REMARK VINA RESULT:      -4.7      2.658      5.110
REMARK  8 active torsions:
REMARK  status: ('A' for Active; 'I' for Inactive)
REMARK    1  A    between atoms: C_1  and  C_9 
REMARK    2  A    between atoms: C_1  and  C_20 
REMARK    3  A    between atoms: C_1  and  N_15 
REMARK    4  A    between atoms: N_6  and  C_19 
REMARK    5  A    between atoms: O_7  and  C_11 
REMARK    6  A    between atoms: C_9  and  S_17 
REMARK       I    between atoms: C_10  and  N_15 
REMARK    7  A    between atoms: C_10  and  C_19 
REMARK    8  A    between atoms: C_11  and  C_19 
ROOT
HETATM    1  H           1     -35.694  -3.639 -11.723  0.00  0.00     0.163 HD
HETATM    2  C           1     -34.783  -1.805 -11.420  0.00  0.00     0.251 C 
HETATM    3  O           1     -33.767  -1.248 -11.077  0.00  0.00    -0.271 OA
HETATM    4  N           1     -34.842  -3.173 -11.437  0.00  0.00    -0.344 N 
ENDROOT
BRANCH   2   5
HETATM    5  C           1     -35.987  -0.993 -11.830  0.00  0.00     0.302 C 
BRANCH   5   6
HETATM    6  N           1     -36.009   0.293 -11.058  0.00  0.00    -0.064 N 
HETATM    7  H           1     -35.999   1.099 -11.723  0.00  0.00     0.275 HD
HETATM    8  H           1     -36.875   0.334 -10.475  0.00  0.00     0.275 HD
HETATM    9  H           1     -35.169   0.341 -10.438  0.00  0.00     0.275 HD
ENDBRANCH   5   6
BRANCH   5  10
HETATM   10  C           1     -35.911  -0.688 -13.320  0.00  0.00     0.153 C 
HETATM   11  C           1     -35.285   0.685 -13.526  0.00  0.00     0.042 C 
BRANCH  10  12
HETATM   12  O           1     -35.126  -1.659 -13.957  0.00  0.00    -0.393 OA
HETATM   13  H           1     -34.665  -1.225 -14.654  0.00  0.00     0.210 HD
ENDBRANCH  10  12
ENDBRANCH   5  10
ENDBRANCH   2   5
BRANCH   4  14
HETATM   14  C           1     -33.685  -3.953 -11.043  0.00  0.00     0.194 C 
BRANCH  14  15
HETATM   15  C           1     -34.147  -5.246 -10.383  0.00  0.00     0.106 C 
BRANCH  15  16
HETATM   16  S           1     -35.030  -6.264 -11.599  0.00  0.00    -0.180 SA
HETATM   17  H           1     -36.229  -5.677 -11.428  0.00  0.00     0.101 HD
ENDBRANCH  15  16
ENDBRANCH  14  15
BRANCH  14  18
HETATM   18  C           1     -32.859  -4.277 -12.264  0.00  0.00     0.197 C 
HETATM   19  O           1     -33.274  -3.960 -13.400  0.00  0.00    -0.646 OA
HETATM   20  O           1     -31.761  -4.860 -12.139  0.00  0.00    -0.646 OA
ENDBRANCH  14  18
ENDBRANCH   4  14
TORSDOF 8
ENDMDL
MODEL 7
REMARK VINA RESULT:      -4.6      2.917      5.010
REMARK  8 active torsions:
REMARK  status: ('A' for Active; 'I' for Inactive)
REMARK    1  A    between atoms: C_1  and  C_9 
REMARK    2  A    between atoms: C_1  and  C_20 
REMARK    3  A    between atoms: C_1  and  N_15 
REMARK    4  A    between atoms: N_6  and  C_19 
REMARK    5  A    between atoms: O_7  and  C_11 
REMARK    6  A    between atoms: C_9  and  S_17 
REMARK       I    between atoms: C_10  and  N_15 
REMARK    7  A    between atoms: C_10  and  C_19 
REMARK    8  A    between atoms: C_11  and  C_19 
ROOT
HETATM    1  H           1     -37.176  -1.023 -13.304  0.00  0.00     0.163 HD
HETATM    2  C           1     -35.747   0.104 -14.289  0.00  0.00     0.251 C 
HETATM    3  O           1     -34.589   0.449 -14.296  0.00  0.00    -0.271 OA
HETATM    4  N           1     -36.206  -0.735 -13.309  0.00  0.00    -0.344 N 
ENDROOT
BRANCH   2   5
HETATM    5  C           1     -36.688   0.599 -15.360  0.00  0.00     0.302 C 
BRANCH   5   6
HETATM    6  N           1     -36.129   1.845 -15.980  0.00  0.00    -0.064 N 
HETATM    7  H           1     -36.149   1.756 -17.021  0.00  0.00     0.275 HD
HETATM    8  H           1     -36.706   2.667 -15.690  0.00  0.00     0.275 HD
HETATM    9  H           1     -35.143   1.981 -15.659  0.00  0.00     0.275 HD
ENDBRANCH   5   6
BRANCH   5  10
HETATM   10  C           1     -36.846  -0.473 -16.431  0.00  0.00     0.153 C 
HETATM   11  C           1     -35.540  -1.243 -16.575  0.00  0.00     0.042 C 
BRANCH  10  12
HETATM   12  O           1     -37.871  -1.356 -16.062  0.00  0.00    -0.393 OA
HETATM   13  H           1     -38.632  -1.117 -16.564  0.00  0.00     0.210 HD
ENDBRANCH  10  12
ENDBRANCH   5  10
ENDBRANCH   2   5
BRANCH   4  14
HETATM   14  C           1     -35.302  -1.210 -12.280  0.00  0.00     0.194 C 
BRANCH  14  15
HETATM   15  C           1     -36.010  -1.183 -10.932  0.00  0.00     0.106 C 
BRANCH  15  16
HETATM   16  S           1     -37.500  -0.153 -11.051  0.00  0.00    -0.180 SA
HETATM   17  H           1     -37.265   0.289 -12.300  0.00  0.00     0.101 HD
ENDBRANCH  15  16
ENDBRANCH  14  15
BRANCH  14  18
HETATM   18  C           1     -34.878  -2.623 -12.598  0.00  0.00     0.197 C 
HETATM   19  O           1     -34.865  -3.489 -11.696  0.00  0.00    -0.646 OA
HETATM   20  O           1     -34.539  -2.927 -13.762  0.00  0.00    -0.646 OA
ENDBRANCH  14  18
ENDBRANCH   4  14
TORSDOF 8
ENDMDL
MODEL 8
REMARK VINA RESULT:      -4.6      3.471      4.793
REMARK  8 active torsions:
REMARK  status: ('A' for Active; 'I' for Inactive)
REMARK    1  A    between atoms: C_1  and  C_9 
REMARK    2  A    between atoms: C_1  and  C_20 
REMARK    3  A    between atoms: C_1  and  N_15 
REMARK    4  A    between atoms: N_6  and  C_19 
REMARK    5  A    between atoms: O_7  and  C_11 
REMARK    6  A    between atoms: C_9  and  S_17 
REMARK       I    between atoms: C_10  and  N_15 
REMARK    7  A    between atoms: C_10  and  C_19 
REMARK    8  A    between atoms: C_11  and  C_19 
ROOT
HETATM    1  H           1     -37.827  -0.711 -12.637  0.00  0.00     0.163 HD
HETATM    2  C           1     -36.210   0.281 -13.465  0.00  0.00     0.251 C 
HETATM    3  O           1     -35.167   0.844 -13.230  0.00  0.00    -0.271 OA
HETATM    4  N           1     -36.952  -0.241 -12.440  0.00  0.00    -0.344 N 
ENDROOT
BRANCH   2   5
HETATM    5  C           1     -36.696   0.155 -14.888  0.00  0.00     0.302 C 
BRANCH   5   6
HETATM    6  N           1     -36.144   1.285 -15.706  0.00  0.00    -0.064 N 
HETATM    7  H           1     -36.776   1.468 -16.518  0.00  0.00     0.275 HD
HETATM    8  H           1     -36.080   2.144 -15.115  0.00  0.00     0.275 HD
HETATM    9  H           1     -35.193   1.030 -16.054  0.00  0.00     0.275 HD
ENDBRANCH   5   6
BRANCH   5  10
HETATM   10  C           1     -36.223  -1.170 -15.470  0.00  0.00     0.153 C 
HETATM   11  C           1     -35.700  -0.946 -16.883  0.00  0.00     0.042 C 
BRANCH  10  12
HETATM   12  O           1     -35.197  -1.694 -14.671  0.00  0.00    -0.393 OA
HETATM   13  H           1     -34.876  -2.465 -15.107  0.00  0.00     0.210 HD
ENDBRANCH  10  12
ENDBRANCH   5  10
ENDBRANCH   2   5
BRANCH   4  14
HETATM   14  C           1     -36.486  -0.120 -11.072  0.00  0.00     0.194 C 
BRANCH  14  15
HETATM   15  C           1     -37.662   0.211 -10.163  0.00  0.00     0.106 C 
BRANCH  15  16
HETATM   16  S           1     -37.043   0.833  -8.574  0.00  0.00    -0.180 SA
HETATM   17  H           1     -37.713   1.999  -8.610  0.00  0.00     0.101 HD
ENDBRANCH  15  16
ENDBRANCH  14  15
BRANCH  14  18
HETATM   18  C           1     -35.863  -1.424 -10.637  0.00  0.00     0.197 C 
HETATM   19  O           1     -34.673  -1.451 -10.256  0.00  0.00    -0.646 OA
HETATM   20  O           1     -36.537  -2.476 -10.658  0.00  0.00    -0.646 OA
ENDBRANCH  14  18
ENDBRANCH   4  14
TORSDOF 8
ENDMDL
MODEL 9
REMARK VINA RESULT:      -4.3     14.593     16.380
REMARK  8 active torsions:
REMARK  status: ('A' for Active; 'I' for Inactive)
REMARK    1  A    between atoms: C_1  and  C_9 
REMARK    2  A    between atoms: C_1  and  C_20 
REMARK    3  A    between atoms: C_1  and  N_15 
REMARK    4  A    between atoms: N_6  and  C_19 
REMARK    5  A    between atoms: O_7  and  C_11 
REMARK    6  A    between atoms: C_9  and  S_17 
REMARK       I    between atoms: C_10  and  N_15 
REMARK    7  A    between atoms: C_10  and  C_19 
REMARK    8  A    between atoms: C_11  and  C_19 
ROOT
HETATM    1  H           1     -20.736  -4.921  -4.362  0.00  0.00     0.163 HD
HETATM    2  C           1     -20.919  -5.631  -6.297  0.00  0.00     0.251 C 
HETATM    3  O           1     -21.181  -6.593  -6.979  0.00  0.00    -0.271 OA
HETATM    4  N           1     -20.956  -5.728  -4.932  0.00  0.00    -0.344 N 
ENDROOT
BRANCH   2   5
HETATM    5  C           1     -20.549  -4.321  -6.950  0.00  0.00     0.302 C 
BRANCH   5   6
HETATM    6  N           1     -19.469  -4.556  -7.964  0.00  0.00    -0.064 N 
HETATM    7  H           1     -19.085  -3.638  -8.283  0.00  0.00     0.275 HD
HETATM    8  H           1     -18.704  -5.122  -7.533  0.00  0.00     0.275 HD
HETATM    9  H           1     -19.866  -5.072  -8.782  0.00  0.00     0.275 HD
ENDBRANCH   5   6
BRANCH   5  10
HETATM   10  C           1     -21.774  -3.734  -7.641  0.00  0.00     0.153 C 
HETATM   11  C           1     -21.708  -4.036  -9.132  0.00  0.00     0.042 C 
BRANCH  10  12
HETATM   12  O           1     -22.934  -4.305  -7.100  0.00  0.00    -0.393 OA
HETATM   13  H           1     -23.661  -3.976  -7.601  0.00  0.00     0.210 HD
ENDBRANCH  10  12
ENDBRANCH   5  10
ENDBRANCH   2   5
BRANCH   4  14
HETATM   14  C           1     -21.311  -6.986  -4.304  0.00  0.00     0.194 C 
BRANCH  14  15
HETATM   15  C           1     -20.147  -7.959  -4.424  0.00  0.00     0.106 C 
BRANCH  15  16
HETATM   16  S           1     -20.764  -9.579  -4.961  0.00  0.00    -0.180 SA
HETATM   17  H           1     -21.754  -9.659  -4.053  0.00  0.00     0.101 HD
ENDBRANCH  15  16
ENDBRANCH  14  15
BRANCH  14  18
HETATM   18  C           1     -21.622  -6.748  -2.846  0.00  0.00     0.197 C 
HETATM   19  O           1     -22.490  -5.909  -2.522  0.00  0.00    -0.646 OA
HETATM   20  O           1     -21.013  -7.391  -1.965  0.00  0.00    -0.646 OA
ENDBRANCH  14  18
ENDBRANCH   4  14
TORSDOF 8
ENDMDL
