MODEL 1
REMARK VINA RESULT:      -7.6      0.000      0.000
REMARK  8 active torsions:
REMARK  status: ('A' for Active; 'I' for Inactive)
REMARK    1  A    between atoms: C_3  and  C_5 
REMARK    2  A    between atoms: C_3  and  C_4 
REMARK    3  A    between atoms: C_3  and  N_19 
REMARK    4  A    between atoms: C_5  and  C_10 
REMARK       I    between atoms: C_13  and  N_19 
REMARK    5  A    between atoms: C_13  and  C_18 
REMARK    6  A    between atoms: N_16  and  C_18 
REMARK    7  A    between atoms: C_18  and  C_25 
REMARK    8  A    between atoms: O_22  and  C_23 
ROOT
HETATM    1  C           1     -35.811  -1.445 -12.097  0.00  0.00     0.189 C 
ENDROOT
BRANCH   1   2
HETATM    2  C           1     -34.378  -1.623 -11.615  0.00  0.00     0.074 C 
BRANCH   2   3
HETATM    3  C           1     -34.094  -3.079 -11.419  0.00  0.00    -0.056 A 
HETATM    4  C           1     -35.056  -3.906 -10.838  0.00  0.00     0.010 A 
HETATM    5  C           1     -34.792  -5.263 -10.655  0.00  0.00     0.037 A 
HETATM    6  C           1     -33.564  -5.794 -11.052  0.00  0.00     0.065 A 
HETATM    7  C           1     -32.602  -4.968 -11.633  0.00  0.00     0.037 A 
HETATM    8  C           1     -32.867  -3.611 -11.816  0.00  0.00     0.010 A 
BRANCH   6   9
HETATM    9  O           1     -33.307  -7.112 -10.874  0.00  0.00    -0.361 OA
HETATM   10  H           1     -32.983  -7.236  -9.966  0.00  0.00     0.217 HD
ENDBRANCH   6   9
ENDBRANCH   2   3
ENDBRANCH   1   2
BRANCH   1  11
HETATM   11  C           1     -36.653  -0.881 -10.979  0.00  0.00     0.197 C 
HETATM   12  O           1     -37.900  -0.946 -11.040  0.00  0.00    -0.646 OA
HETATM   13  O           1     -36.103  -0.347  -9.992  0.00  0.00    -0.646 OA
ENDBRANCH   1  11
BRANCH   1  14
HETATM   14  N           1     -35.832  -0.534 -13.224  0.00  0.00    -0.344 N 
HETATM   15  H           1     -36.128   0.425 -13.095  0.00  0.00     0.163 HD
HETATM   16  C           1     -35.451  -0.970 -14.465  0.00  0.00     0.249 C 
HETATM   17  O           1     -35.098  -2.115 -14.621  0.00  0.00    -0.271 OA
BRANCH  16  18
HETATM   18  C           1     -35.472  -0.021 -15.638  0.00  0.00     0.278 C 
BRANCH  18  19
HETATM   19  N           1     -35.883  -0.764 -16.874  0.00  0.00    -0.066 N 
HETATM   20  H           1     -35.031  -1.073 -17.394  0.00  0.00     0.275 HD
HETATM   21  H           1     -36.455  -0.137 -17.484  0.00  0.00     0.275 HD
HETATM   22  H           1     -36.451  -1.600 -16.606  0.00  0.00     0.275 HD
ENDBRANCH  18  19
BRANCH  18  23
HETATM   23  C           1     -36.466   1.100 -15.366  0.00  0.00     0.017 C 
HETATM   24  C           1     -36.066   2.338 -16.158  0.00  0.00     0.012 C 
HETATM   25  C           1     -37.860   0.657 -15.788  0.00  0.00     0.012 C 
ENDBRANCH  18  23
ENDBRANCH  16  18
ENDBRANCH   1  14
TORSDOF 8
ENDMDL
MODEL 2
REMARK VINA RESULT:      -6.8     15.710     17.802
REMARK  8 active torsions:
REMARK  status: ('A' for Active; 'I' for Inactive)
REMARK    1  A    between atoms: C_3  and  C_5 
REMARK    2  A    between atoms: C_3  and  C_4 
REMARK    3  A    between atoms: C_3  and  N_19 
REMARK    4  A    between atoms: C_5  and  C_10 
REMARK       I    between atoms: C_13  and  N_19 
REMARK    5  A    between atoms: C_13  and  C_18 
REMARK    6  A    between atoms: N_16  and  C_18 
REMARK    7  A    between atoms: C_18  and  C_25 
REMARK    8  A    between atoms: O_22  and  C_23 
ROOT
HETATM    1  C           1     -20.333  -7.818  -4.833  0.00  0.00     0.189 C 
ENDROOT
BRANCH   1   2
HETATM    2  C           1     -21.517  -8.637  -4.336  0.00  0.00     0.074 C 
BRANCH   2   3
HETATM    3  C           1     -21.690  -8.423  -2.865  0.00  0.00    -0.056 A 
HETATM    4  C           1     -21.664  -9.511  -1.993  0.00  0.00     0.010 A 
HETATM    5  C           1     -21.825  -9.312  -0.622  0.00  0.00     0.037 A 
HETATM    6  C           1     -22.015  -8.023  -0.123  0.00  0.00     0.065 A 
HETATM    7  C           1     -22.041  -6.934  -0.994  0.00  0.00     0.037 A 
HETATM    8  C           1     -21.880  -7.134  -2.365  0.00  0.00     0.010 A 
BRANCH   6   9
HETATM    9  O           1     -22.172  -7.829   1.209  0.00  0.00    -0.361 OA
HETATM   10  H           1     -22.945  -8.343   1.498  0.00  0.00     0.217 HD
ENDBRANCH   6   9
ENDBRANCH   2   3
ENDBRANCH   1   2
BRANCH   1  11
HETATM   11  C           1     -19.137  -8.719  -5.013  0.00  0.00     0.197 C 
HETATM   12  O           1     -18.806  -9.099  -6.158  0.00  0.00    -0.646 OA
HETATM   13  O           1     -18.476  -9.087  -4.019  0.00  0.00    -0.646 OA
ENDBRANCH   1  11
BRANCH   1  14
HETATM   14  N           1     -20.671  -7.204  -6.102  0.00  0.00    -0.344 N 
HETATM   15  H           1     -20.654  -7.754  -6.952  0.00  0.00     0.163 HD
HETATM   16  C           1     -21.012  -5.879  -6.153  0.00  0.00     0.249 C 
HETATM   17  O           1     -21.032  -5.221  -5.140  0.00  0.00    -0.271 OA
BRANCH  16  18
HETATM   18  C           1     -21.363  -5.240  -7.474  0.00  0.00     0.278 C 
BRANCH  18  19
HETATM   19  N           1     -21.920  -3.868  -7.234  0.00  0.00    -0.066 N 
HETATM   20  H           1     -22.650  -3.658  -7.952  0.00  0.00     0.275 HD
HETATM   21  H           1     -21.152  -3.164  -7.302  0.00  0.00     0.275 HD
HETATM   22  H           1     -22.346  -3.827  -6.281  0.00  0.00     0.275 HD
ENDBRANCH  18  19
BRANCH  18  23
HETATM   23  C           1     -20.112  -5.136  -8.336  0.00  0.00     0.017 C 
HETATM   24  C           1     -20.463  -4.482  -9.666  0.00  0.00     0.012 C 
HETATM   25  C           1     -19.069  -4.292  -7.617  0.00  0.00     0.012 C 
ENDBRANCH  18  23
ENDBRANCH  16  18
ENDBRANCH   1  14
TORSDOF 8
ENDMDL
MODEL 3
REMARK VINA RESULT:      -6.5      8.891     11.200
REMARK  8 active torsions:
REMARK  status: ('A' for Active; 'I' for Inactive)
REMARK    1  A    between atoms: C_3  and  C_5 
REMARK    2  A    between atoms: C_3  and  C_4 
REMARK    3  A    between atoms: C_3  and  N_19 
REMARK    4  A    between atoms: C_5  and  C_10 
REMARK       I    between atoms: C_13  and  N_19 
REMARK    5  A    between atoms: C_13  and  C_18 
REMARK    6  A    between atoms: N_16  and  C_18 
REMARK    7  A    between atoms: C_18  and  C_25 
REMARK    8  A    between atoms: O_22  and  C_23 
ROOT
HETATM    1  C           1     -26.693  -6.373 -16.683  0.00  0.00     0.189 C 
ENDROOT
BRANCH   1   2
HETATM    2  C           1     -27.722  -7.385 -16.198  0.00  0.00     0.074 C 
BRANCH   2   3
HETATM    3  C           1     -29.099  -6.844 -16.420  0.00  0.00    -0.056 A 
HETATM    4  C           1     -29.536  -5.732 -15.701  0.00  0.00     0.010 A 
HETATM    5  C           1     -30.820  -5.227 -15.908  0.00  0.00     0.037 A 
HETATM    6  C           1     -31.667  -5.835 -16.834  0.00  0.00     0.065 A 
HETATM    7  C           1     -31.230  -6.947 -17.554  0.00  0.00     0.037 A 
HETATM    8  C           1     -29.947  -7.451 -17.346  0.00  0.00     0.010 A 
BRANCH   6   9
HETATM    9  O           1     -32.914  -5.344 -17.035  0.00  0.00    -0.361 OA
HETATM   10  H           1     -33.542  -5.914 -16.558  0.00  0.00     0.217 HD
ENDBRANCH   6   9
ENDBRANCH   2   3
ENDBRANCH   1   2
BRANCH   1  11
HETATM   11  C           1     -25.471  -6.434 -15.799  0.00  0.00     0.197 C 
HETATM   12  O           1     -24.902  -5.378 -15.445  0.00  0.00    -0.646 OA
HETATM   13  O           1     -25.027  -7.539 -15.423  0.00  0.00    -0.646 OA
ENDBRANCH   1  11
BRANCH   1  14
HETATM   14  N           1     -26.318  -6.683 -18.048  0.00  0.00    -0.344 N 
HETATM   15  H           1     -25.565  -7.334 -18.232  0.00  0.00     0.163 HD
HETATM   16  C           1     -26.981  -6.093 -19.091  0.00  0.00     0.249 C 
HETATM   17  O           1     -27.879  -5.315 -18.874  0.00  0.00    -0.271 OA
BRANCH  16  18
HETATM   18  C           1     -26.590  -6.416 -20.513  0.00  0.00     0.278 C 
BRANCH  18  19
HETATM   19  N           1     -25.405  -5.586 -20.905  0.00  0.00    -0.066 N 
HETATM   20  H           1     -25.213  -5.712 -21.925  0.00  0.00     0.275 HD
HETATM   21  H           1     -24.570  -5.888 -20.354  0.00  0.00     0.275 HD
HETATM   22  H           1     -25.604  -4.579 -20.710  0.00  0.00     0.275 HD
ENDBRANCH  18  19
BRANCH  18  23
HETATM   23  C           1     -26.233  -7.893 -20.618  0.00  0.00     0.017 C 
HETATM   24  C           1     -27.398  -8.655 -21.237  0.00  0.00     0.012 C 
HETATM   25  C           1     -24.999  -8.055 -21.495  0.00  0.00     0.012 C 
ENDBRANCH  18  23
ENDBRANCH  16  18
ENDBRANCH   1  14
TORSDOF 8
ENDMDL
MODEL 4
REMARK VINA RESULT:      -6.5     14.499     17.023
REMARK  8 active torsions:
REMARK  status: ('A' for Active; 'I' for Inactive)
REMARK    1  A    between atoms: C_3  and  C_5 
REMARK    2  A    between atoms: C_3  and  C_4 
REMARK    3  A    between atoms: C_3  and  N_19 
REMARK    4  A    between atoms: C_5  and  C_10 
REMARK       I    between atoms: C_13  and  N_19 
REMARK    5  A    between atoms: C_13  and  C_18 
REMARK    6  A    between atoms: N_16  and  C_18 
REMARK    7  A    between atoms: C_18  and  C_25 
REMARK    8  A    between atoms: O_22  and  C_23 
ROOT
HETATM    1  C           1     -21.042  -6.233  -4.496  0.00  0.00     0.189 C 
ENDROOT
BRANCH   1   2
HETATM    2  C           1     -21.117  -5.688  -3.075  0.00  0.00     0.074 C 
BRANCH   2   3
HETATM    3  C           1     -21.278  -6.823  -2.113  0.00  0.00    -0.056 A 
HETATM    4  C           1     -22.301  -6.794  -1.165  0.00  0.00     0.010 A 
HETATM    5  C           1     -22.451  -7.851  -0.267  0.00  0.00     0.037 A 
HETATM    6  C           1     -21.576  -8.937  -0.317  0.00  0.00     0.065 A 
HETATM    7  C           1     -20.553  -8.966  -1.265  0.00  0.00     0.037 A 
HETATM    8  C           1     -20.404  -7.909  -2.162  0.00  0.00     0.010 A 
BRANCH   6   9
HETATM    9  O           1     -21.722  -9.963   0.555  0.00  0.00    -0.361 OA
HETATM   10  H           1     -22.673 -10.143   0.651  0.00  0.00     0.217 HD
ENDBRANCH   6   9
ENDBRANCH   2   3
ENDBRANCH   1   2
BRANCH   1  11
HETATM   11  C           1     -22.308  -6.992  -4.812  0.00  0.00     0.197 C 
HETATM   12  O           1     -22.267  -8.228  -4.993  0.00  0.00    -0.646 OA
HETATM   13  O           1     -23.396  -6.384  -4.894  0.00  0.00    -0.646 OA
ENDBRANCH   1  11
BRANCH   1  14
HETATM   14  N           1     -20.892  -5.133  -5.427  0.00  0.00    -0.344 N 
HETATM   15  H           1     -21.044  -4.182  -5.116  0.00  0.00     0.163 HD
HETATM   16  C           1     -20.547  -5.380  -6.729  0.00  0.00     0.249 C 
HETATM   17  O           1     -20.367  -6.515  -7.102  0.00  0.00    -0.271 OA
BRANCH  16  18
HETATM   18  C           1     -20.392  -4.234  -7.699  0.00  0.00     0.278 C 
BRANCH  18  19
HETATM   19  N           1     -18.947  -4.091  -8.076  0.00  0.00    -0.066 N 
HETATM   20  H           1     -18.755  -4.655  -8.935  0.00  0.00     0.275 HD
HETATM   21  H           1     -18.347  -4.434  -7.292  0.00  0.00     0.275 HD
HETATM   22  H           1     -18.734  -3.086  -8.264  0.00  0.00     0.275 HD
ENDBRANCH  18  19
BRANCH  18  23
HETATM   23  C           1     -21.218  -4.511  -8.948  0.00  0.00     0.017 C 
HETATM   24  C           1     -22.533  -3.746  -8.869  0.00  0.00     0.012 C 
HETATM   25  C           1     -20.443  -4.061 -10.179  0.00  0.00     0.012 C 
ENDBRANCH  18  23
ENDBRANCH  16  18
ENDBRANCH   1  14
TORSDOF 8
ENDMDL
MODEL 5
REMARK VINA RESULT:      -6.2     17.828     19.873
REMARK  8 active torsions:
REMARK  status: ('A' for Active; 'I' for Inactive)
REMARK    1  A    between atoms: C_3  and  C_5 
REMARK    2  A    between atoms: C_3  and  C_4 
REMARK    3  A    between atoms: C_3  and  N_19 
REMARK    4  A    between atoms: C_5  and  C_10 
REMARK       I    between atoms: C_13  and  N_19 
REMARK    5  A    between atoms: C_13  and  C_18 
REMARK    6  A    between atoms: N_16  and  C_18 
REMARK    7  A    between atoms: C_18  and  C_25 
REMARK    8  A    between atoms: O_22  and  C_23 
ROOT
HETATM    1  C           1     -21.637  -7.896  -2.200  0.00  0.00     0.189 C 
ENDROOT
BRANCH   1   2
HETATM    2  C           1     -21.480  -8.029  -0.691  0.00  0.00     0.074 C 
BRANCH   2   3
HETATM    3  C           1     -21.843  -9.419  -0.272  0.00  0.00    -0.056 A 
HETATM    4  C           1     -20.876 -10.254   0.287  0.00  0.00     0.010 A 
HETATM    5  C           1     -21.214 -11.550   0.678  0.00  0.00     0.037 A 
HETATM    6  C           1     -22.520 -12.011   0.509  0.00  0.00     0.065 A 
HETATM    7  C           1     -23.487 -11.175  -0.050  0.00  0.00     0.037 A 
HETATM    8  C           1     -23.149  -9.880  -0.440  0.00  0.00     0.010 A 
BRANCH   6   9
HETATM    9  O           1     -22.849 -13.269   0.888  0.00  0.00    -0.361 OA
HETATM   10  H           1     -22.080 -13.842   0.727  0.00  0.00     0.217 HD
ENDBRANCH   6   9
ENDBRANCH   2   3
ENDBRANCH   1   2
BRANCH   1  11
HETATM   11  C           1     -21.940  -6.459  -2.550  0.00  0.00     0.197 C 
HETATM   12  O           1     -21.748  -6.046  -3.714  0.00  0.00    -0.646 OA
HETATM   13  O           1     -22.381  -5.683  -1.676  0.00  0.00    -0.646 OA
ENDBRANCH   1  11
BRANCH   1  14
HETATM   14  N           1     -20.408  -8.303  -2.851  0.00  0.00    -0.344 N 
HETATM   15  H           1     -19.564  -7.757  -2.728  0.00  0.00     0.163 HD
HETATM   16  C           1     -20.387  -9.426  -3.635  0.00  0.00     0.249 C 
HETATM   17  O           1     -21.394 -10.077  -3.784  0.00  0.00    -0.271 OA
BRANCH  16  18
HETATM   18  C           1     -19.107  -9.849  -4.313  0.00  0.00     0.278 C 
BRANCH  18  19
HETATM   19  N           1     -18.901  -9.026  -5.549  0.00  0.00    -0.066 N 
HETATM   20  H           1     -18.844  -9.656  -6.381  0.00  0.00     0.275 HD
HETATM   21  H           1     -18.012  -8.484  -5.462  0.00  0.00     0.275 HD
HETATM   22  H           1     -19.701  -8.365  -5.665  0.00  0.00     0.275 HD
ENDBRANCH  18  19
BRANCH  18  23
HETATM   23  C           1     -17.936  -9.640  -3.362  0.00  0.00     0.017 C 
HETATM   24  C           1     -17.971 -10.702  -2.271  0.00  0.00     0.012 C 
HETATM   25  C           1     -16.629  -9.749  -4.135  0.00  0.00     0.012 C 
ENDBRANCH  18  23
ENDBRANCH  16  18
ENDBRANCH   1  14
TORSDOF 8
ENDMDL
MODEL 6
REMARK VINA RESULT:      -6.1     16.965     18.959
REMARK  8 active torsions:
REMARK  status: ('A' for Active; 'I' for Inactive)
REMARK    1  A    between atoms: C_3  and  C_5 
REMARK    2  A    between atoms: C_3  and  C_4 
REMARK    3  A    between atoms: C_3  and  N_19 
REMARK    4  A    between atoms: C_5  and  C_10 
REMARK       I    between atoms: C_13  and  N_19 
REMARK    5  A    between atoms: C_13  and  C_18 
REMARK    6  A    between atoms: N_16  and  C_18 
REMARK    7  A    between atoms: C_18  and  C_25 
REMARK    8  A    between atoms: O_22  and  C_23 
ROOT
HETATM    1  C           1     -21.915  -8.462  -1.341  0.00  0.00     0.189 C 
ENDROOT
BRANCH   1   2
HETATM    2  C           1     -21.108  -9.235  -0.306  0.00  0.00     0.074 C 
BRANCH   2   3
HETATM    3  C           1     -21.788 -10.534  -0.011  0.00  0.00    -0.056 A 
HETATM    4  C           1     -21.140 -11.502   0.756  0.00  0.00     0.010 A 
HETATM    5  C           1     -21.773 -12.714   1.032  0.00  0.00     0.037 A 
HETATM    6  C           1     -23.055 -12.959   0.538  0.00  0.00     0.065 A 
HETATM    7  C           1     -23.703 -11.991  -0.229  0.00  0.00     0.037 A 
HETATM    8  C           1     -23.070 -10.780  -0.503  0.00  0.00     0.010 A 
BRANCH   6   9
HETATM    9  O           1     -23.670 -14.136   0.806  0.00  0.00    -0.361 OA
HETATM   10  H           1     -23.184 -14.841   0.345  0.00  0.00     0.217 HD
ENDBRANCH   6   9
ENDBRANCH   2   3
ENDBRANCH   1   2
BRANCH   1  11
HETATM   11  C           1     -22.580  -7.278  -0.682  0.00  0.00     0.197 C 
HETATM   12  O           1     -23.309  -7.449   0.320  0.00  0.00    -0.646 OA
HETATM   13  O           1     -22.402  -6.129  -1.136  0.00  0.00    -0.646 OA
ENDBRANCH   1  11
BRANCH   1  14
HETATM   14  N           1     -21.032  -7.996  -2.392  0.00  0.00    -0.344 N 
HETATM   15  H           1     -20.347  -7.277  -2.197  0.00  0.00     0.163 HD
HETATM   16  C           1     -21.125  -8.528  -3.651  0.00  0.00     0.249 C 
HETATM   17  O           1     -21.943  -9.385  -3.886  0.00  0.00    -0.271 OA
BRANCH  16  18
HETATM   18  C           1     -20.206  -8.042  -4.745  0.00  0.00     0.278 C 
BRANCH  18  19
HETATM   19  N           1     -19.631  -9.220  -5.473  0.00  0.00    -0.066 N 
HETATM   20  H           1     -18.621  -9.045  -5.677  0.00  0.00     0.275 HD
HETATM   21  H           1     -20.147  -9.361  -6.371  0.00  0.00     0.275 HD
HETATM   22  H           1     -19.724 -10.076  -4.881  0.00  0.00     0.275 HD
ENDBRANCH  18  19
BRANCH  18  23
HETATM   23  C           1     -20.991  -7.176  -5.720  0.00  0.00     0.017 C 
HETATM   24  C           1     -21.968  -6.298  -4.949  0.00  0.00     0.012 C 
HETATM   25  C           1     -20.029  -6.294  -6.505  0.00  0.00     0.012 C 
ENDBRANCH  18  23
ENDBRANCH  16  18
ENDBRANCH   1  14
TORSDOF 8
ENDMDL
MODEL 7
REMARK VINA RESULT:      -6.0     17.400     19.029
REMARK  8 active torsions:
REMARK  status: ('A' for Active; 'I' for Inactive)
REMARK    1  A    between atoms: C_3  and  C_5 
REMARK    2  A    between atoms: C_3  and  C_4 
REMARK    3  A    between atoms: C_3  and  N_19 
REMARK    4  A    between atoms: C_5  and  C_10 
REMARK       I    between atoms: C_13  and  N_19 
REMARK    5  A    between atoms: C_13  and  C_18 
REMARK    6  A    between atoms: N_16  and  C_18 
REMARK    7  A    between atoms: C_18  and  C_25 
REMARK    8  A    between atoms: O_22  and  C_23 
ROOT
HETATM    1  C           1     -20.809  -8.519  -4.810  0.00  0.00     0.189 C 
ENDROOT
BRANCH   1   2
HETATM    2  C           1     -20.033  -8.298  -3.518  0.00  0.00     0.074 C 
BRANCH   2   3
HETATM    3  C           1     -20.991  -8.126  -2.382  0.00  0.00    -0.056 A 
HETATM    4  C           1     -21.526  -6.868  -2.104  0.00  0.00     0.010 A 
HETATM    5  C           1     -22.420  -6.707  -1.045  0.00  0.00     0.037 A 
HETATM    6  C           1     -22.778  -7.805  -0.263  0.00  0.00     0.065 A 
HETATM    7  C           1     -22.243  -9.063  -0.540  0.00  0.00     0.037 A 
HETATM    8  C           1     -21.350  -9.223  -1.599  0.00  0.00     0.010 A 
BRANCH   6   9
HETATM    9  O           1     -23.645  -7.650   0.766  0.00  0.00    -0.361 OA
HETATM   10  H           1     -23.485  -8.364   1.405  0.00  0.00     0.217 HD
ENDBRANCH   6   9
ENDBRANCH   2   3
ENDBRANCH   1   2
BRANCH   1  11
HETATM   11  C           1     -20.699  -7.291  -5.680  0.00  0.00     0.197 C 
HETATM   12  O           1     -19.767  -7.193  -6.508  0.00  0.00    -0.646 OA
HETATM   13  O           1     -21.540  -6.373  -5.574  0.00  0.00    -0.646 OA
ENDBRANCH   1  11
BRANCH   1  14
HETATM   14  N           1     -20.259  -9.661  -5.514  0.00  0.00    -0.344 N 
HETATM   15  H           1     -19.447  -9.547  -6.107  0.00  0.00     0.163 HD
HETATM   16  C           1     -20.840 -10.893  -5.378  0.00  0.00     0.249 C 
HETATM   17  O           1     -21.810 -11.030  -4.671  0.00  0.00    -0.271 OA
BRANCH  16  18
HETATM   18  C           1     -20.268 -12.082  -6.111  0.00  0.00     0.278 C 
BRANCH  18  19
HETATM   19  N           1     -21.192 -12.474  -7.225  0.00  0.00    -0.066 N 
HETATM   20  H           1     -20.637 -12.637  -8.096  0.00  0.00     0.275 HD
HETATM   21  H           1     -21.882 -11.708  -7.390  0.00  0.00     0.275 HD
HETATM   22  H           1     -21.699 -13.350  -6.965  0.00  0.00     0.275 HD
ENDBRANCH  18  19
BRANCH  18  23
HETATM   23  C           1     -18.906 -11.716  -6.686  0.00  0.00     0.017 C 
HETATM   24  C           1     -17.808 -12.281  -5.793  0.00  0.00     0.012 C 
HETATM   25  C           1     -18.772 -12.300  -8.085  0.00  0.00     0.012 C 
ENDBRANCH  18  23
ENDBRANCH  16  18
ENDBRANCH   1  14
TORSDOF 8
ENDMDL
MODEL 8
REMARK VINA RESULT:      -5.9     15.766     18.968
REMARK  8 active torsions:
REMARK  status: ('A' for Active; 'I' for Inactive)
REMARK    1  A    between atoms: C_3  and  C_5 
REMARK    2  A    between atoms: C_3  and  C_4 
REMARK    3  A    between atoms: C_3  and  N_19 
REMARK    4  A    between atoms: C_5  and  C_10 
REMARK       I    between atoms: C_13  and  N_19 
REMARK    5  A    between atoms: C_13  and  C_18 
REMARK    6  A    between atoms: N_16  and  C_18 
REMARK    7  A    between atoms: C_18  and  C_25 
REMARK    8  A    between atoms: O_22  and  C_23 
ROOT
HETATM    1  C           1     -20.575  -9.510  -4.733  0.00  0.00     0.189 C 
ENDROOT
BRANCH   1   2
HETATM    2  C           1     -19.686  -8.282  -4.876  0.00  0.00     0.074 C 
BRANCH   2   3
HETATM    3  C           1     -20.465  -7.170  -5.503  0.00  0.00    -0.056 A 
HETATM    4  C           1     -19.866  -6.352  -6.461  0.00  0.00     0.010 A 
HETATM    5  C           1     -20.593  -5.315  -7.047  0.00  0.00     0.037 A 
HETATM    6  C           1     -21.919  -5.095  -6.673  0.00  0.00     0.065 A 
HETATM    7  C           1     -22.518  -5.913  -5.715  0.00  0.00     0.037 A 
HETATM    8  C           1     -21.791  -6.950  -5.130  0.00  0.00     0.010 A 
BRANCH   6   9
HETATM    9  O           1     -22.625  -4.088  -7.241  0.00  0.00    -0.361 OA
HETATM   10  H           1     -23.054  -3.583  -6.530  0.00  0.00     0.217 HD
ENDBRANCH   6   9
ENDBRANCH   2   3
ENDBRANCH   1   2
BRANCH   1  11
HETATM   11  C           1     -19.992 -10.650  -5.531  0.00  0.00     0.197 C 
HETATM   12  O           1     -18.868 -11.109  -5.235  0.00  0.00    -0.646 OA
HETATM   13  O           1     -20.633 -11.135  -6.487  0.00  0.00    -0.646 OA
ENDBRANCH   1  11
BRANCH   1  14
HETATM   14  N           1     -20.654  -9.888  -3.336  0.00  0.00    -0.344 N 
HETATM   15  H           1     -19.863  -9.735  -2.724  0.00  0.00     0.163 HD
HETATM   16  C           1     -21.800 -10.455  -2.844  0.00  0.00     0.249 C 
HETATM   17  O           1     -22.744 -10.640  -3.574  0.00  0.00    -0.271 OA
BRANCH  16  18
HETATM   18  C           1     -21.882 -10.850  -1.390  0.00  0.00     0.278 C 
BRANCH  18  19
HETATM   19  N           1     -20.756 -10.209  -0.634  0.00  0.00    -0.066 N 
HETATM   20  H           1     -21.051 -10.042   0.355  0.00  0.00     0.275 HD
HETATM   21  H           1     -20.510  -9.298  -1.082  0.00  0.00     0.275 HD
HETATM   22  H           1     -19.923 -10.839  -0.648  0.00  0.00     0.275 HD
ENDBRANCH  18  19
BRANCH  18  23
HETATM   23  C           1     -23.211 -10.384  -0.812  0.00  0.00     0.017 C 
HETATM   24  C           1     -23.818 -11.498   0.031  0.00  0.00     0.012 C 
HETATM   25  C           1     -22.984  -9.156   0.059  0.00  0.00     0.012 C 
ENDBRANCH  18  23
ENDBRANCH  16  18
ENDBRANCH   1  14
TORSDOF 8
ENDMDL
MODEL 9
REMARK VINA RESULT:      -5.9     17.462     19.982
REMARK  8 active torsions:
REMARK  status: ('A' for Active; 'I' for Inactive)
REMARK    1  A    between atoms: C_3  and  C_5 
REMARK    2  A    between atoms: C_3  and  C_4 
REMARK    3  A    between atoms: C_3  and  N_19 
REMARK    4  A    between atoms: C_5  and  C_10 
REMARK       I    between atoms: C_13  and  N_19 
REMARK    5  A    between atoms: C_13  and  C_18 
REMARK    6  A    between atoms: N_16  and  C_18 
REMARK    7  A    between atoms: C_18  and  C_25 
REMARK    8  A    between atoms: O_22  and  C_23 
ROOT
HETATM    1  C           1     -21.040  -7.892  -3.064  0.00  0.00     0.189 C 
ENDROOT
BRANCH   1   2
HETATM    2  C           1     -20.780  -8.786  -4.269  0.00  0.00     0.074 C 
BRANCH   2   3
HETATM    3  C           1     -19.339  -9.187  -4.291  0.00  0.00    -0.056 A 
HETATM    4  C           1     -18.727  -9.527  -5.498  0.00  0.00     0.010 A 
HETATM    5  C           1     -17.384  -9.901  -5.519  0.00  0.00     0.037 A 
HETATM    6  C           1     -16.651  -9.937  -4.332  0.00  0.00     0.065 A 
HETATM    7  C           1     -17.262  -9.597  -3.126  0.00  0.00     0.037 A 
HETATM    8  C           1     -18.606  -9.223  -3.105  0.00  0.00     0.010 A 
BRANCH   6   9
HETATM    9  O           1     -15.346 -10.300  -4.353  0.00  0.00    -0.361 OA
HETATM   10  H           1     -14.808  -9.491  -4.305  0.00  0.00     0.217 HD
ENDBRANCH   6   9
ENDBRANCH   2   3
ENDBRANCH   1   2
BRANCH   1  11
HETATM   11  C           1     -21.761  -6.643  -3.511  0.00  0.00     0.197 C 
HETATM   12  O           1     -21.773  -6.326  -4.720  0.00  0.00    -0.646 OA
HETATM   13  O           1     -22.347  -5.926  -2.671  0.00  0.00    -0.646 OA
ENDBRANCH   1  11
BRANCH   1  14
HETATM   14  N           1     -21.858  -8.604  -2.102  0.00  0.00    -0.344 N 
HETATM   15  H           1     -22.684  -9.103  -2.410  0.00  0.00     0.163 HD
HETATM   16  C           1     -21.515  -8.600  -0.777  0.00  0.00     0.249 C 
HETATM   17  O           1     -20.531  -8.004  -0.409  0.00  0.00    -0.271 OA
BRANCH  16  18
HETATM   18  C           1     -22.367  -9.342   0.225  0.00  0.00     0.278 C 
BRANCH  18  19
HETATM   19  N           1     -23.641  -8.585   0.455  0.00  0.00    -0.066 N 
HETATM   20  H           1     -23.431  -7.563   0.525  0.00  0.00     0.275 HD
HETATM   21  H           1     -24.084  -8.911   1.343  0.00  0.00     0.275 HD
HETATM   22  H           1     -24.295  -8.753  -0.343  0.00  0.00     0.275 HD
ENDBRANCH  18  19
BRANCH  18  23
HETATM   23  C           1     -22.691 -10.729  -0.313  0.00  0.00     0.017 C 
HETATM   24  C           1     -21.914 -11.775   0.477  0.00  0.00     0.012 C 
HETATM   25  C           1     -24.183 -10.993  -0.172  0.00  0.00     0.012 C 
ENDBRANCH  18  23
ENDBRANCH  16  18
ENDBRANCH   1  14
TORSDOF 8
ENDMDL
