MODEL 1
REMARK VINA RESULT:      -6.0      0.000      0.000
REMARK  5 active torsions:
REMARK  status: ('A' for Active; 'I' for Inactive)
REMARK    1  A    between atoms: C_5  and  C_19 
REMARK    2  A    between atoms: N_8  and  C_18 
REMARK    3  A    between atoms: C_13  and  C_15 
REMARK       I    between atoms: N_16  and  C_17 
REMARK    4  A    between atoms: C_17  and  C_18 
REMARK    5  A    between atoms: C_18  and  C_19 
ROOT
HETATM    1  C           1     -20.109  -5.697  -7.711  0.00  0.00     0.038 C 
HETATM    2  O           1     -23.312  -5.333 -10.236  0.00  0.00    -0.271 OA
HETATM    3  C           1     -20.589  -3.537  -8.683  0.00  0.00     0.127 C 
HETATM    4  C           1     -19.448  -4.409  -8.189  0.00  0.00     0.022 C 
HETATM    5  C           1     -21.595  -5.490  -7.950  0.00  0.00     0.188 C 
HETATM    6  N           1     -21.641  -4.494  -9.017  0.00  0.00    -0.336 N 
HETATM    7  C           1     -22.485  -4.464 -10.093  0.00  0.00     0.251 C 
ENDROOT
BRANCH   7   8
HETATM    8  C           1     -22.383  -3.345 -11.101  0.00  0.00     0.284 C 
BRANCH   8   9
HETATM    9  N           1     -21.593  -3.813 -12.287  0.00  0.00    -0.066 N 
HETATM   10  H           1     -21.182  -4.752 -12.083  0.00  0.00     0.275 HD
HETATM   11  H           1     -22.222  -3.883 -13.118  0.00  0.00     0.275 HD
HETATM   12  H           1     -20.826  -3.133 -12.486  0.00  0.00     0.275 HD
ENDBRANCH   8   9
BRANCH   8  13
HETATM   13  C           1     -23.780  -2.938 -11.551  0.00  0.00     0.155 C 
BRANCH  13  14
HETATM   14  C           1     -23.860  -2.989 -13.057  0.00  0.00     0.175 C 
HETATM   15  O           1     -23.492  -2.007 -13.737  0.00  0.00    -0.648 OA
HETATM   16  O           1     -24.297  -4.014 -13.624  0.00  0.00    -0.648 OA
ENDBRANCH  13  14
ENDBRANCH   8  13
ENDBRANCH   7   8
BRANCH   5  17
HETATM   17  C           1     -22.273  -4.975  -6.704  0.00  0.00     0.196 C 
HETATM   18  O           1     -21.677  -5.012  -5.606  0.00  0.00    -0.646 OA
HETATM   19  O           1     -23.432  -4.510  -6.770  0.00  0.00    -0.646 OA
ENDBRANCH   5  17
TORSDOF 5
ENDMDL
MODEL 2
REMARK VINA RESULT:      -5.8     12.156     14.774
REMARK  5 active torsions:
REMARK  status: ('A' for Active; 'I' for Inactive)
REMARK    1  A    between atoms: C_5  and  C_19 
REMARK    2  A    between atoms: N_8  and  C_18 
REMARK    3  A    between atoms: C_13  and  C_15 
REMARK       I    between atoms: N_16  and  C_17 
REMARK    4  A    between atoms: C_17  and  C_18 
REMARK    5  A    between atoms: C_18  and  C_19 
ROOT
HETATM    1  C           1     -37.689  -0.245 -14.312  0.00  0.00     0.038 C 
HETATM    2  O           1     -34.529  -2.833 -14.017  0.00  0.00    -0.271 OA
HETATM    3  C           1     -36.278  -0.145 -12.352  0.00  0.00     0.127 C 
HETATM    4  C           1     -37.705   0.076 -12.821  0.00  0.00     0.022 C 
HETATM    5  C           1     -36.250  -0.625 -14.618  0.00  0.00     0.188 C 
HETATM    6  N           1     -35.728  -1.079 -13.332  0.00  0.00    -0.336 N 
HETATM    7  C           1     -34.905  -2.146 -13.096  0.00  0.00     0.251 C 
ENDROOT
BRANCH   7   8
HETATM    8  C           1     -34.466  -2.464 -11.688  0.00  0.00     0.284 C 
BRANCH   8   9
HETATM    9  N           1     -35.653  -2.903 -10.883  0.00  0.00    -0.066 N 
HETATM   10  H           1     -35.740  -3.944 -10.931  0.00  0.00     0.275 HD
HETATM   11  H           1     -35.526  -2.611  -9.888  0.00  0.00     0.275 HD
HETATM   12  H           1     -36.518  -2.463 -11.269  0.00  0.00     0.275 HD
ENDBRANCH   8   9
BRANCH   8  13
HETATM   13  C           1     -33.432  -3.582 -11.719  0.00  0.00     0.155 C 
BRANCH  13  14
HETATM   14  C           1     -34.087  -4.886 -11.337  0.00  0.00     0.175 C 
HETATM   15  O           1     -33.971  -5.328 -10.173  0.00  0.00    -0.648 OA
HETATM   16  O           1     -34.746  -5.526 -12.185  0.00  0.00    -0.648 OA
ENDBRANCH  13  14
ENDBRANCH   8  13
ENDBRANCH   7   8
BRANCH   5  17
HETATM   17  C           1     -35.475   0.568 -15.122  0.00  0.00     0.196 C 
HETATM   18  O           1     -36.040   1.425 -15.835  0.00  0.00    -0.646 OA
HETATM   19  O           1     -34.268   0.699 -14.826  0.00  0.00    -0.646 OA
ENDBRANCH   5  17
TORSDOF 5
ENDMDL
MODEL 3
REMARK VINA RESULT:      -5.5      2.002      2.873
REMARK  5 active torsions:
REMARK  status: ('A' for Active; 'I' for Inactive)
REMARK    1  A    between atoms: C_5  and  C_19 
REMARK    2  A    between atoms: N_8  and  C_18 
REMARK    3  A    between atoms: C_13  and  C_15 
REMARK       I    between atoms: N_16  and  C_17 
REMARK    4  A    between atoms: C_17  and  C_18 
REMARK    5  A    between atoms: C_18  and  C_19 
ROOT
HETATM    1  C           1     -21.733  -3.639  -7.697  0.00  0.00     0.038 C 
HETATM    2  O           1     -21.480  -2.403 -11.594  0.00  0.00    -0.271 OA
HETATM    3  C           1     -23.121  -4.717  -9.356  0.00  0.00     0.127 C 
HETATM    4  C           1     -23.081  -4.325  -7.889  0.00  0.00     0.022 C 
HETATM    5  C           1     -21.070  -3.681  -9.064  0.00  0.00     0.188 C 
HETATM    6  N           1     -22.192  -3.786  -9.992  0.00  0.00    -0.336 N 
HETATM    7  C           1     -22.342  -3.151 -11.195  0.00  0.00     0.251 C 
ENDROOT
BRANCH   7   8
HETATM    8  C           1     -23.581  -3.385 -12.023  0.00  0.00     0.284 C 
BRANCH   8   9
HETATM    9  N           1     -24.795  -3.249 -11.154  0.00  0.00    -0.066 N 
HETATM   10  H           1     -25.346  -2.413 -11.453  0.00  0.00     0.275 HD
HETATM   11  H           1     -25.387  -4.105 -11.246  0.00  0.00     0.275 HD
HETATM   12  H           1     -24.500  -3.133 -10.159  0.00  0.00     0.275 HD
ENDBRANCH   8   9
BRANCH   8  13
HETATM   13  C           1     -23.643  -2.357 -13.145  0.00  0.00     0.155 C 
BRANCH  13  14
HETATM   14  C           1     -23.405  -3.040 -14.470  0.00  0.00     0.175 C 
HETATM   15  O           1     -24.035  -4.080 -14.760  0.00  0.00    -0.648 OA
HETATM   16  O           1     -22.576  -2.565 -15.277  0.00  0.00    -0.648 OA
ENDBRANCH  13  14
ENDBRANCH   8  13
ENDBRANCH   7   8
BRANCH   5  17
HETATM   17  C           1     -20.160  -4.879  -9.183  0.00  0.00     0.196 C 
HETATM   18  O           1     -19.885  -5.558  -8.171  0.00  0.00    -0.646 OA
HETATM   19  O           1     -19.682  -5.191 -10.295  0.00  0.00    -0.646 OA
ENDBRANCH   5  17
TORSDOF 5
ENDMDL
MODEL 4
REMARK VINA RESULT:      -5.0      3.104      6.794
REMARK  5 active torsions:
REMARK  status: ('A' for Active; 'I' for Inactive)
REMARK    1  A    between atoms: C_5  and  C_19 
REMARK    2  A    between atoms: N_8  and  C_18 
REMARK    3  A    between atoms: C_13  and  C_15 
REMARK       I    between atoms: N_16  and  C_17 
REMARK    4  A    between atoms: C_17  and  C_18 
REMARK    5  A    between atoms: C_18  and  C_19 
ROOT
HETATM    1  C           1     -22.564  -4.841  -9.612  0.00  0.00     0.038 C 
HETATM    2  O           1     -20.496  -6.969  -6.789  0.00  0.00    -0.271 OA
HETATM    3  C           1     -22.558  -4.052  -7.327  0.00  0.00     0.127 C 
HETATM    4  C           1     -23.408  -4.092  -8.586  0.00  0.00     0.022 C 
HETATM    5  C           1     -21.272  -5.182  -8.888  0.00  0.00     0.188 C 
HETATM    6  N           1     -21.655  -5.190  -7.478  0.00  0.00    -0.336 N 
HETATM    7  C           1     -21.254  -6.070  -6.511  0.00  0.00     0.251 C 
ENDROOT
BRANCH   7   8
HETATM    8  C           1     -21.759  -5.918  -5.097  0.00  0.00     0.284 C 
BRANCH   8   9
HETATM    9  N           1     -23.209  -6.295  -5.041  0.00  0.00    -0.066 N 
HETATM   10  H           1     -23.487  -6.743  -5.944  0.00  0.00     0.275 HD
HETATM   11  H           1     -23.365  -6.967  -4.257  0.00  0.00     0.275 HD
HETATM   12  H           1     -23.786  -5.438  -4.886  0.00  0.00     0.275 HD
ENDBRANCH   8   9
BRANCH   8  13
HETATM   13  C           1     -20.963  -6.831  -4.173  0.00  0.00     0.155 C 
BRANCH  13  14
HETATM   14  C           1     -21.602  -6.848  -2.806  0.00  0.00     0.175 C 
HETATM   15  O           1     -21.534  -7.875  -2.096  0.00  0.00    -0.648 OA
HETATM   16  O           1     -22.201  -5.835  -2.384  0.00  0.00    -0.648 OA
ENDBRANCH  13  14
ENDBRANCH   8  13
ENDBRANCH   7   8
BRANCH   5  17
HETATM   17  C           1     -20.216  -4.137  -9.153  0.00  0.00     0.196 C 
HETATM   18  O           1     -19.356  -3.882  -8.282  0.00  0.00    -0.646 OA
HETATM   19  O           1     -20.201  -3.527 -10.243  0.00  0.00    -0.646 OA
ENDBRANCH   5  17
TORSDOF 5
ENDMDL
MODEL 5
REMARK VINA RESULT:      -4.9      6.601      9.138
REMARK  5 active torsions:
REMARK  status: ('A' for Active; 'I' for Inactive)
REMARK    1  A    between atoms: C_5  and  C_19 
REMARK    2  A    between atoms: N_8  and  C_18 
REMARK    3  A    between atoms: C_13  and  C_15 
REMARK       I    between atoms: N_16  and  C_17 
REMARK    4  A    between atoms: C_17  and  C_18 
REMARK    5  A    between atoms: C_18  and  C_19 
ROOT
HETATM    1  C           1     -21.044  -8.854   1.222  0.00  0.00     0.038 C 
HETATM    2  O           1     -19.811  -8.537  -2.670  0.00  0.00    -0.271 OA
HETATM    3  C           1     -22.655  -8.223  -0.465  0.00  0.00     0.127 C 
HETATM    4  C           1     -22.309  -8.032   1.002  0.00  0.00     0.022 C 
HETATM    5  C           1     -20.737  -9.477  -0.128  0.00  0.00     0.188 C 
HETATM    6  N           1     -21.379  -8.576  -1.082  0.00  0.00    -0.336 N 
HETATM    7  C           1     -20.892  -8.155  -2.289  0.00  0.00     0.251 C 
ENDROOT
BRANCH   7   8
HETATM    8  C           1     -21.705  -7.215  -3.145  0.00  0.00     0.284 C 
BRANCH   8   9
HETATM    9  N           1     -21.558  -5.816  -2.627  0.00  0.00    -0.066 N 
HETATM   10  H           1     -22.102  -5.714  -1.740  0.00  0.00     0.275 HD
HETATM   11  H           1     -20.550  -5.618  -2.440  0.00  0.00     0.275 HD
HETATM   12  H           1     -21.921  -5.141  -3.337  0.00  0.00     0.275 HD
ENDBRANCH   8   9
BRANCH   8  13
HETATM   13  C           1     -21.207  -7.278  -4.583  0.00  0.00     0.155 C 
BRANCH  13  14
HETATM   14  C           1     -21.377  -5.928  -5.236  0.00  0.00     0.175 C 
HETATM   15  O           1     -22.494  -5.582  -5.675  0.00  0.00    -0.648 OA
HETATM   16  O           1     -20.398  -5.156  -5.337  0.00  0.00    -0.648 OA
ENDBRANCH  13  14
ENDBRANCH   8  13
ENDBRANCH   7   8
BRANCH   5  17
HETATM   17  C           1     -21.321 -10.866  -0.224  0.00  0.00     0.196 C 
HETATM   18  O           1     -21.655 -11.477   0.814  0.00  0.00    -0.646 OA
HETATM   19  O           1     -21.471 -11.404  -1.342  0.00  0.00    -0.646 OA
ENDBRANCH   5  17
TORSDOF 5
ENDMDL
MODEL 6
REMARK VINA RESULT:      -4.8      4.260      6.198
REMARK  5 active torsions:
REMARK  status: ('A' for Active; 'I' for Inactive)
REMARK    1  A    between atoms: C_5  and  C_19 
REMARK    2  A    between atoms: N_8  and  C_18 
REMARK    3  A    between atoms: C_13  and  C_15 
REMARK       I    between atoms: N_16  and  C_17 
REMARK    4  A    between atoms: C_17  and  C_18 
REMARK    5  A    between atoms: C_18  and  C_19 
ROOT
HETATM    1  C           1     -20.569  -7.932  -1.808  0.00  0.00     0.038 C 
HETATM    2  O           1     -19.685  -7.599  -5.793  0.00  0.00    -0.271 OA
HETATM    3  C           1     -22.046  -6.651  -3.228  0.00  0.00     0.127 C 
HETATM    4  C           1     -21.516  -6.737  -1.807  0.00  0.00     0.022 C 
HETATM    5  C           1     -20.613  -8.471  -3.228  0.00  0.00     0.188 C 
HETATM    6  N           1     -21.019  -7.317  -4.025  0.00  0.00    -0.336 N 
HETATM    7  C           1     -20.542  -6.942  -5.252  0.00  0.00     0.251 C 
ENDROOT
BRANCH   7   8
HETATM    8  C           1     -21.087  -5.708  -5.929  0.00  0.00     0.284 C 
BRANCH   8   9
HETATM    9  N           1     -20.269  -4.517  -5.528  0.00  0.00    -0.066 N 
HETATM   10  H           1     -20.813  -3.643  -5.713  0.00  0.00     0.275 HD
HETATM   11  H           1     -20.044  -4.576  -4.510  0.00  0.00     0.275 HD
HETATM   12  H           1     -19.384  -4.500  -6.082  0.00  0.00     0.275 HD
ENDBRANCH   8   9
BRANCH   8  13
HETATM   13  C           1     -21.018  -5.886  -7.440  0.00  0.00     0.155 C 
BRANCH  13  14
HETATM   14  C           1     -20.856  -4.538  -8.100  0.00  0.00     0.175 C 
HETATM   15  O           1     -21.809  -3.730  -8.115  0.00  0.00    -0.648 OA
HETATM   16  O           1     -19.767  -4.231  -8.631  0.00  0.00    -0.648 OA
ENDBRANCH  13  14
ENDBRANCH   8  13
ENDBRANCH   7   8
BRANCH   5  17
HETATM   17  C           1     -21.620  -9.588  -3.347  0.00  0.00     0.196 C 
HETATM   18  O           1     -21.897 -10.064  -4.469  0.00  0.00    -0.646 OA
HETATM   19  O           1     -22.177 -10.039  -2.322  0.00  0.00    -0.646 OA
ENDBRANCH   5  17
TORSDOF 5
ENDMDL
MODEL 7
REMARK VINA RESULT:      -4.7      9.293     12.342
REMARK  5 active torsions:
REMARK  status: ('A' for Active; 'I' for Inactive)
REMARK    1  A    between atoms: C_5  and  C_19 
REMARK    2  A    between atoms: N_8  and  C_18 
REMARK    3  A    between atoms: C_13  and  C_15 
REMARK       I    between atoms: N_16  and  C_17 
REMARK    4  A    between atoms: C_17  and  C_18 
REMARK    5  A    between atoms: C_18  and  C_19 
ROOT
HETATM    1  C           1     -20.495  -7.916  -2.065  0.00  0.00     0.038 C 
HETATM    2  O           1     -20.932 -10.325   1.219  0.00  0.00    -0.271 OA
HETATM    3  C           1     -22.003  -9.800  -2.192  0.00  0.00     0.127 C 
HETATM    4  C           1     -21.069  -8.946  -3.031  0.00  0.00     0.022 C 
HETATM    5  C           1     -21.137  -8.231  -0.724  0.00  0.00     0.188 C 
HETATM    6  N           1     -21.493  -9.643  -0.832  0.00  0.00    -0.336 N 
HETATM    7  C           1     -21.375 -10.608   0.131  0.00  0.00     0.251 C 
ENDROOT
BRANCH   7   8
HETATM    8  C           1     -21.798 -12.026  -0.165  0.00  0.00     0.284 C 
BRANCH   8   9
HETATM    9  N           1     -20.850 -12.979   0.500  0.00  0.00    -0.066 N 
HETATM   10  H           1     -21.349 -13.489   1.264  0.00  0.00     0.275 HD
HETATM   11  H           1     -20.496 -13.666  -0.203  0.00  0.00     0.275 HD
HETATM   12  H           1     -20.047 -12.446   0.904  0.00  0.00     0.275 HD
ENDBRANCH   8   9
BRANCH   8  13
HETATM   13  C           1     -23.206 -12.257   0.366  0.00  0.00     0.155 C 
BRANCH  13  14
HETATM   14  C           1     -23.290 -13.627   0.994  0.00  0.00     0.175 C 
HETATM   15  O           1     -23.283 -13.747   2.238  0.00  0.00    -0.648 OA
HETATM   16  O           1     -23.367 -14.643   0.268  0.00  0.00    -0.648 OA
ENDBRANCH  13  14
ENDBRANCH   8  13
ENDBRANCH   7   8
BRANCH   5  17
HETATM   17  C           1     -22.366  -7.382  -0.505  0.00  0.00     0.196 C 
HETATM   18  O           1     -23.204  -7.708   0.363  0.00  0.00    -0.646 OA
HETATM   19  O           1     -22.544  -6.353  -1.191  0.00  0.00    -0.646 OA
ENDBRANCH   5  17
TORSDOF 5
ENDMDL
MODEL 8
REMARK VINA RESULT:      -4.6      5.146      7.680
REMARK  5 active torsions:
REMARK  status: ('A' for Active; 'I' for Inactive)
REMARK    1  A    between atoms: C_5  and  C_19 
REMARK    2  A    between atoms: N_8  and  C_18 
REMARK    3  A    between atoms: C_13  and  C_15 
REMARK       I    between atoms: N_16  and  C_17 
REMARK    4  A    between atoms: C_17  and  C_18 
REMARK    5  A    between atoms: C_18  and  C_19 
ROOT
HETATM    1  C           1     -22.295 -10.232  -1.728  0.00  0.00     0.038 C 
HETATM    2  O           1     -21.313  -6.456  -2.976  0.00  0.00    -0.271 OA
HETATM    3  C           1     -21.793  -9.868  -4.064  0.00  0.00     0.127 C 
HETATM    4  C           1     -22.631 -10.725  -3.131  0.00  0.00     0.022 C 
HETATM    5  C           1     -21.276  -9.123  -1.932  0.00  0.00     0.188 C 
HETATM    6  N           1     -21.538  -8.655  -3.290  0.00  0.00    -0.336 N 
HETATM    7  C           1     -21.545  -7.363  -3.740  0.00  0.00     0.251 C 
ENDROOT
BRANCH   7   8
HETATM    8  C           1     -21.840  -7.070  -5.191  0.00  0.00     0.284 C 
BRANCH   8   9
HETATM    9  N           1     -22.813  -5.933  -5.282  0.00  0.00    -0.066 N 
HETATM   10  H           1     -22.403  -5.087  -4.824  0.00  0.00     0.275 HD
HETATM   11  H           1     -23.010  -5.723  -6.286  0.00  0.00     0.275 HD
HETATM   12  H           1     -23.701  -6.195  -4.799  0.00  0.00     0.275 HD
ENDBRANCH   8   9
BRANCH   8  13
HETATM   13  C           1     -20.549  -6.692  -5.905  0.00  0.00     0.155 C 
BRANCH  13  14
HETATM   14  C           1     -20.525  -5.202  -6.149  0.00  0.00     0.175 C 
HETATM   15  O           1     -20.951  -4.738  -7.228  0.00  0.00    -0.648 OA
HETATM   16  O           1     -20.077  -4.433  -5.271  0.00  0.00    -0.648 OA
ENDBRANCH  13  14
ENDBRANCH   8  13
ENDBRANCH   7   8
BRANCH   5  17
HETATM   17  C           1     -19.870  -9.657  -1.810  0.00  0.00     0.196 C 
HETATM   18  O           1     -19.659 -10.732  -1.208  0.00  0.00    -0.646 OA
HETATM   19  O           1     -18.916  -9.024  -2.311  0.00  0.00    -0.646 OA
ENDBRANCH   5  17
TORSDOF 5
ENDMDL
MODEL 9
REMARK VINA RESULT:      -4.5      8.598      9.971
REMARK  5 active torsions:
REMARK  status: ('A' for Active; 'I' for Inactive)
REMARK    1  A    between atoms: C_5  and  C_19 
REMARK    2  A    between atoms: N_8  and  C_18 
REMARK    3  A    between atoms: C_13  and  C_15 
REMARK       I    between atoms: N_16  and  C_17 
REMARK    4  A    between atoms: C_17  and  C_18 
REMARK    5  A    between atoms: C_18  and  C_19 
ROOT
HETATM    1  C           1     -22.182  -8.455   0.584  0.00  0.00     0.038 C 
HETATM    2  O           1     -19.495 -10.733  -1.504  0.00  0.00    -0.271 OA
HETATM    3  C           1     -21.793  -7.956  -1.748  0.00  0.00     0.127 C 
HETATM    4  C           1     -22.159  -7.310  -0.423  0.00  0.00     0.022 C 
HETATM    5  C           1     -21.836  -9.696  -0.220  0.00  0.00     0.188 C 
HETATM    6  N           1     -21.087  -9.175  -1.360  0.00  0.00    -0.336 N 
HETATM    7  C           1     -19.969  -9.710  -1.939  0.00  0.00     0.251 C 
ENDROOT
BRANCH   7   8
HETATM    8  C           1     -19.328  -9.024  -3.121  0.00  0.00     0.284 C 
BRANCH   8   9
HETATM    9  N           1     -17.853  -9.294  -3.114  0.00  0.00    -0.066 N 
HETATM   10  H           1     -17.384  -8.646  -2.441  0.00  0.00     0.275 HD
HETATM   11  H           1     -17.682 -10.282  -2.821  0.00  0.00     0.275 HD
HETATM   12  H           1     -17.467  -9.141  -4.072  0.00  0.00     0.275 HD
ENDBRANCH   8   9
BRANCH   8  13
HETATM   13  C           1     -19.936  -9.560  -4.410  0.00  0.00     0.155 C 
BRANCH  13  14
HETATM   14  C           1     -18.844 -10.122  -5.287  0.00  0.00     0.175 C 
HETATM   15  O           1     -18.481 -11.310  -5.151  0.00  0.00    -0.648 OA
HETATM   16  O           1     -18.302  -9.398  -6.151  0.00  0.00    -0.648 OA
ENDBRANCH  13  14
ENDBRANCH   8  13
ENDBRANCH   7   8
BRANCH   5  17
HETATM   17  C           1     -23.086 -10.406  -0.677  0.00  0.00     0.196 C 
HETATM   18  O           1     -24.124 -10.357   0.019  0.00  0.00    -0.646 OA
HETATM   19  O           1     -23.085 -11.044  -1.752  0.00  0.00    -0.646 OA
ENDBRANCH   5  17
TORSDOF 5
ENDMDL
