MODEL 1
REMARK VINA RESULT:      -7.2      0.000      0.000
REMARK  10 active torsions:
REMARK  status: ('A' for Active; 'I' for Inactive)
REMARK    1  A    between atoms: C_2  and  C_21 
REMARK    2  A    between atoms: C_2  and  C_3 
REMARK    3  A    between atoms: C_3  and  C_23 
REMARK    4  A    between atoms: C_3  and  N_14 
REMARK    5  A    between atoms: C_4  and  C_15 
REMARK    6  A    between atoms: C_4  and  C_5 
REMARK       I    between atoms: N_14  and  C_22 
REMARK    7  A    between atoms: C_15  and  C_22 
REMARK    8  A    between atoms: C_15  and  N_18 
REMARK    9  A    between atoms: C_17  and  O_19 
REMARK   10  A    between atoms: C_21  and  Se_26 
ROOT
HETATM    1  C           1     -21.046  -5.728  -6.790  0.00  0.00     0.278 C 
ENDROOT
BRANCH   1   2
HETATM    2  C           1     -20.841  -5.233  -5.364  0.00  0.00     0.081 C 
BRANCH   2   3
HETATM    3  C           1     -21.127  -6.346  -4.403  0.00  0.00    -0.056 A 
HETATM    4  C           1     -21.304  -6.069  -3.048  0.00  0.00     0.010 A 
HETATM    5  C           1     -21.572  -7.105  -2.153  0.00  0.00     0.037 A 
HETATM    6  C           1     -21.662  -8.418  -2.614  0.00  0.00     0.065 A 
HETATM    7  C           1     -21.486  -8.695  -3.969  0.00  0.00     0.037 A 
HETATM    8  C           1     -21.218  -7.659  -4.865  0.00  0.00     0.010 A 
BRANCH   6   9
HETATM    9  O           1     -21.922  -9.424  -1.745  0.00  0.00    -0.361 OA
HETATM   10  H           1     -22.877  -9.424  -1.562  0.00  0.00     0.217 HD
ENDBRANCH   6   9
ENDBRANCH   2   3
ENDBRANCH   1   2
BRANCH   1  11
HETATM   11  C           1     -21.587  -4.604  -7.639  0.00  0.00     0.249 C 
HETATM   12  O           1     -21.557  -3.468  -7.228  0.00  0.00    -0.271 OA
HETATM   13  N           1     -22.114  -4.871  -8.874  0.00  0.00    -0.345 N 
HETATM   14  H           1     -22.139  -5.823  -9.217  0.00  0.00     0.163 HD
BRANCH  13  15
HETATM   15  C           1     -22.634  -3.792  -9.691  0.00  0.00     0.185 C 
BRANCH  15  16
HETATM   16  C           1     -22.109  -3.932 -11.113  0.00  0.00     0.036 C 
BRANCH  16  17
HETATM   17  C           1     -22.533  -2.721 -11.933  0.00  0.00     0.003 C 
BRANCH  17  18
HETATM   18 Se           1     -23.879  -3.256 -13.237  0.00  0.00     0.000 Se
HETATM   19  C           1     -22.994  -2.401 -14.748  0.00  0.00     0.000 C 
ENDBRANCH  17  18
ENDBRANCH  16  17
ENDBRANCH  15  16
BRANCH  15  20
HETATM   20  C           1     -24.142  -3.854  -9.703  0.00  0.00     0.196 C 
HETATM   21  O           1     -24.812  -2.837  -9.420  0.00  0.00    -0.646 OA
HETATM   22  O           1     -24.720  -4.923  -9.995  0.00  0.00    -0.646 OA
ENDBRANCH  15  20
ENDBRANCH  13  15
ENDBRANCH   1  11
BRANCH   1  23
HETATM   23  N           1     -19.734  -6.190  -7.351  0.00  0.00    -0.066 N 
HETATM   24  H           1     -19.801  -6.247  -8.393  0.00  0.00     0.275 HD
HETATM   25  H           1     -18.985  -5.511  -7.088  0.00  0.00     0.275 HD
HETATM   26  H           1     -19.502  -7.133  -6.965  0.00  0.00     0.275 HD
ENDBRANCH   1  23
TORSDOF 10
ENDMDL
MODEL 2
REMARK VINA RESULT:      -7.0      3.797      8.527
REMARK  10 active torsions:
REMARK  status: ('A' for Active; 'I' for Inactive)
REMARK    1  A    between atoms: C_2  and  C_21 
REMARK    2  A    between atoms: C_2  and  C_3 
REMARK    3  A    between atoms: C_3  and  C_23 
REMARK    4  A    between atoms: C_3  and  N_14 
REMARK    5  A    between atoms: C_4  and  C_15 
REMARK    6  A    between atoms: C_4  and  C_5 
REMARK       I    between atoms: N_14  and  C_22 
REMARK    7  A    between atoms: C_15  and  C_22 
REMARK    8  A    between atoms: C_15  and  N_18 
REMARK    9  A    between atoms: C_17  and  O_19 
REMARK   10  A    between atoms: C_21  and  Se_26 
ROOT
HETATM    1  C           1     -22.223  -5.136  -6.937  0.00  0.00     0.278 C 
ENDROOT
BRANCH   1   2
HETATM    2  C           1     -21.636  -3.822  -7.435  0.00  0.00     0.081 C 
BRANCH   2   3
HETATM    3  C           1     -21.667  -3.796  -8.932  0.00  0.00    -0.056 A 
HETATM    4  C           1     -22.861  -3.524  -9.599  0.00  0.00     0.010 A 
HETATM    5  C           1     -22.891  -3.499 -10.994  0.00  0.00     0.037 A 
HETATM    6  C           1     -21.726  -3.746 -11.720  0.00  0.00     0.065 A 
HETATM    7  C           1     -20.532  -4.017 -11.053  0.00  0.00     0.037 A 
HETATM    8  C           1     -20.502  -4.042  -9.658  0.00  0.00     0.010 A 
BRANCH   6   9
HETATM    9  O           1     -21.754  -3.722 -13.075  0.00  0.00    -0.361 OA
HETATM   10  H           1     -21.031  -3.148 -13.380  0.00  0.00     0.217 HD
ENDBRANCH   6   9
ENDBRANCH   2   3
ENDBRANCH   1   2
BRANCH   1  11
HETATM   11  C           1     -21.362  -5.682  -5.824  0.00  0.00     0.249 C 
HETATM   12  O           1     -20.517  -4.984  -5.316  0.00  0.00    -0.271 OA
HETATM   13  N           1     -21.538  -6.969  -5.391  0.00  0.00    -0.345 N 
HETATM   14  H           1     -22.245  -7.553  -5.817  0.00  0.00     0.163 HD
BRANCH  13  15
HETATM   15  C           1     -20.711  -7.494  -4.322  0.00  0.00     0.185 C 
BRANCH  15  16
HETATM   16  C           1     -21.600  -8.078  -3.232  0.00  0.00     0.036 C 
BRANCH  16  17
HETATM   17  C           1     -21.523  -7.201  -1.990  0.00  0.00     0.003 C 
BRANCH  17  18
HETATM   18 Se           1     -21.217  -8.318  -0.422  0.00  0.00     0.000 Se
HETATM   19  C           1     -22.981  -8.008   0.347  0.00  0.00     0.000 C 
ENDBRANCH  17  18
ENDBRANCH  16  17
ENDBRANCH  15  16
BRANCH  15  20
HETATM   20  C           1     -19.810  -8.575  -4.869  0.00  0.00     0.196 C 
HETATM   21  O           1     -19.666  -9.645  -4.240  0.00  0.00    -0.646 OA
HETATM   22  O           1     -19.210  -8.399  -5.951  0.00  0.00    -0.646 OA
ENDBRANCH  15  20
ENDBRANCH  13  15
ENDBRANCH   1  11
BRANCH   1  23
HETATM   23  N           1     -23.611  -4.899  -6.423  0.00  0.00    -0.066 N 
HETATM   24  H           1     -23.585  -4.180  -5.665  0.00  0.00     0.275 HD
HETATM   25  H           1     -24.218  -4.559  -7.203  0.00  0.00     0.275 HD
HETATM   26  H           1     -24.000  -5.791  -6.042  0.00  0.00     0.275 HD
ENDBRANCH   1  23
TORSDOF 10
ENDMDL
MODEL 3
REMARK VINA RESULT:      -7.0      3.484      8.360
REMARK  10 active torsions:
REMARK  status: ('A' for Active; 'I' for Inactive)
REMARK    1  A    between atoms: C_2  and  C_21 
REMARK    2  A    between atoms: C_2  and  C_3 
REMARK    3  A    between atoms: C_3  and  C_23 
REMARK    4  A    between atoms: C_3  and  N_14 
REMARK    5  A    between atoms: C_4  and  C_15 
REMARK    6  A    between atoms: C_4  and  C_5 
REMARK       I    between atoms: N_14  and  C_22 
REMARK    7  A    between atoms: C_15  and  C_22 
REMARK    8  A    between atoms: C_15  and  N_18 
REMARK    9  A    between atoms: C_17  and  O_19 
REMARK   10  A    between atoms: C_21  and  Se_26 
ROOT
HETATM    1  C           1     -21.826  -4.412  -7.265  0.00  0.00     0.278 C 
ENDROOT
BRANCH   1   2
HETATM    2  C           1     -21.327  -4.864  -8.631  0.00  0.00     0.081 C 
BRANCH   2   3
HETATM    3  C           1     -22.152  -4.223  -9.703  0.00  0.00    -0.056 A 
HETATM    4  C           1     -21.535  -3.699 -10.838  0.00  0.00     0.010 A 
HETATM    5  C           1     -22.304  -3.101 -11.838  0.00  0.00     0.037 A 
HETATM    6  C           1     -23.690  -3.029 -11.701  0.00  0.00     0.065 A 
HETATM    7  C           1     -24.307  -3.554 -10.566  0.00  0.00     0.037 A 
HETATM    8  C           1     -23.539  -4.152  -9.567  0.00  0.00     0.010 A 
BRANCH   6   9
HETATM    9  O           1     -24.437  -2.449 -12.671  0.00  0.00    -0.361 OA
HETATM   10  H           1     -24.354  -2.989 -13.477  0.00  0.00     0.217 HD
ENDBRANCH   6   9
ENDBRANCH   2   3
ENDBRANCH   1   2
BRANCH   1  11
HETATM   11  C           1     -21.072  -5.148  -6.184  0.00  0.00     0.249 C 
HETATM   12  O           1     -20.044  -4.689  -5.746  0.00  0.00    -0.271 OA
HETATM   13  N           1     -21.553  -6.335  -5.702  0.00  0.00    -0.345 N 
HETATM   14  H           1     -22.414  -6.719  -6.070  0.00  0.00     0.163 HD
BRANCH  13  15
HETATM   15  C           1     -20.829  -7.043  -4.664  0.00  0.00     0.185 C 
BRANCH  15  16
HETATM   16  C           1     -21.794  -7.449  -3.559  0.00  0.00     0.036 C 
BRANCH  16  17
HETATM   17  C           1     -21.862  -6.345  -2.512  0.00  0.00     0.003 C 
BRANCH  17  18
HETATM   18 Se           1     -22.258  -7.123  -0.770  0.00  0.00     0.000 Se
HETATM   19  C           1     -21.890  -8.956  -1.321  0.00  0.00     0.000 C 
ENDBRANCH  17  18
ENDBRANCH  16  17
ENDBRANCH  15  16
BRANCH  15  20
HETATM   20  C           1     -20.188  -8.277  -5.251  0.00  0.00     0.196 C 
HETATM   21  O           1     -20.609  -9.410  -4.935  0.00  0.00    -0.646 OA
HETATM   22  O           1     -19.236  -8.164  -6.054  0.00  0.00    -0.646 OA
ENDBRANCH  15  20
ENDBRANCH  13  15
ENDBRANCH   1  11
BRANCH   1  23
HETATM   23  N           1     -21.601  -2.937  -7.115  0.00  0.00    -0.066 N 
HETATM   24  H           1     -22.195  -2.421  -7.803  0.00  0.00     0.275 HD
HETATM   25  H           1     -21.857  -2.643  -6.145  0.00  0.00     0.275 HD
HETATM   26  H           1     -20.594  -2.718  -7.292  0.00  0.00     0.275 HD
ENDBRANCH   1  23
TORSDOF 10
ENDMDL
MODEL 4
REMARK VINA RESULT:      -6.6     12.612     14.258
REMARK  10 active torsions:
REMARK  status: ('A' for Active; 'I' for Inactive)
REMARK    1  A    between atoms: C_2  and  C_21 
REMARK    2  A    between atoms: C_2  and  C_3 
REMARK    3  A    between atoms: C_3  and  C_23 
REMARK    4  A    between atoms: C_3  and  N_14 
REMARK    5  A    between atoms: C_4  and  C_15 
REMARK    6  A    between atoms: C_4  and  C_5 
REMARK       I    between atoms: N_14  and  C_22 
REMARK    7  A    between atoms: C_15  and  C_22 
REMARK    8  A    between atoms: C_15  and  N_18 
REMARK    9  A    between atoms: C_17  and  O_19 
REMARK   10  A    between atoms: C_21  and  Se_26 
ROOT
HETATM    1  C           1     -33.930  -3.361 -11.674  0.00  0.00     0.278 C 
ENDROOT
BRANCH   1   2
HETATM    2  C           1     -34.960  -4.040 -10.781  0.00  0.00     0.081 C 
BRANCH   2   3
HETATM    3  C           1     -34.545  -5.457 -10.527  0.00  0.00    -0.056 A 
HETATM    4  C           1     -35.364  -6.298  -9.775  0.00  0.00     0.010 A 
HETATM    5  C           1     -34.978  -7.618  -9.538  0.00  0.00     0.037 A 
HETATM    6  C           1     -33.774  -8.095 -10.055  0.00  0.00     0.065 A 
HETATM    7  C           1     -32.955  -7.254 -10.808  0.00  0.00     0.037 A 
HETATM    8  C           1     -33.341  -5.934 -11.044  0.00  0.00     0.010 A 
BRANCH   6   9
HETATM    9  O           1     -33.399  -9.377  -9.826  0.00  0.00    -0.361 OA
HETATM   10  H           1     -32.483  -9.368  -9.500  0.00  0.00     0.217 HD
ENDBRANCH   6   9
ENDBRANCH   2   3
ENDBRANCH   1   2
BRANCH   1  11
HETATM   11  C           1     -34.638  -2.569 -12.746  0.00  0.00     0.249 C 
HETATM   12  O           1     -34.623  -2.956 -13.891  0.00  0.00    -0.271 OA
HETATM   13  N           1     -35.295  -1.413 -12.422  0.00  0.00    -0.345 N 
HETATM   14  H           1     -35.306  -1.090 -11.463  0.00  0.00     0.163 HD
BRANCH  13  15
HETATM   15  C           1     -35.975  -0.652 -13.452  0.00  0.00     0.185 C 
BRANCH  15  16
HETATM   16  C           1     -37.197   0.032 -12.854  0.00  0.00     0.036 C 
BRANCH  16  17
HETATM   17  C           1     -37.480  -0.547 -11.474  0.00  0.00     0.003 C 
BRANCH  17  18
HETATM   18 Se           1     -36.989   0.754 -10.109  0.00  0.00     0.000 Se
HETATM   19  C           1     -37.412  -0.416  -8.608  0.00  0.00     0.000 C 
ENDBRANCH  17  18
ENDBRANCH  16  17
ENDBRANCH  15  16
BRANCH  15  20
HETATM   20  C           1     -35.036   0.391 -14.008  0.00  0.00     0.196 C 
HETATM   21  O           1     -34.667   1.345 -13.291  0.00  0.00    -0.646 OA
HETATM   22  O           1     -34.629   0.299 -15.186  0.00  0.00    -0.646 OA
ENDBRANCH  15  20
ENDBRANCH  13  15
ENDBRANCH   1  11
BRANCH   1  23
HETATM   23  N           1     -33.085  -2.438 -10.848  0.00  0.00    -0.066 N 
HETATM   24  H           1     -33.642  -2.087 -10.036  0.00  0.00     0.275 HD
HETATM   25  H           1     -32.247  -2.954 -10.496  0.00  0.00     0.275 HD
HETATM   26  H           1     -32.777  -1.629 -11.434  0.00  0.00     0.275 HD
ENDBRANCH   1  23
TORSDOF 10
ENDMDL
MODEL 5
REMARK VINA RESULT:      -6.6      3.911      8.399
REMARK  10 active torsions:
REMARK  status: ('A' for Active; 'I' for Inactive)
REMARK    1  A    between atoms: C_2  and  C_21 
REMARK    2  A    between atoms: C_2  and  C_3 
REMARK    3  A    between atoms: C_3  and  C_23 
REMARK    4  A    between atoms: C_3  and  N_14 
REMARK    5  A    between atoms: C_4  and  C_15 
REMARK    6  A    between atoms: C_4  and  C_5 
REMARK       I    between atoms: N_14  and  C_22 
REMARK    7  A    between atoms: C_15  and  C_22 
REMARK    8  A    between atoms: C_15  and  N_18 
REMARK    9  A    between atoms: C_17  and  O_19 
REMARK   10  A    between atoms: C_21  and  Se_26 
ROOT
HETATM    1  C           1     -21.610  -5.856  -6.720  0.00  0.00     0.278 C 
ENDROOT
BRANCH   1   2
HETATM    2  C           1     -20.961  -4.548  -7.155  0.00  0.00     0.081 C 
BRANCH   2   3
HETATM    3  C           1     -21.166  -4.354  -8.625  0.00  0.00    -0.056 A 
HETATM    4  C           1     -22.413  -3.958  -9.109  0.00  0.00     0.010 A 
HETATM    5  C           1     -22.604  -3.776 -10.479  0.00  0.00     0.037 A 
HETATM    6  C           1     -21.547  -3.990 -11.364  0.00  0.00     0.065 A 
HETATM    7  C           1     -20.300  -4.384 -10.881  0.00  0.00     0.037 A 
HETATM    8  C           1     -20.109  -4.566  -9.511  0.00  0.00     0.010 A 
BRANCH   6   9
HETATM    9  O           1     -21.733  -3.813 -12.695  0.00  0.00    -0.361 OA
HETATM   10  H           1     -22.470  -4.383 -12.974  0.00  0.00     0.217 HD
ENDBRANCH   6   9
ENDBRANCH   2   3
ENDBRANCH   1   2
BRANCH   1  11
HETATM   11  C           1     -20.544  -6.814  -6.247  0.00  0.00     0.249 C 
HETATM   12  O           1     -19.444  -6.789  -6.748  0.00  0.00    -0.271 OA
HETATM   13  N           1     -20.823  -7.712  -5.253  0.00  0.00    -0.345 N 
HETATM   14  H           1     -21.744  -7.733  -4.835  0.00  0.00     0.163 HD
BRANCH  13  15
HETATM   15  C           1     -19.798  -8.633  -4.799  0.00  0.00     0.185 C 
BRANCH  15  16
HETATM   16  C           1     -19.768  -8.648  -3.276  0.00  0.00     0.036 C 
BRANCH  16  17
HETATM   17  C           1     -21.074  -8.080  -2.736  0.00  0.00     0.003 C 
BRANCH  17  18
HETATM   18 Se           1     -21.511  -8.945  -1.046  0.00  0.00     0.000 Se
HETATM   19  C           1     -22.466  -7.410  -0.317  0.00  0.00     0.000 C 
ENDBRANCH  17  18
ENDBRANCH  16  17
ENDBRANCH  15  16
BRANCH  15  20
HETATM   20  C           1     -20.108 -10.019  -5.309  0.00  0.00     0.196 C 
HETATM   21  O           1     -19.397 -10.987  -4.961  0.00  0.00    -0.646 OA
HETATM   22  O           1     -21.075 -10.199  -6.081  0.00  0.00    -0.646 OA
ENDBRANCH  15  20
ENDBRANCH  13  15
ENDBRANCH   1  11
BRANCH   1  23
HETATM   23  N           1     -22.571  -5.588  -5.601  0.00  0.00    -0.066 N 
HETATM   24  H           1     -23.447  -6.138  -5.753  0.00  0.00     0.275 HD
HETATM   25  H           1     -22.136  -5.872  -4.693  0.00  0.00     0.275 HD
HETATM   26  H           1     -22.801  -4.569  -5.574  0.00  0.00     0.275 HD
ENDBRANCH   1  23
TORSDOF 10
ENDMDL
MODEL 6
REMARK VINA RESULT:      -6.6      3.329      8.037
REMARK  10 active torsions:
REMARK  status: ('A' for Active; 'I' for Inactive)
REMARK    1  A    between atoms: C_2  and  C_21 
REMARK    2  A    between atoms: C_2  and  C_3 
REMARK    3  A    between atoms: C_3  and  C_23 
REMARK    4  A    between atoms: C_3  and  N_14 
REMARK    5  A    between atoms: C_4  and  C_15 
REMARK    6  A    between atoms: C_4  and  C_5 
REMARK       I    between atoms: N_14  and  C_22 
REMARK    7  A    between atoms: C_15  and  C_22 
REMARK    8  A    between atoms: C_15  and  N_18 
REMARK    9  A    between atoms: C_17  and  O_19 
REMARK   10  A    between atoms: C_21  and  Se_26 
ROOT
HETATM    1  C           1     -20.998  -4.907  -6.381  0.00  0.00     0.278 C 
ENDROOT
BRANCH   1   2
HETATM    2  C           1     -20.699  -5.615  -7.697  0.00  0.00     0.081 C 
BRANCH   2   3
HETATM    3  C           1     -21.222  -4.795  -8.836  0.00  0.00    -0.056 A 
HETATM    4  C           1     -22.560  -4.403  -8.855  0.00  0.00     0.010 A 
HETATM    5  C           1     -23.048  -3.639  -9.915  0.00  0.00     0.037 A 
HETATM    6  C           1     -22.196  -3.266 -10.955  0.00  0.00     0.065 A 
HETATM    7  C           1     -20.858  -3.657 -10.935  0.00  0.00     0.037 A 
HETATM    8  C           1     -20.370  -4.421  -9.875  0.00  0.00     0.010 A 
BRANCH   6   9
HETATM    9  O           1     -22.669  -2.523 -11.985  0.00  0.00    -0.361 OA
HETATM   10  H           1     -21.941  -2.383 -12.614  0.00  0.00     0.217 HD
ENDBRANCH   6   9
ENDBRANCH   2   3
ENDBRANCH   1   2
BRANCH   1  11
HETATM   11  C           1     -21.699  -5.861  -5.445  0.00  0.00     0.249 C 
HETATM   12  O           1     -22.905  -5.929  -5.443  0.00  0.00    -0.271 OA
HETATM   13  N           1     -20.967  -6.649  -4.598  0.00  0.00    -0.345 N 
HETATM   14  H           1     -19.957  -6.592  -4.600  0.00  0.00     0.163 HD
BRANCH  13  15
HETATM   15  C           1     -21.640  -7.566  -3.697  0.00  0.00     0.185 C 
BRANCH  15  16
HETATM   16  C           1     -20.895  -8.894  -3.676  0.00  0.00     0.036 C 
BRANCH  16  17
HETATM   17  C           1     -19.489  -8.698  -4.228  0.00  0.00     0.003 C 
BRANCH  17  18
HETATM   18 Se           1     -18.958 -10.281  -5.234  0.00  0.00     0.000 Se
HETATM   19  C           1     -17.067 -10.132  -4.786  0.00  0.00     0.000 C 
ENDBRANCH  17  18
ENDBRANCH  16  17
ENDBRANCH  15  16
BRANCH  15  20
HETATM   20  C           1     -21.660  -6.979  -2.307  0.00  0.00     0.196 C 
HETATM   21  O           1     -21.001  -7.517  -1.392  0.00  0.00    -0.646 OA
HETATM   22  O           1     -22.338  -5.955  -2.072  0.00  0.00    -0.646 OA
ENDBRANCH  15  20
ENDBRANCH  13  15
ENDBRANCH   1  11
BRANCH   1  23
HETATM   23  N           1     -19.714  -4.449  -5.758  0.00  0.00    -0.066 N 
HETATM   24  H           1     -19.021  -4.227  -6.508  0.00  0.00     0.275 HD
HETATM   25  H           1     -19.891  -3.594  -5.184  0.00  0.00     0.275 HD
HETATM   26  H           1     -19.332  -5.207  -5.147  0.00  0.00     0.275 HD
ENDBRANCH   1  23
TORSDOF 10
ENDMDL
MODEL 7
REMARK VINA RESULT:      -6.3      1.942      3.030
REMARK  10 active torsions:
REMARK  status: ('A' for Active; 'I' for Inactive)
REMARK    1  A    between atoms: C_2  and  C_21 
REMARK    2  A    between atoms: C_2  and  C_3 
REMARK    3  A    between atoms: C_3  and  C_23 
REMARK    4  A    between atoms: C_3  and  N_14 
REMARK    5  A    between atoms: C_4  and  C_15 
REMARK    6  A    between atoms: C_4  and  C_5 
REMARK       I    between atoms: N_14  and  C_22 
REMARK    7  A    between atoms: C_15  and  C_22 
REMARK    8  A    between atoms: C_15  and  N_18 
REMARK    9  A    between atoms: C_17  and  O_19 
REMARK   10  A    between atoms: C_21  and  Se_26 
ROOT
HETATM    1  C           1     -21.319  -7.737  -4.984  0.00  0.00     0.278 C 
ENDROOT
BRANCH   1   2
HETATM    2  C           1     -20.420  -7.991  -3.780  0.00  0.00     0.081 C 
BRANCH   2   3
HETATM    3  C           1     -21.247  -8.001  -2.532  0.00  0.00    -0.056 A 
HETATM    4  C           1     -21.686  -6.799  -1.978  0.00  0.00     0.010 A 
HETATM    5  C           1     -22.458  -6.807  -0.816  0.00  0.00     0.037 A 
HETATM    6  C           1     -22.789  -8.018  -0.208  0.00  0.00     0.065 A 
HETATM    7  C           1     -22.350  -9.220  -0.762  0.00  0.00     0.037 A 
HETATM    8  C           1     -21.579  -9.212  -1.925  0.00  0.00     0.010 A 
BRANCH   6   9
HETATM    9  O           1     -23.538  -8.026   0.921  0.00  0.00    -0.361 OA
HETATM   10  H           1     -22.955  -7.811   1.670  0.00  0.00     0.217 HD
ENDBRANCH   6   9
ENDBRANCH   2   3
ENDBRANCH   1   2
BRANCH   1  11
HETATM   11  C           1     -20.919  -6.440  -5.645  0.00  0.00     0.249 C 
HETATM   12  O           1     -20.537  -5.512  -4.972  0.00  0.00    -0.271 OA
HETATM   13  N           1     -20.990  -6.315  -7.006  0.00  0.00    -0.345 N 
HETATM   14  H           1     -21.311  -7.093  -7.569  0.00  0.00     0.163 HD
BRANCH  13  15
HETATM   15  C           1     -20.607  -5.069  -7.642  0.00  0.00     0.185 C 
BRANCH  15  16
HETATM   16  C           1     -20.288  -5.325  -9.108  0.00  0.00     0.036 C 
BRANCH  16  17
HETATM   17  C           1     -20.428  -4.028  -9.893  0.00  0.00     0.003 C 
BRANCH  17  18
HETATM   18 Se           1     -21.466  -4.354 -11.510  0.00  0.00     0.000 Se
HETATM   19  C           1     -22.689  -2.864 -11.223  0.00  0.00     0.000 C 
ENDBRANCH  17  18
ENDBRANCH  16  17
ENDBRANCH  15  16
BRANCH  15  20
HETATM   20  C           1     -21.743  -4.082  -7.539  0.00  0.00     0.196 C 
HETATM   21  O           1     -21.534  -2.931  -7.100  0.00  0.00    -0.646 OA
HETATM   22  O           1     -22.894  -4.417  -7.893  0.00  0.00    -0.646 OA
ENDBRANCH  15  20
ENDBRANCH  13  15
ENDBRANCH   1  11
BRANCH   1  23
HETATM   23  N           1     -21.171  -8.862  -5.963  0.00  0.00    -0.066 N 
HETATM   24  H           1     -20.234  -8.804  -6.423  0.00  0.00     0.275 HD
HETATM   25  H           1     -21.256  -9.774  -5.461  0.00  0.00     0.275 HD
HETATM   26  H           1     -21.919  -8.792  -6.690  0.00  0.00     0.275 HD
ENDBRANCH   1  23
TORSDOF 10
ENDMDL
MODEL 8
REMARK VINA RESULT:      -6.2      4.051      8.403
REMARK  10 active torsions:
REMARK  status: ('A' for Active; 'I' for Inactive)
REMARK    1  A    between atoms: C_2  and  C_21 
REMARK    2  A    between atoms: C_2  and  C_3 
REMARK    3  A    between atoms: C_3  and  C_23 
REMARK    4  A    between atoms: C_3  and  N_14 
REMARK    5  A    between atoms: C_4  and  C_15 
REMARK    6  A    between atoms: C_4  and  C_5 
REMARK       I    between atoms: N_14  and  C_22 
REMARK    7  A    between atoms: C_15  and  C_22 
REMARK    8  A    between atoms: C_15  and  N_18 
REMARK    9  A    between atoms: C_17  and  O_19 
REMARK   10  A    between atoms: C_21  and  Se_26 
ROOT
HETATM    1  C           1     -21.642  -5.963  -6.549  0.00  0.00     0.278 C 
ENDROOT
BRANCH   1   2
HETATM    2  C           1     -20.887  -4.709  -6.973  0.00  0.00     0.081 C 
BRANCH   2   3
HETATM    3  C           1     -21.086  -4.479  -8.440  0.00  0.00    -0.056 A 
HETATM    4  C           1     -22.334  -4.084  -8.920  0.00  0.00     0.010 A 
HETATM    5  C           1     -22.520  -3.868 -10.286  0.00  0.00     0.037 A 
HETATM    6  C           1     -21.456  -4.049 -11.170  0.00  0.00     0.065 A 
HETATM    7  C           1     -20.208  -4.443 -10.690  0.00  0.00     0.037 A 
HETATM    8  C           1     -20.022  -4.659  -9.324  0.00  0.00     0.010 A 
BRANCH   6   9
HETATM    9  O           1     -21.637  -3.840 -12.497  0.00  0.00    -0.361 OA
HETATM   10  H           1     -21.996  -4.657 -12.884  0.00  0.00     0.217 HD
ENDBRANCH   6   9
ENDBRANCH   2   3
ENDBRANCH   1   2
BRANCH   1  11
HETATM   11  C           1     -20.656  -7.023  -6.122  0.00  0.00     0.249 C 
HETATM   12  O           1     -19.539  -7.029  -6.582  0.00  0.00    -0.271 OA
HETATM   13  N           1     -21.028  -7.978  -5.215  0.00  0.00    -0.345 N 
HETATM   14  H           1     -21.964  -7.973  -4.831  0.00  0.00     0.163 HD
BRANCH  13  15
HETATM   15  C           1     -20.081  -8.998  -4.805  0.00  0.00     0.185 C 
BRANCH  15  16
HETATM   16  C           1     -20.008  -9.041  -3.285  0.00  0.00     0.036 C 
BRANCH  16  17
HETATM   17  C           1     -19.060 -10.151  -2.853  0.00  0.00     0.003 C 
BRANCH  17  18
HETATM   18 Se           1     -17.218  -9.542  -3.035  0.00  0.00     0.000 Se
HETATM   19  C           1     -16.771 -10.794  -4.461  0.00  0.00     0.000 C 
ENDBRANCH  17  18
ENDBRANCH  16  17
ENDBRANCH  15  16
BRANCH  15  20
HETATM   20  C           1     -20.533 -10.341  -5.325  0.00  0.00     0.196 C 
HETATM   21  O           1     -21.591 -10.852  -4.900  0.00  0.00    -0.646 OA
HETATM   22  O           1     -19.848 -10.941  -6.181  0.00  0.00    -0.646 OA
ENDBRANCH  15  20
ENDBRANCH  13  15
ENDBRANCH   1  11
BRANCH   1  23
HETATM   23  N           1     -22.548  -5.634  -5.401  0.00  0.00    -0.066 N 
HETATM   24  H           1     -22.086  -5.903  -4.503  0.00  0.00     0.275 HD
HETATM   25  H           1     -22.746  -4.608  -5.396  0.00  0.00     0.275 HD
HETATM   26  H           1     -23.444  -6.162  -5.502  0.00  0.00     0.275 HD
ENDBRANCH   1  23
TORSDOF 10
ENDMDL
MODEL 9
REMARK VINA RESULT:      -6.1     12.792     14.870
REMARK  10 active torsions:
REMARK  status: ('A' for Active; 'I' for Inactive)
REMARK    1  A    between atoms: C_2  and  C_21 
REMARK    2  A    between atoms: C_2  and  C_3 
REMARK    3  A    between atoms: C_3  and  C_23 
REMARK    4  A    between atoms: C_3  and  N_14 
REMARK    5  A    between atoms: C_4  and  C_15 
REMARK    6  A    between atoms: C_4  and  C_5 
REMARK       I    between atoms: N_14  and  C_22 
REMARK    7  A    between atoms: C_15  and  C_22 
REMARK    8  A    between atoms: C_15  and  N_18 
REMARK    9  A    between atoms: C_17  and  O_19 
REMARK   10  A    between atoms: C_21  and  Se_26 
ROOT
HETATM    1  C           1     -35.149  -0.632 -11.836  0.00  0.00     0.278 C 
ENDROOT
BRANCH   1   2
HETATM    2  C           1     -35.967  -1.915 -11.765  0.00  0.00     0.081 C 
BRANCH   2   3
HETATM    3  C           1     -35.046  -3.088 -11.630  0.00  0.00    -0.056 A 
HETATM    4  C           1     -35.498  -4.264 -11.033  0.00  0.00     0.010 A 
HETATM    5  C           1     -34.641  -5.358 -10.907  0.00  0.00     0.037 A 
HETATM    6  C           1     -33.331  -5.273 -11.378  0.00  0.00     0.065 A 
HETATM    7  C           1     -32.878  -4.097 -11.975  0.00  0.00     0.037 A 
HETATM    8  C           1     -33.736  -3.004 -12.102  0.00  0.00     0.010 A 
BRANCH   6   9
HETATM    9  O           1     -32.498  -6.335 -11.256  0.00  0.00    -0.361 OA
HETATM   10  H           1     -32.286  -6.655 -12.149  0.00  0.00     0.217 HD
ENDBRANCH   6   9
ENDBRANCH   2   3
ENDBRANCH   1   2
BRANCH   1  11
HETATM   11  C           1     -34.989  -0.216 -13.278  0.00  0.00     0.249 C 
HETATM   12  O           1     -34.229   0.677 -13.569  0.00  0.00    -0.271 OA
HETATM   13  N           1     -35.707  -0.850 -14.257  0.00  0.00    -0.345 N 
HETATM   14  H           1     -36.344  -1.597 -14.013  0.00  0.00     0.163 HD
BRANCH  13  15
HETATM   15  C           1     -35.555  -0.450 -15.643  0.00  0.00     0.185 C 
BRANCH  15  16
HETATM   16  C           1     -35.772  -1.657 -16.545  0.00  0.00     0.036 C 
BRANCH  16  17
HETATM   17  C           1     -34.428  -2.292 -16.878  0.00  0.00     0.003 C 
BRANCH  17  18
HETATM   18 Se           1     -34.225  -3.951 -15.875  0.00  0.00     0.000 Se
HETATM   19  C           1     -32.539  -4.447 -16.718  0.00  0.00     0.000 C 
ENDBRANCH  17  18
ENDBRANCH  16  17
ENDBRANCH  15  16
BRANCH  15  20
HETATM   20  C           1     -36.572   0.614 -15.973  0.00  0.00     0.196 C 
HETATM   21  O           1     -36.209   1.802 -16.117  0.00  0.00    -0.646 OA
HETATM   22  O           1     -37.776   0.307 -16.103  0.00  0.00    -0.646 OA
ENDBRANCH  15  20
ENDBRANCH  13  15
ENDBRANCH   1  11
BRANCH   1  23
HETATM   23  N           1     -35.856   0.453 -11.080  0.00  0.00    -0.066 N 
HETATM   24  H           1     -36.519   0.025 -10.394  0.00  0.00     0.275 HD
HETATM   25  H           1     -35.154   1.034 -10.568  0.00  0.00     0.275 HD
HETATM   26  H           1     -36.388   1.055 -11.748  0.00  0.00     0.275 HD
ENDBRANCH   1  23
TORSDOF 10
ENDMDL
