MODEL 1
REMARK VINA RESULT:      -5.0      0.000      0.000
REMARK  8 active torsions:
REMARK  status: ('A' for Active; 'I' for Inactive)
REMARK    1  A    between atoms: Se_2  and  C_3 
REMARK    2  A    between atoms: C_3  and  C_4 
REMARK    3  A    between atoms: C_4  and  C_5 
REMARK    4  A    between atoms: C_4  and  N_10 
REMARK    5  A    between atoms: C_7  and  C_8 
REMARK    6  A    between atoms: C_7  and  C_16 
REMARK    7  A    between atoms: C_7  and  N_14 
REMARK       I    between atoms: C_8  and  N_10 
REMARK    8  A    between atoms: O_9  and  C_16 
ROOT
HETATM    1  C           1     -35.539  -0.130 -14.215  0.00  0.00     0.251 C 
HETATM    2  N           1     -35.912  -1.053 -13.275  0.00  0.00    -0.345 N 
HETATM    3  O           1     -34.492   0.460 -14.100  0.00  0.00    -0.271 OA
HETATM    4  H           1     -36.789  -1.548 -13.372  0.00  0.00     0.163 HD
ENDROOT
BRANCH   1   5
HETATM    5  C           1     -36.437   0.150 -15.395  0.00  0.00     0.297 C 
BRANCH   5   6
HETATM    6  C           1     -36.119  -0.827 -16.519  0.00  0.00     0.206 C 
BRANCH   6   7
HETATM    7  O           1     -35.227  -1.802 -16.052  0.00  0.00    -0.398 OA
HETATM    8  H           1     -34.875  -1.485 -15.238  0.00  0.00     0.209 HD
ENDBRANCH   6   7
ENDBRANCH   5   6
BRANCH   5   9
HETATM    9  N           1     -36.209   1.553 -15.874  0.00  0.00    -0.064 N 
HETATM   10  H           1     -35.182   1.735 -15.944  0.00  0.00     0.275 HD
HETATM   11  H           1     -36.637   2.226 -15.200  0.00  0.00     0.275 HD
HETATM   12  H           1     -36.647   1.675 -16.815  0.00  0.00     0.275 HD
ENDBRANCH   5   9
ENDBRANCH   1   5
BRANCH   2  13
HETATM   13  C           1     -35.050  -1.322 -12.141  0.00  0.00     0.185 C 
BRANCH  13  14
HETATM   14  C           1     -35.897  -1.468 -10.883  0.00  0.00     0.039 C 
BRANCH  14  15
HETATM   15 Se           1     -37.153   0.018 -10.771  0.00  0.00     0.000 Se
HETATM   16  H           1     -37.941  -0.579  -9.681  0.00  0.00     0.000 HD
ENDBRANCH  14  15
ENDBRANCH  13  14
BRANCH  13  17
HETATM   17  C           1     -34.285  -2.600 -12.384  0.00  0.00     0.196 C 
HETATM   18  O           1     -33.539  -3.061 -11.493  0.00  0.00    -0.646 OA
HETATM   19  O           1     -34.399  -3.199 -13.475  0.00  0.00    -0.646 OA
ENDBRANCH  13  17
ENDBRANCH   2  13
TORSDOF 8
ENDMDL
MODEL 2
REMARK VINA RESULT:      -4.9     11.692     12.338
REMARK  8 active torsions:
REMARK  status: ('A' for Active; 'I' for Inactive)
REMARK    1  A    between atoms: Se_2  and  C_3 
REMARK    2  A    between atoms: C_3  and  C_4 
REMARK    3  A    between atoms: C_4  and  C_5 
REMARK    4  A    between atoms: C_4  and  N_10 
REMARK    5  A    between atoms: C_7  and  C_8 
REMARK    6  A    between atoms: C_7  and  C_16 
REMARK    7  A    between atoms: C_7  and  N_14 
REMARK       I    between atoms: C_8  and  N_10 
REMARK    8  A    between atoms: O_9  and  C_16 
ROOT
HETATM    1  C           1     -23.580  -3.269 -13.194  0.00  0.00     0.251 C 
HETATM    2  N           1     -23.269  -3.226 -11.861  0.00  0.00    -0.345 N 
HETATM    3  O           1     -24.333  -4.116 -13.610  0.00  0.00    -0.271 OA
HETATM    4  H           1     -22.638  -2.516 -11.512  0.00  0.00     0.163 HD
ENDROOT
BRANCH   1   5
HETATM    5  C           1     -22.982  -2.259 -14.141  0.00  0.00     0.297 C 
BRANCH   5   6
HETATM    6  C           1     -24.081  -1.346 -14.670  0.00  0.00     0.206 C 
BRANCH   6   7
HETATM    7  O           1     -25.184  -1.393 -13.807  0.00  0.00    -0.398 OA
HETATM    8  H           1     -25.915  -1.028 -14.276  0.00  0.00     0.209 HD
ENDBRANCH   6   7
ENDBRANCH   5   6
BRANCH   5   9
HETATM    9  N           1     -22.332  -2.974 -15.288  0.00  0.00    -0.064 N 
HETATM   10  H           1     -22.019  -2.276 -16.001  0.00  0.00     0.275 HD
HETATM   11  H           1     -23.017  -3.632 -15.722  0.00  0.00     0.275 HD
HETATM   12  H           1     -21.505  -3.509 -14.941  0.00  0.00     0.275 HD
ENDBRANCH   5   9
ENDBRANCH   1   5
BRANCH   2  13
HETATM   13  C           1     -23.843  -4.197 -10.950  0.00  0.00     0.185 C 
BRANCH  13  14
HETATM   14  C           1     -22.725  -4.983 -10.277  0.00  0.00     0.039 C 
BRANCH  14  15
HETATM   15 Se           1     -21.032  -4.053 -10.532  0.00  0.00     0.000 Se
HETATM   16  H           1     -21.558  -3.130 -11.550  0.00  0.00     0.000 HD
ENDBRANCH  14  15
ENDBRANCH  13  14
BRANCH  13  17
HETATM   17  C           1     -24.657  -3.480  -9.901  0.00  0.00     0.196 C 
HETATM   18  O           1     -24.153  -3.223  -8.786  0.00  0.00    -0.646 OA
HETATM   19  O           1     -25.835  -3.143 -10.146  0.00  0.00    -0.646 OA
ENDBRANCH  13  17
ENDBRANCH   2  13
TORSDOF 8
ENDMDL
MODEL 3
REMARK VINA RESULT:      -4.9      2.269      2.590
REMARK  8 active torsions:
REMARK  status: ('A' for Active; 'I' for Inactive)
REMARK    1  A    between atoms: Se_2  and  C_3 
REMARK    2  A    between atoms: C_3  and  C_4 
REMARK    3  A    between atoms: C_4  and  C_5 
REMARK    4  A    between atoms: C_4  and  N_10 
REMARK    5  A    between atoms: C_7  and  C_8 
REMARK    6  A    between atoms: C_7  and  C_16 
REMARK    7  A    between atoms: C_7  and  N_14 
REMARK       I    between atoms: C_8  and  N_10 
REMARK    8  A    between atoms: O_9  and  C_16 
ROOT
HETATM    1  C           1     -35.852  -0.909 -13.686  0.00  0.00     0.251 C 
HETATM    2  N           1     -34.767  -1.627 -13.260  0.00  0.00    -0.345 N 
HETATM    3  O           1     -36.914  -1.031 -13.126  0.00  0.00    -0.271 OA
HETATM    4  H           1     -33.876  -1.524 -13.729  0.00  0.00     0.163 HD
ENDROOT
BRANCH   1   5
HETATM    5  C           1     -35.719   0.035 -14.856  0.00  0.00     0.297 C 
BRANCH   5   6
HETATM    6  C           1     -35.881  -0.741 -16.156  0.00  0.00     0.206 C 
BRANCH   6   7
HETATM    7  O           1     -35.181  -1.952 -16.069  0.00  0.00    -0.398 OA
HETATM    8  H           1     -35.435  -2.470 -16.814  0.00  0.00     0.209 HD
ENDBRANCH   6   7
ENDBRANCH   5   6
BRANCH   5   9
HETATM    9  N           1     -34.366   0.681 -14.825  0.00  0.00    -0.064 N 
HETATM   10  H           1     -33.839   0.428 -15.692  0.00  0.00     0.275 HD
HETATM   11  H           1     -33.839   0.347 -13.988  0.00  0.00     0.275 HD
HETATM   12  H           1     -34.477   1.719 -14.777  0.00  0.00     0.275 HD
ENDBRANCH   5   9
ENDBRANCH   1   5
BRANCH   2  13
HETATM   13  C           1     -34.894  -2.534 -12.136  0.00  0.00     0.185 C 
BRANCH  13  14
HETATM   14  C           1     -34.006  -3.751 -12.364  0.00  0.00     0.039 C 
BRANCH  14  15
HETATM   15 Se           1     -34.438  -5.126 -11.053  0.00  0.00     0.000 Se
HETATM   16  H           1     -35.895  -4.974 -11.201  0.00  0.00     0.000 HD
ENDBRANCH  14  15
ENDBRANCH  13  14
BRANCH  13  17
HETATM   17  C           1     -34.467  -1.830 -10.872  0.00  0.00     0.196 C 
HETATM   18  O           1     -35.324  -1.293 -10.136  0.00  0.00    -0.646 OA
HETATM   19  O           1     -33.258  -1.783 -10.560  0.00  0.00    -0.646 OA
ENDBRANCH  13  17
ENDBRANCH   2  13
TORSDOF 8
ENDMDL
MODEL 4
REMARK VINA RESULT:      -4.8     11.392     12.367
REMARK  8 active torsions:
REMARK  status: ('A' for Active; 'I' for Inactive)
REMARK    1  A    between atoms: Se_2  and  C_3 
REMARK    2  A    between atoms: C_3  and  C_4 
REMARK    3  A    between atoms: C_4  and  C_5 
REMARK    4  A    between atoms: C_4  and  N_10 
REMARK    5  A    between atoms: C_7  and  C_8 
REMARK    6  A    between atoms: C_7  and  C_16 
REMARK    7  A    between atoms: C_7  and  N_14 
REMARK       I    between atoms: C_8  and  N_10 
REMARK    8  A    between atoms: O_9  and  C_16 
ROOT
HETATM    1  C           1     -28.157  -6.357 -18.523  0.00  0.00     0.251 C 
HETATM    2  N           1     -27.285  -7.204 -19.153  0.00  0.00    -0.345 N 
HETATM    3  O           1     -28.505  -5.337 -19.067  0.00  0.00    -0.271 OA
HETATM    4  H           1     -26.993  -8.060 -18.698  0.00  0.00     0.163 HD
ENDROOT
BRANCH   1   5
HETATM    5  C           1     -28.682  -6.699 -17.151  0.00  0.00     0.297 C 
BRANCH   5   6
HETATM    6  C           1     -27.555  -6.588 -16.133  0.00  0.00     0.206 C 
BRANCH   6   7
HETATM    7  O           1     -26.547  -5.755 -16.640  0.00  0.00    -0.398 OA
HETATM    8  H           1     -25.859  -5.735 -15.996  0.00  0.00     0.209 HD
ENDBRANCH   6   7
ENDBRANCH   5   6
BRANCH   5   9
HETATM    9  N           1     -29.215  -8.100 -17.155  0.00  0.00    -0.064 N 
HETATM   10  H           1     -28.432  -8.772 -16.988  0.00  0.00     0.275 HD
HETATM   11  H           1     -29.655  -8.303 -18.080  0.00  0.00     0.275 HD
HETATM   12  H           1     -29.929  -8.204 -16.399  0.00  0.00     0.275 HD
ENDBRANCH   5   9
ENDBRANCH   1   5
BRANCH   2  13
HETATM   13  C           1     -26.779  -6.877 -20.472  0.00  0.00     0.185 C 
BRANCH  13  14
HETATM   14  C           1     -25.416  -6.211 -20.341  0.00  0.00     0.039 C 
BRANCH  14  15
HETATM   15 Se           1     -24.367  -7.137 -18.984  0.00  0.00     0.000 Se
HETATM   16  H           1     -23.860  -8.162 -19.909  0.00  0.00     0.000 HD
ENDBRANCH  14  15
ENDBRANCH  13  14
BRANCH  13  17
HETATM   17  C           1     -26.647  -8.140 -21.286  0.00  0.00     0.196 C 
HETATM   18  O           1     -27.620  -8.917 -21.397  0.00  0.00    -0.646 OA
HETATM   19  O           1     -25.565  -8.410 -21.851  0.00  0.00    -0.646 OA
ENDBRANCH  13  17
ENDBRANCH   2  13
TORSDOF 8
ENDMDL
MODEL 5
REMARK VINA RESULT:      -4.8      2.013      4.385
REMARK  8 active torsions:
REMARK  status: ('A' for Active; 'I' for Inactive)
REMARK    1  A    between atoms: Se_2  and  C_3 
REMARK    2  A    between atoms: C_3  and  C_4 
REMARK    3  A    between atoms: C_4  and  C_5 
REMARK    4  A    between atoms: C_4  and  N_10 
REMARK    5  A    between atoms: C_7  and  C_8 
REMARK    6  A    between atoms: C_7  and  C_16 
REMARK    7  A    between atoms: C_7  and  N_14 
REMARK       I    between atoms: C_8  and  N_10 
REMARK    8  A    between atoms: O_9  and  C_16 
ROOT
HETATM    1  C           1     -34.475  -2.432 -12.539  0.00  0.00     0.251 C 
HETATM    2  N           1     -35.128  -1.233 -12.434  0.00  0.00    -0.345 N 
HETATM    3  O           1     -34.504  -3.046 -13.579  0.00  0.00    -0.271 OA
HETATM    4  H           1     -35.103  -0.718 -11.563  0.00  0.00     0.163 HD
ENDROOT
BRANCH   1   5
HETATM    5  C           1     -33.720  -2.986 -11.356  0.00  0.00     0.297 C 
BRANCH   5   6
HETATM    6  C           1     -34.521  -4.118 -10.726  0.00  0.00     0.206 C 
BRANCH   6   7
HETATM    7  O           1     -35.888  -3.905 -10.951  0.00  0.00    -0.398 OA
HETATM    8  H           1     -36.319  -3.986 -10.116  0.00  0.00     0.209 HD
ENDBRANCH   6   7
ENDBRANCH   5   6
BRANCH   5   9
HETATM    9  N           1     -33.511  -1.900 -10.343  0.00  0.00    -0.064 N 
HETATM   10  H           1     -34.390  -1.343 -10.243  0.00  0.00     0.275 HD
HETATM   11  H           1     -32.737  -1.273 -10.659  0.00  0.00     0.275 HD
HETATM   12  H           1     -33.263  -2.325  -9.422  0.00  0.00     0.275 HD
ENDBRANCH   5   9
ENDBRANCH   1   5
BRANCH   2  13
HETATM   13  C           1     -35.854  -0.700 -13.570  0.00  0.00     0.185 C 
BRANCH  13  14
HETATM   14  C           1     -37.162  -0.084 -13.092  0.00  0.00     0.039 C 
BRANCH  14  15
HETATM   15 Se           1     -37.286  -0.243 -11.154  0.00  0.00     0.000 Se
HETATM   16  H           1     -37.569   1.184 -10.938  0.00  0.00     0.000 HD
ENDBRANCH  14  15
ENDBRANCH  13  14
BRANCH  13  17
HETATM   17  C           1     -35.017   0.356 -14.249  0.00  0.00     0.196 C 
HETATM   18  O           1     -34.723   1.408 -13.640  0.00  0.00    -0.646 OA
HETATM   19  O           1     -34.618   0.180 -15.420  0.00  0.00    -0.646 OA
ENDBRANCH  13  17
ENDBRANCH   2  13
TORSDOF 8
ENDMDL
MODEL 6
REMARK VINA RESULT:      -4.7     12.964     14.183
REMARK  8 active torsions:
REMARK  status: ('A' for Active; 'I' for Inactive)
REMARK    1  A    between atoms: Se_2  and  C_3 
REMARK    2  A    between atoms: C_3  and  C_4 
REMARK    3  A    between atoms: C_4  and  C_5 
REMARK    4  A    between atoms: C_4  and  N_10 
REMARK    5  A    between atoms: C_7  and  C_8 
REMARK    6  A    between atoms: C_7  and  C_16 
REMARK    7  A    between atoms: C_7  and  N_14 
REMARK       I    between atoms: C_8  and  N_10 
REMARK    8  A    between atoms: O_9  and  C_16 
ROOT
HETATM    1  C           1     -22.766  -3.990 -10.921  0.00  0.00     0.251 C 
HETATM    2  N           1     -21.755  -3.793 -10.019  0.00  0.00    -0.345 N 
HETATM    3  O           1     -23.539  -4.905 -10.771  0.00  0.00    -0.271 OA
HETATM    4  H           1     -21.107  -3.026 -10.144  0.00  0.00     0.163 HD
ENDROOT
BRANCH   1   5
HETATM    5  C           1     -22.913  -3.062 -12.103  0.00  0.00     0.297 C 
BRANCH   5   6
HETATM    6  C           1     -24.313  -3.201 -12.686  0.00  0.00     0.206 C 
BRANCH   6   7
HETATM    7  O           1     -24.306  -4.178 -13.692  0.00  0.00    -0.398 OA
HETATM    8  H           1     -23.530  -4.697 -13.564  0.00  0.00     0.209 HD
ENDBRANCH   6   7
ENDBRANCH   5   6
BRANCH   5   9
HETATM    9  N           1     -21.899  -3.420 -13.148  0.00  0.00    -0.064 N 
HETATM   10  H           1     -21.340  -2.573 -13.396  0.00  0.00     0.275 HD
HETATM   11  H           1     -22.387  -3.777 -14.000  0.00  0.00     0.275 HD
HETATM   12  H           1     -21.261  -4.160 -12.775  0.00  0.00     0.275 HD
ENDBRANCH   5   9
ENDBRANCH   1   5
BRANCH   2  13
HETATM   13  C           1     -21.613  -4.684  -8.884  0.00  0.00     0.185 C 
BRANCH  13  14
HETATM   14  C           1     -20.136  -4.983  -8.656  0.00  0.00     0.039 C 
BRANCH  14  15
HETATM   15 Se           1     -19.928  -6.018  -7.017  0.00  0.00     0.000 Se
HETATM   16  H           1     -20.173  -7.315  -7.667  0.00  0.00     0.000 HD
ENDBRANCH  14  15
ENDBRANCH  13  14
BRANCH  13  17
HETATM   17  C           1     -22.189  -4.026  -7.654  0.00  0.00     0.196 C 
HETATM   18  O           1     -23.273  -4.431  -7.179  0.00  0.00    -0.646 OA
HETATM   19  O           1     -21.584  -3.078  -7.111  0.00  0.00    -0.646 OA
ENDBRANCH  13  17
ENDBRANCH   2  13
TORSDOF 8
ENDMDL
MODEL 7
REMARK VINA RESULT:      -4.7     13.369     15.251
REMARK  8 active torsions:
REMARK  status: ('A' for Active; 'I' for Inactive)
REMARK    1  A    between atoms: Se_2  and  C_3 
REMARK    2  A    between atoms: C_3  and  C_4 
REMARK    3  A    between atoms: C_4  and  C_5 
REMARK    4  A    between atoms: C_4  and  N_10 
REMARK    5  A    between atoms: C_7  and  C_8 
REMARK    6  A    between atoms: C_7  and  C_16 
REMARK    7  A    between atoms: C_7  and  N_14 
REMARK       I    between atoms: C_8  and  N_10 
REMARK    8  A    between atoms: O_9  and  C_16 
ROOT
HETATM    1  C           1     -21.623  -4.372  -7.066  0.00  0.00     0.251 C 
HETATM    2  N           1     -22.600  -4.652  -7.984  0.00  0.00    -0.345 N 
HETATM    3  O           1     -20.931  -3.392  -7.202  0.00  0.00    -0.271 OA
HETATM    4  H           1     -23.181  -5.473  -7.871  0.00  0.00     0.163 HD
ENDROOT
BRANCH   1   5
HETATM    5  C           1     -21.413  -5.288  -5.885  0.00  0.00     0.297 C 
BRANCH   5   6
HETATM    6  C           1     -20.442  -6.396  -6.268  0.00  0.00     0.206 C 
BRANCH   6   7
HETATM    7  O           1     -20.006  -6.201  -7.586  0.00  0.00    -0.398 OA
HETATM    8  H           1     -19.785  -7.050  -7.930  0.00  0.00     0.209 HD
ENDBRANCH   6   7
ENDBRANCH   5   6
BRANCH   5   9
HETATM    9  N           1     -22.726  -5.891  -5.482  0.00  0.00    -0.064 N 
HETATM   10  H           1     -22.684  -6.180  -4.479  0.00  0.00     0.275 HD
HETATM   11  H           1     -22.922  -6.727  -6.077  0.00  0.00     0.275 HD
HETATM   12  H           1     -23.487  -5.187  -5.609  0.00  0.00     0.275 HD
ENDBRANCH   5   9
ENDBRANCH   1   5
BRANCH   2  13
HETATM   13  C           1     -22.802  -3.772  -9.119  0.00  0.00     0.185 C 
BRANCH  13  14
HETATM   14  C           1     -21.916  -4.222 -10.273  0.00  0.00     0.039 C 
BRANCH  14  15
HETATM   15 Se           1     -22.124  -2.992 -11.770  0.00  0.00     0.000 Se
HETATM   16  H           1     -23.567  -2.797 -11.561  0.00  0.00     0.000 HD
ENDBRANCH  14  15
ENDBRANCH  13  14
BRANCH  13  17
HETATM   17  C           1     -24.249  -3.827  -9.544  0.00  0.00     0.196 C 
HETATM   18  O           1     -24.955  -2.797  -9.491  0.00  0.00    -0.646 OA
HETATM   19  O           1     -24.741  -4.901  -9.951  0.00  0.00    -0.646 OA
ENDBRANCH  13  17
ENDBRANCH   2  13
TORSDOF 8
ENDMDL
MODEL 8
REMARK VINA RESULT:      -4.6      2.754      3.196
REMARK  8 active torsions:
REMARK  status: ('A' for Active; 'I' for Inactive)
REMARK    1  A    between atoms: Se_2  and  C_3 
REMARK    2  A    between atoms: C_3  and  C_4 
REMARK    3  A    between atoms: C_4  and  C_5 
REMARK    4  A    between atoms: C_4  and  N_10 
REMARK    5  A    between atoms: C_7  and  C_8 
REMARK    6  A    between atoms: C_7  and  C_16 
REMARK    7  A    between atoms: C_7  and  N_14 
REMARK       I    between atoms: C_8  and  N_10 
REMARK    8  A    between atoms: O_9  and  C_16 
ROOT
HETATM    1  C           1     -36.747  -0.156 -13.439  0.00  0.00     0.251 C 
HETATM    2  N           1     -36.195  -0.136 -12.186  0.00  0.00    -0.345 N 
HETATM    3  O           1     -37.823  -0.673 -13.616  0.00  0.00    -0.271 OA
HETATM    4  H           1     -35.293   0.299 -12.037  0.00  0.00     0.163 HD
ENDROOT
BRANCH   1   5
HETATM    5  C           1     -36.010   0.471 -14.597  0.00  0.00     0.297 C 
BRANCH   5   6
HETATM    6  C           1     -35.579  -0.617 -15.573  0.00  0.00     0.206 C 
BRANCH   6   7
HETATM    7  O           1     -35.224  -1.771 -14.860  0.00  0.00    -0.398 OA
HETATM    8  H           1     -36.027  -2.182 -14.586  0.00  0.00     0.209 HD
ENDBRANCH   6   7
ENDBRANCH   5   6
BRANCH   5   9
HETATM    9  N           1     -34.799   1.193 -14.087  0.00  0.00    -0.064 N 
HETATM   10  H           1     -35.075   1.826 -13.303  0.00  0.00     0.275 HD
HETATM   11  H           1     -34.379   1.758 -14.859  0.00  0.00     0.275 HD
HETATM   12  H           1     -34.099   0.498 -13.743  0.00  0.00     0.275 HD
ENDBRANCH   5   9
ENDBRANCH   1   5
BRANCH   2  13
HETATM   13  C           1     -36.902  -0.737 -11.072  0.00  0.00     0.185 C 
BRANCH  13  14
HETATM   14  C           1     -36.119  -1.941 -10.565  0.00  0.00     0.039 C 
BRANCH  14  15
HETATM   15 Se           1     -34.332  -1.930 -11.345  0.00  0.00     0.000 Se
HETATM   16  H           1     -34.380  -0.509 -11.723  0.00  0.00     0.000 HD
ENDBRANCH  14  15
ENDBRANCH  13  14
BRANCH  13  17
HETATM   17  C           1     -37.043   0.275  -9.962  0.00  0.00     0.196 C 
HETATM   18  O           1     -36.240   0.269  -9.004  0.00  0.00    -0.646 OA
HETATM   19  O           1     -37.963   1.121 -10.001  0.00  0.00    -0.646 OA
ENDBRANCH  13  17
ENDBRANCH   2  13
TORSDOF 8
ENDMDL
MODEL 9
REMARK VINA RESULT:      -4.5     10.606     11.324
REMARK  8 active torsions:
REMARK  status: ('A' for Active; 'I' for Inactive)
REMARK    1  A    between atoms: Se_2  and  C_3 
REMARK    2  A    between atoms: C_3  and  C_4 
REMARK    3  A    between atoms: C_4  and  C_5 
REMARK    4  A    between atoms: C_4  and  N_10 
REMARK    5  A    between atoms: C_7  and  C_8 
REMARK    6  A    between atoms: C_7  and  C_16 
REMARK    7  A    between atoms: C_7  and  N_14 
REMARK       I    between atoms: C_8  and  N_10 
REMARK    8  A    between atoms: O_9  and  C_16 
ROOT
HETATM    1  C           1     -26.522  -6.405 -18.977  0.00  0.00     0.251 C 
HETATM    2  N           1     -26.876  -6.723 -17.694  0.00  0.00    -0.345 N 
HETATM    3  O           1     -27.323  -5.877 -19.711  0.00  0.00    -0.271 OA
HETATM    4  H           1     -26.205  -7.164 -17.078  0.00  0.00     0.163 HD
ENDROOT
BRANCH   1   5
HETATM    5  C           1     -25.132  -6.713 -19.475  0.00  0.00     0.297 C 
BRANCH   5   6
HETATM    6  C           1     -25.216  -7.652 -20.671  0.00  0.00     0.206 C 
BRANCH   6   7
HETATM    7  O           1     -26.484  -8.251 -20.708  0.00  0.00    -0.398 OA
HETATM    8  H           1     -26.456  -8.910 -21.380  0.00  0.00     0.209 HD
ENDBRANCH   6   7
ENDBRANCH   5   6
BRANCH   5   9
HETATM    9  N           1     -24.344  -7.370 -18.380  0.00  0.00    -0.064 N 
HETATM   10  H           1     -24.862  -8.208 -18.033  0.00  0.00     0.275 HD
HETATM   11  H           1     -24.208  -6.695 -17.595  0.00  0.00     0.275 HD
HETATM   12  H           1     -23.413  -7.666 -18.751  0.00  0.00     0.275 HD
ENDBRANCH   5   9
ENDBRANCH   1   5
BRANCH   2  13
HETATM   13  C           1     -28.212  -6.427 -17.215  0.00  0.00     0.185 C 
BRANCH  13  14
HETATM   14  C           1     -29.191  -7.449 -17.778  0.00  0.00     0.039 C 
BRANCH  14  15
HETATM   15 Se           1     -31.016  -6.821 -17.505  0.00  0.00     0.000 Se
HETATM   16  H           1     -30.846  -5.610 -18.323  0.00  0.00     0.000 HD
ENDBRANCH  14  15
ENDBRANCH  13  14
BRANCH  13  17
HETATM   17  C           1     -28.231  -6.490 -15.707  0.00  0.00     0.196 C 
HETATM   18  O           1     -28.656  -5.517 -15.046  0.00  0.00    -0.646 OA
HETATM   19  O           1     -27.822  -7.514 -15.119  0.00  0.00    -0.646 OA
ENDBRANCH  13  17
ENDBRANCH   2  13
TORSDOF 8
ENDMDL
