MODEL 1
REMARK VINA RESULT:      -5.5      0.000      0.000
REMARK  6 active torsions:
REMARK  status: ('A' for Active; 'I' for Inactive)
REMARK    1  A    between atoms: N_1  and  C_14 
REMARK    2  A    between atoms: C_5  and  C_12 
REMARK    3  A    between atoms: Se_10  and  C_11 
REMARK    4  A    between atoms: C_11  and  C_12 
REMARK    5  A    between atoms: C_12  and  N_16 
REMARK       I    between atoms: C_13  and  N_16 
REMARK    6  A    between atoms: C_13  and  C_14 
ROOT
HETATM    1  O           1     -22.842  -2.943 -14.918  0.00  0.00    -0.272 OA
HETATM    2  H           1     -24.093  -1.462 -12.453  0.00  0.00     0.163 HD
HETATM    3  C           1     -23.453  -2.093 -14.316  0.00  0.00     0.243 C 
HETATM    4  N           1     -23.582  -2.175 -12.957  0.00  0.00    -0.345 N 
ENDROOT
BRANCH   4   5
HETATM    5  C           1     -22.986  -3.284 -12.238  0.00  0.00     0.185 C 
BRANCH   5   6
HETATM    6  C           1     -24.003  -3.872 -11.291  0.00  0.00     0.196 C 
HETATM    7  O           1     -23.872  -5.047 -10.884  0.00  0.00    -0.646 OA
HETATM    8  O           1     -24.976  -3.185 -10.912  0.00  0.00    -0.646 OA
ENDBRANCH   5   6
BRANCH   5   9
HETATM    9  C           1     -21.782  -2.788 -11.447  0.00  0.00     0.039 C 
BRANCH   9  10
HETATM   10 Se           1     -20.567  -4.274 -11.110  0.00  0.00     0.000 Se
HETATM   11  H           1     -20.070  -3.730  -9.836  0.00  0.00     0.000 HD
ENDBRANCH   9  10
ENDBRANCH   5   9
ENDBRANCH   4   5
BRANCH   3  12
HETATM   12  C           1     -24.073  -0.939 -15.065  0.00  0.00     0.332 C 
BRANCH  12  13
HETATM   13  N           1     -23.082  -0.385 -16.045  0.00  0.00    -0.071 N 
HETATM   14  H           1     -22.367   0.183 -15.536  0.00  0.00     0.274 HD
HETATM   15  H           1     -22.608  -1.172 -16.544  0.00  0.00     0.274 HD
HETATM   16  H           1     -23.578   0.219 -16.739  0.00  0.00     0.274 HD
ENDBRANCH  12  13
ENDBRANCH   3  12
TORSDOF 6
ENDMDL
MODEL 2
REMARK VINA RESULT:      -4.9      1.605      1.725
REMARK  6 active torsions:
REMARK  status: ('A' for Active; 'I' for Inactive)
REMARK    1  A    between atoms: N_1  and  C_14 
REMARK    2  A    between atoms: C_5  and  C_12 
REMARK    3  A    between atoms: Se_10  and  C_11 
REMARK    4  A    between atoms: C_11  and  C_12 
REMARK    5  A    between atoms: C_12  and  N_16 
REMARK       I    between atoms: C_13  and  N_16 
REMARK    6  A    between atoms: C_13  and  C_14 
ROOT
HETATM    1  O           1     -24.438  -3.992 -13.614  0.00  0.00    -0.272 OA
HETATM    2  H           1     -22.708  -2.209 -11.699  0.00  0.00     0.163 HD
HETATM    3  C           1     -23.772  -3.048 -13.263  0.00  0.00     0.243 C 
HETATM    4  N           1     -23.267  -3.000 -11.993  0.00  0.00    -0.345 N 
ENDROOT
BRANCH   4   5
HETATM    5  C           1     -23.533  -4.083 -11.065  0.00  0.00     0.185 C 
BRANCH   5   6
HETATM    6  C           1     -24.439  -3.590  -9.964  0.00  0.00     0.196 C 
HETATM    7  O           1     -24.040  -3.588  -8.780  0.00  0.00    -0.646 OA
HETATM    8  O           1     -25.588  -3.181 -10.236  0.00  0.00    -0.646 OA
ENDBRANCH   5   6
BRANCH   5   9
HETATM    9  C           1     -22.221  -4.570 -10.464  0.00  0.00     0.039 C 
BRANCH   9  10
HETATM   10 Se           1     -20.745  -3.517 -11.180  0.00  0.00     0.000 Se
HETATM   11  H           1     -21.616  -2.570 -11.895  0.00  0.00     0.000 HD
ENDBRANCH   9  10
ENDBRANCH   5   9
ENDBRANCH   4   5
BRANCH   3  12
HETATM   12  C           1     -23.495  -1.921 -14.228  0.00  0.00     0.332 C 
BRANCH  12  13
HETATM   13  N           1     -22.599  -2.410 -15.327  0.00  0.00    -0.071 N 
HETATM   14  H           1     -23.121  -3.086 -15.929  0.00  0.00     0.274 HD
HETATM   15  H           1     -22.286  -1.599 -15.907  0.00  0.00     0.274 HD
HETATM   16  H           1     -21.765  -2.884 -14.912  0.00  0.00     0.274 HD
ENDBRANCH  12  13
ENDBRANCH   3  12
TORSDOF 6
ENDMDL
MODEL 3
REMARK VINA RESULT:      -4.8      2.445      2.866
REMARK  6 active torsions:
REMARK  status: ('A' for Active; 'I' for Inactive)
REMARK    1  A    between atoms: N_1  and  C_14 
REMARK    2  A    between atoms: C_5  and  C_12 
REMARK    3  A    between atoms: Se_10  and  C_11 
REMARK    4  A    between atoms: C_11  and  C_12 
REMARK    5  A    between atoms: C_12  and  N_16 
REMARK       I    between atoms: C_13  and  N_16 
REMARK    6  A    between atoms: C_13  and  C_14 
ROOT
HETATM    1  O           1     -23.832  -2.219 -12.953  0.00  0.00    -0.272 OA
HETATM    2  H           1     -21.286  -4.036 -13.190  0.00  0.00     0.163 HD
HETATM    3  C           1     -22.924  -2.807 -13.489  0.00  0.00     0.243 C 
HETATM    4  N           1     -22.046  -3.542 -12.740  0.00  0.00    -0.345 N 
ENDROOT
BRANCH   4   5
HETATM    5  C           1     -22.206  -3.616 -11.301  0.00  0.00     0.185 C 
BRANCH   5   6
HETATM    6  C           1     -20.901  -4.037 -10.672  0.00  0.00     0.196 C 
HETATM    7  O           1     -19.886  -4.196 -11.385  0.00  0.00    -0.646 OA
HETATM    8  O           1     -20.833  -4.226  -9.439  0.00  0.00    -0.646 OA
ENDBRANCH   5   6
BRANCH   5   9
HETATM    9  C           1     -23.286  -4.635 -10.961  0.00  0.00     0.039 C 
BRANCH   9  10
HETATM   10 Se           1     -24.569  -3.838  -9.728  0.00  0.00     0.000 Se
HETATM   11  H           1     -25.378  -3.219 -10.789  0.00  0.00     0.000 HD
ENDBRANCH   9  10
ENDBRANCH   5   9
ENDBRANCH   4   5
BRANCH   3  12
HETATM   12  C           1     -22.758  -2.731 -14.987  0.00  0.00     0.332 C 
BRANCH  12  13
HETATM   13  N           1     -23.196  -1.381 -15.473  0.00  0.00    -0.071 N 
HETATM   14  H           1     -24.236  -1.366 -15.572  0.00  0.00     0.274 HD
HETATM   15  H           1     -22.902  -0.651 -14.785  0.00  0.00     0.274 HD
HETATM   16  H           1     -22.754  -1.184 -16.400  0.00  0.00     0.274 HD
ENDBRANCH  12  13
ENDBRANCH   3  12
TORSDOF 6
ENDMDL
MODEL 4
REMARK VINA RESULT:      -4.3      3.321      4.234
REMARK  6 active torsions:
REMARK  status: ('A' for Active; 'I' for Inactive)
REMARK    1  A    between atoms: N_1  and  C_14 
REMARK    2  A    between atoms: C_5  and  C_12 
REMARK    3  A    between atoms: Se_10  and  C_11 
REMARK    4  A    between atoms: C_11  and  C_12 
REMARK    5  A    between atoms: C_12  and  N_16 
REMARK       I    between atoms: C_13  and  N_16 
REMARK    6  A    between atoms: C_13  and  C_14 
ROOT
HETATM    1  O           1     -23.650  -4.778 -10.615  0.00  0.00    -0.272 OA
HETATM    2  H           1     -21.030  -3.105 -10.191  0.00  0.00     0.163 HD
HETATM    3  C           1     -22.815  -3.933 -10.833  0.00  0.00     0.243 C 
HETATM    4  N           1     -21.730  -3.813 -10.008  0.00  0.00    -0.345 N 
ENDROOT
BRANCH   4   5
HETATM    5  C           1     -21.583  -4.700  -8.870  0.00  0.00     0.185 C 
BRANCH   5   6
HETATM    6  C           1     -22.164  -4.042  -7.643  0.00  0.00     0.196 C 
HETATM    7  O           1     -21.565  -3.086  -7.103  0.00  0.00    -0.646 OA
HETATM    8  O           1     -23.244  -4.451  -7.166  0.00  0.00    -0.646 OA
ENDBRANCH   5   6
BRANCH   5   9
HETATM    9  C           1     -20.105  -4.989  -8.640  0.00  0.00     0.039 C 
BRANCH   9  10
HETATM   10 Se           1     -19.886  -5.975  -6.973  0.00  0.00     0.000 Se
HETATM   11  H           1     -20.844  -7.031  -7.337  0.00  0.00     0.000 HD
ENDBRANCH   9  10
ENDBRANCH   5   9
ENDBRANCH   4   5
BRANCH   3  12
HETATM   12  C           1     -22.968  -3.010 -12.017  0.00  0.00     0.332 C 
BRANCH  12  13
HETATM   13  N           1     -22.051  -3.451 -13.119  0.00  0.00    -0.071 N 
HETATM   14  H           1     -21.090  -3.082 -12.942  0.00  0.00     0.274 HD
HETATM   15  H           1     -22.022  -4.496 -13.151  0.00  0.00     0.274 HD
HETATM   16  H           1     -22.404  -3.085 -14.033  0.00  0.00     0.274 HD
ENDBRANCH  12  13
ENDBRANCH   3  12
TORSDOF 6
ENDMDL
MODEL 5
REMARK VINA RESULT:      -4.3      3.992      5.002
REMARK  6 active torsions:
REMARK  status: ('A' for Active; 'I' for Inactive)
REMARK    1  A    between atoms: N_1  and  C_14 
REMARK    2  A    between atoms: C_5  and  C_12 
REMARK    3  A    between atoms: Se_10  and  C_11 
REMARK    4  A    between atoms: C_11  and  C_12 
REMARK    5  A    between atoms: C_12  and  N_16 
REMARK       I    between atoms: C_13  and  N_16 
REMARK    6  A    between atoms: C_13  and  C_14 
ROOT
HETATM    1  O           1     -23.713  -5.413 -10.195  0.00  0.00    -0.272 OA
HETATM    2  H           1     -22.648  -2.861  -8.714  0.00  0.00     0.163 HD
HETATM    3  C           1     -23.662  -4.253  -9.860  0.00  0.00     0.243 C 
HETATM    4  N           1     -22.691  -3.833  -8.994  0.00  0.00    -0.345 N 
ENDROOT
BRANCH   4   5
HETATM    5  C           1     -21.722  -4.779  -8.476  0.00  0.00     0.185 C 
BRANCH   5   6
HETATM    6  C           1     -21.808  -4.812  -6.970  0.00  0.00     0.196 C 
HETATM    7  O           1     -22.924  -4.853  -6.408  0.00  0.00    -0.646 OA
HETATM    8  O           1     -20.764  -4.800  -6.283  0.00  0.00    -0.646 OA
ENDBRANCH   5   6
BRANCH   5   9
HETATM    9  C           1     -20.321  -4.351  -8.895  0.00  0.00     0.039 C 
BRANCH   9  10
HETATM   10 Se           1     -20.242  -4.193 -10.836  0.00  0.00     0.000 Se
HETATM   11  H           1     -19.091  -3.276 -10.830  0.00  0.00     0.000 HD
ENDBRANCH   9  10
ENDBRANCH   5   9
ENDBRANCH   4   5
BRANCH   3  12
HETATM   12  C           1     -24.671  -3.269 -10.399  0.00  0.00     0.332 C 
BRANCH  12  13
HETATM   13  N           1     -25.967  -3.424  -9.661  0.00  0.00    -0.071 N 
HETATM   14  H           1     -26.713  -3.733 -10.326  0.00  0.00     0.274 HD
HETATM   15  H           1     -25.855  -4.140  -8.907  0.00  0.00     0.274 HD
HETATM   16  H           1     -26.237  -2.508  -9.235  0.00  0.00     0.274 HD
ENDBRANCH  12  13
ENDBRANCH   3  12
TORSDOF 6
ENDMDL
MODEL 6
REMARK VINA RESULT:      -4.2      4.105      5.981
REMARK  6 active torsions:
REMARK  status: ('A' for Active; 'I' for Inactive)
REMARK    1  A    between atoms: N_1  and  C_14 
REMARK    2  A    between atoms: C_5  and  C_12 
REMARK    3  A    between atoms: Se_10  and  C_11 
REMARK    4  A    between atoms: C_11  and  C_12 
REMARK    5  A    between atoms: C_12  and  N_16 
REMARK       I    between atoms: C_13  and  N_16 
REMARK    6  A    between atoms: C_13  and  C_14 
ROOT
HETATM    1  O           1     -20.484  -5.274  -8.563  0.00  0.00    -0.272 OA
HETATM    2  H           1     -22.659  -3.039  -8.900  0.00  0.00     0.163 HD
HETATM    3  C           1     -21.194  -4.348  -8.251  0.00  0.00     0.243 C 
HETATM    4  N           1     -22.064  -3.815  -9.162  0.00  0.00    -0.345 N 
ENDROOT
BRANCH   4   5
HETATM    5  C           1     -22.136  -4.361 -10.503  0.00  0.00     0.185 C 
BRANCH   5   6
HETATM    6  C           1     -21.536  -3.378 -11.478  0.00  0.00     0.196 C 
HETATM    7  O           1     -20.352  -3.002 -11.339  0.00  0.00    -0.646 OA
HETATM    8  O           1     -22.223  -2.941 -12.426  0.00  0.00    -0.646 OA
ENDBRANCH   5   6
BRANCH   5   9
HETATM    9  C           1     -23.592  -4.618 -10.870  0.00  0.00     0.039 C 
BRANCH   9  10
HETATM   10 Se           1     -24.747  -3.488  -9.779  0.00  0.00     0.000 Se
HETATM   11  H           1     -25.200  -4.589  -8.914  0.00  0.00     0.000 HD
ENDBRANCH   9  10
ENDBRANCH   5   9
ENDBRANCH   4   5
BRANCH   3  12
HETATM   12  C           1     -21.119  -3.779  -6.855  0.00  0.00     0.332 C 
BRANCH  12  13
HETATM   13  N           1     -20.196  -4.616  -6.021  0.00  0.00    -0.071 N 
HETATM   14  H           1     -19.246  -4.630  -6.457  0.00  0.00     0.274 HD
HETATM   15  H           1     -20.131  -4.210  -5.060  0.00  0.00     0.274 HD
HETATM   16  H           1     -20.568  -5.592  -5.962  0.00  0.00     0.274 HD
ENDBRANCH  12  13
ENDBRANCH   3  12
TORSDOF 6
ENDMDL
MODEL 7
REMARK VINA RESULT:      -4.1     15.774     16.822
REMARK  6 active torsions:
REMARK  status: ('A' for Active; 'I' for Inactive)
REMARK    1  A    between atoms: N_1  and  C_14 
REMARK    2  A    between atoms: C_5  and  C_12 
REMARK    3  A    between atoms: Se_10  and  C_11 
REMARK    4  A    between atoms: C_11  and  C_12 
REMARK    5  A    between atoms: C_12  and  N_16 
REMARK       I    between atoms: C_13  and  N_16 
REMARK    6  A    between atoms: C_13  and  C_14 
ROOT
HETATM    1  O           1     -11.240   4.270 -22.332  0.00  0.00    -0.272 OA
HETATM    2  H           1     -12.618   4.917 -19.589  0.00  0.00     0.163 HD
HETATM    3  C           1     -11.956   4.105 -21.374  0.00  0.00     0.243 C 
HETATM    4  N           1     -12.017   5.055 -20.392  0.00  0.00    -0.345 N 
ENDROOT
BRANCH   4   5
HETATM    5  C           1     -11.222   6.263 -20.501  0.00  0.00     0.185 C 
BRANCH   5   6
HETATM    6  C           1      -9.960   6.107 -19.689  0.00  0.00     0.196 C 
HETATM    7  O           1     -10.030   5.895 -18.459  0.00  0.00    -0.646 OA
HETATM    8  O           1      -8.844   6.188 -20.246  0.00  0.00    -0.646 OA
ENDBRANCH   5   6
BRANCH   5   9
HETATM    9  C           1     -12.022   7.448 -19.974  0.00  0.00     0.039 C 
BRANCH   9  10
HETATM   10 Se           1     -10.981   9.082 -20.185  0.00  0.00     0.000 Se
HETATM   11  H           1     -10.308   8.958 -18.882  0.00  0.00     0.000 HD
ENDBRANCH   9  10
ENDBRANCH   5   9
ENDBRANCH   4   5
BRANCH   3  12
HETATM   12  C           1     -12.784   2.848 -21.260  0.00  0.00     0.332 C 
BRANCH  12  13
HETATM   13  N           1     -13.857   2.858 -22.308  0.00  0.00    -0.071 N 
HETATM   14  H           1     -13.489   2.433 -23.189  0.00  0.00     0.274 HD
HETATM   15  H           1     -14.677   2.304 -21.971  0.00  0.00     0.274 HD
HETATM   16  H           1     -14.155   3.843 -22.493  0.00  0.00     0.274 HD
ENDBRANCH  12  13
ENDBRANCH   3  12
TORSDOF 6
ENDMDL
MODEL 8
REMARK VINA RESULT:      -4.1      5.648      7.659
REMARK  6 active torsions:
REMARK  status: ('A' for Active; 'I' for Inactive)
REMARK    1  A    between atoms: N_1  and  C_14 
REMARK    2  A    between atoms: C_5  and  C_12 
REMARK    3  A    between atoms: Se_10  and  C_11 
REMARK    4  A    between atoms: C_11  and  C_12 
REMARK    5  A    between atoms: C_12  and  N_16 
REMARK       I    between atoms: C_13  and  N_16 
REMARK    6  A    between atoms: C_13  and  C_14 
ROOT
HETATM    1  O           1     -21.010  -6.950  -6.799  0.00  0.00    -0.272 OA
HETATM    2  H           1     -21.714  -3.917  -6.419  0.00  0.00     0.163 HD
HETATM    3  C           1     -21.205  -5.912  -6.213  0.00  0.00     0.243 C 
HETATM    4  N           1     -21.550  -4.786  -6.910  0.00  0.00    -0.345 N 
ENDROOT
BRANCH   4   5
HETATM    5  C           1     -21.680  -4.838  -8.353  0.00  0.00     0.185 C 
BRANCH   5   6
HETATM    6  C           1     -20.391  -4.381  -8.991  0.00  0.00     0.196 C 
HETATM    7  O           1     -20.130  -4.699 -10.171  0.00  0.00    -0.646 OA
HETATM    8  O           1     -19.586  -3.681  -8.340  0.00  0.00    -0.646 OA
ENDBRANCH   5   6
BRANCH   5   9
HETATM    9  C           1     -22.817  -3.925  -8.794  0.00  0.00     0.039 C 
BRANCH   9  10
HETATM   10 Se           1     -23.738  -4.720 -10.316  0.00  0.00     0.000 Se
HETATM   11  H           1     -22.545  -5.417 -10.821  0.00  0.00     0.000 HD
ENDBRANCH   9  10
ENDBRANCH   5   9
ENDBRANCH   4   5
BRANCH   3  12
HETATM   12  C           1     -21.069  -5.857  -4.711  0.00  0.00     0.332 C 
BRANCH  12  13
HETATM   13  N           1     -22.371  -6.245  -4.075  0.00  0.00    -0.071 N 
HETATM   14  H           1     -22.192  -6.627  -3.119  0.00  0.00     0.274 HD
HETATM   15  H           1     -22.987  -5.404  -4.004  0.00  0.00     0.274 HD
HETATM   16  H           1     -22.841  -6.973  -4.660  0.00  0.00     0.274 HD
ENDBRANCH  12  13
ENDBRANCH   3  12
TORSDOF 6
ENDMDL
MODEL 9
REMARK VINA RESULT:      -4.0      6.190      7.539
REMARK  6 active torsions:
REMARK  status: ('A' for Active; 'I' for Inactive)
REMARK    1  A    between atoms: N_1  and  C_14 
REMARK    2  A    between atoms: C_5  and  C_12 
REMARK    3  A    between atoms: Se_10  and  C_11 
REMARK    4  A    between atoms: C_11  and  C_12 
REMARK    5  A    between atoms: C_12  and  N_16 
REMARK       I    between atoms: C_13  and  N_16 
REMARK    6  A    between atoms: C_13  and  C_14 
ROOT
HETATM    1  O           1     -20.801  -3.614  -7.107  0.00  0.00    -0.272 OA
HETATM    2  H           1     -23.051  -5.799  -7.123  0.00  0.00     0.163 HD
HETATM    3  C           1     -21.800  -4.187  -7.468  0.00  0.00     0.243 C 
HETATM    4  N           1     -22.213  -5.319  -6.820  0.00  0.00    -0.345 N 
ENDROOT
BRANCH   4   5
HETATM    5  C           1     -21.449  -5.832  -5.699  0.00  0.00     0.185 C 
BRANCH   5   6
HETATM    6  C           1     -20.562  -6.958  -6.169  0.00  0.00     0.196 C 
HETATM    7  O           1     -20.872  -8.144  -5.919  0.00  0.00    -0.646 OA
HETATM    8  O           1     -19.520  -6.707  -6.810  0.00  0.00    -0.646 OA
ENDBRANCH   5   6
BRANCH   5   9
HETATM    9  C           1     -22.403  -6.348  -4.629  0.00  0.00     0.039 C 
BRANCH   9  10
HETATM   10 Se           1     -21.522  -6.296  -2.891  0.00  0.00     0.000 Se
HETATM   11  H           1     -20.465  -5.369  -3.326  0.00  0.00     0.000 HD
ENDBRANCH   9  10
ENDBRANCH   5   9
ENDBRANCH   4   5
BRANCH   3  12
HETATM   12  C           1     -22.595  -3.654  -8.635  0.00  0.00     0.332 C 
BRANCH  12  13
HETATM   13  N           1     -24.056  -3.891  -8.398  0.00  0.00    -0.071 N 
HETATM   14  H           1     -24.547  -2.974  -8.294  0.00  0.00     0.274 HD
HETATM   15  H           1     -24.461  -4.412  -9.209  0.00  0.00     0.274 HD
HETATM   16  H           1     -24.181  -4.454  -7.525  0.00  0.00     0.274 HD
ENDBRANCH  12  13
ENDBRANCH   3  12
TORSDOF 6
ENDMDL
