MODEL 1
REMARK VINA RESULT:      -7.3      0.000      0.000
REMARK  9 active torsions:
REMARK  status: ('A' for Active; 'I' for Inactive)
REMARK    1  A    between atoms: N_3  and  C_11 
REMARK       I    between atoms: N_3  and  C_23 
REMARK    2  A    between atoms: C_6  and  C_18 
REMARK    3  A    between atoms: C_6  and  C_26 
REMARK    4  A    between atoms: C_11  and  C_12 
REMARK    5  A    between atoms: C_11  and  C_15 
REMARK    6  A    between atoms: C_12  and  C_13 
REMARK    7  A    between atoms: C_13  and  C_22 
REMARK       I    between atoms: N_17  and  C_22 
REMARK    8  A    between atoms: C_18  and  C_23 
REMARK    9  A    between atoms: C_18  and  N_19 
ROOT
HETATM    1  N           1     -34.934  -1.665 -13.155  0.00  0.00    -0.345 N 
HETATM    2  H           1     -35.288  -2.021 -14.035  0.00  0.00     0.163 HD
HETATM    3  C           1     -34.300  -2.508 -12.284  0.00  0.00     0.249 C 
HETATM    4  O           1     -33.877  -2.086 -11.234  0.00  0.00    -0.271 OA
ENDROOT
BRANCH   3   5
HETATM    5  C           1     -34.127  -3.967 -12.634  0.00  0.00     0.280 C 
BRANCH   5   6
HETATM    6  C           1     -33.095  -4.594 -11.705  0.00  0.00     0.101 C 
BRANCH   6   7
HETATM    7  C           1     -33.712  -5.749 -10.980  0.00  0.00     0.028 A 
HETATM    8  N           1     -33.197  -7.020 -10.959  0.00  0.00    -0.355 N 
HETATM    9  C           1     -34.030  -7.718 -10.222  0.00  0.00     0.180 A 
ATOM     10  HN          1     -32.349  -7.352 -11.418  1.00  0.00     0.166 HD
HETATM   11  N           1     -35.062  -6.948  -9.767  0.00  0.00    -0.360 N 
HETATM   12  H           1     -35.857  -7.269  -9.160  0.00  0.00     0.166 HD
HETATM   13  C           1     -34.872  -5.681 -10.245  0.00  0.00     0.114 A 
ENDBRANCH   6   7
ENDBRANCH   5   6
BRANCH   5  14
HETATM   14  N           1     -33.660  -4.088 -14.053  0.00  0.00    -0.066 N 
HETATM   15  H           1     -32.810  -3.496 -14.192  0.00  0.00     0.275 HD
HETATM   16  H           1     -34.417  -3.765 -14.698  0.00  0.00     0.275 HD
HETATM   17  H           1     -33.429  -5.085 -14.261  0.00  0.00     0.275 HD
ENDBRANCH   5  14
ENDBRANCH   3   5
BRANCH   1  18
HETATM   18  C           1     -35.099  -0.265 -12.819  0.00  0.00     0.186 C 
BRANCH  18  19
HETATM   19  C           1     -35.252   0.549 -14.096  0.00  0.00     0.045 C 
BRANCH  19  20
HETATM   20  C           1     -35.464  -0.390 -15.276  0.00  0.00     0.105 C 
BRANCH  20  21
HETATM   21  C           1     -36.834  -0.159 -15.865  0.00  0.00     0.215 C 
HETATM   22  O           1     -37.157  -0.723 -16.884  0.00  0.00    -0.274 OA
HETATM   23  N           1     -37.711   0.690 -15.246  0.00  0.00    -0.370 N 
HETATM   24  H           1     -37.441   1.162 -14.392  0.00  0.00     0.159 HD
HETATM   25  H           1     -38.630   0.845 -15.641  0.00  0.00     0.159 HD
ENDBRANCH  20  21
ENDBRANCH  19  20
ENDBRANCH  18  19
BRANCH  18  26
HETATM   26  C           1     -36.331  -0.095 -11.964  0.00  0.00     0.196 C 
HETATM   27  O           1     -36.241   0.435 -10.836  0.00  0.00    -0.646 OA
HETATM   28  O           1     -37.441  -0.485 -12.386  0.00  0.00    -0.646 OA
ENDBRANCH  18  26
ENDBRANCH   1  18
TORSDOF 9
ENDMDL
MODEL 2
REMARK VINA RESULT:      -7.1     12.077     13.971
REMARK  9 active torsions:
REMARK  status: ('A' for Active; 'I' for Inactive)
REMARK    1  A    between atoms: N_3  and  C_11 
REMARK       I    between atoms: N_3  and  C_23 
REMARK    2  A    between atoms: C_6  and  C_18 
REMARK    3  A    between atoms: C_6  and  C_26 
REMARK    4  A    between atoms: C_11  and  C_12 
REMARK    5  A    between atoms: C_11  and  C_15 
REMARK    6  A    between atoms: C_12  and  C_13 
REMARK    7  A    between atoms: C_13  and  C_22 
REMARK       I    between atoms: N_17  and  C_22 
REMARK    8  A    between atoms: C_18  and  C_23 
REMARK    9  A    between atoms: C_18  and  N_19 
ROOT
HETATM    1  N           1     -22.168  -4.829  -8.968  0.00  0.00    -0.345 N 
HETATM    2  H           1     -22.160  -5.781  -9.312  0.00  0.00     0.163 HD
HETATM    3  C           1     -21.655  -4.545  -7.731  0.00  0.00     0.249 C 
HETATM    4  O           1     -21.664  -3.410  -7.320  0.00  0.00    -0.271 OA
ENDROOT
BRANCH   3   5
HETATM    5  C           1     -21.079  -5.651  -6.881  0.00  0.00     0.280 C 
BRANCH   5   6
HETATM    6  C           1     -20.747  -5.107  -5.497  0.00  0.00     0.101 C 
BRANCH   6   7
HETATM    7  C           1     -21.133  -6.114  -4.458  0.00  0.00     0.028 A 
HETATM    8  N           1     -21.397  -5.817  -3.146  0.00  0.00    -0.355 N 
HETATM    9  C           1     -21.692  -6.967  -2.584  0.00  0.00     0.180 A 
ATOM     10  HN          1     -21.370  -4.899  -2.701  1.00  0.00     0.166 HD
HETATM   11  N           1     -21.629  -7.994  -3.482  0.00  0.00    -0.360 N 
HETATM   12  H           1     -21.821  -9.007  -3.283  0.00  0.00     0.166 HD
HETATM   13  C           1     -21.271  -7.462  -4.690  0.00  0.00     0.114 A 
ENDBRANCH   6   7
ENDBRANCH   5   6
BRANCH   5  14
HETATM   14  N           1     -19.830  -6.176  -7.524  0.00  0.00    -0.066 N 
HETATM   15  H           1     -19.313  -5.388  -7.975  0.00  0.00     0.275 HD
HETATM   16  H           1     -20.083  -6.887  -8.247  0.00  0.00     0.275 HD
HETATM   17  H           1     -19.224  -6.620  -6.798  0.00  0.00     0.275 HD
ENDBRANCH   5  14
ENDBRANCH   3   5
BRANCH   1  18
HETATM   18  C           1     -22.721  -3.767  -9.785  0.00  0.00     0.186 C 
BRANCH  18  19
HETATM   19  C           1     -22.249  -3.933 -11.223  0.00  0.00     0.045 C 
BRANCH  19  20
HETATM   20  C           1     -22.436  -2.622 -11.975  0.00  0.00     0.105 C 
BRANCH  20  21
HETATM   21  C           1     -23.227  -2.872 -13.235  0.00  0.00     0.215 C 
HETATM   22  O           1     -24.434  -2.919 -13.192  0.00  0.00    -0.274 OA
HETATM   23  N           1     -22.578  -3.046 -14.427  0.00  0.00    -0.370 N 
HETATM   24  H           1     -21.567  -3.006 -14.464  0.00  0.00     0.159 HD
HETATM   25  H           1     -23.109  -3.213 -15.273  0.00  0.00     0.159 HD
ENDBRANCH  20  21
ENDBRANCH  19  20
ENDBRANCH  18  19
BRANCH  18  26
HETATM   26  C           1     -24.228  -3.832  -9.740  0.00  0.00     0.196 C 
HETATM   27  O           1     -24.891  -2.802  -9.490  0.00  0.00    -0.646 OA
HETATM   28  O           1     -24.812  -4.915  -9.953  0.00  0.00    -0.646 OA
ENDBRANCH  18  26
ENDBRANCH   1  18
TORSDOF 9
ENDMDL
MODEL 3
REMARK VINA RESULT:      -6.7      2.168      6.819
REMARK  9 active torsions:
REMARK  status: ('A' for Active; 'I' for Inactive)
REMARK    1  A    between atoms: N_3  and  C_11 
REMARK       I    between atoms: N_3  and  C_23 
REMARK    2  A    between atoms: C_6  and  C_18 
REMARK    3  A    between atoms: C_6  and  C_26 
REMARK    4  A    between atoms: C_11  and  C_12 
REMARK    5  A    between atoms: C_11  and  C_15 
REMARK    6  A    between atoms: C_12  and  C_13 
REMARK    7  A    between atoms: C_13  and  C_22 
REMARK       I    between atoms: N_17  and  C_22 
REMARK    8  A    between atoms: C_18  and  C_23 
REMARK    9  A    between atoms: C_18  and  N_19 
ROOT
HETATM    1  N           1     -35.018  -2.659 -11.947  0.00  0.00    -0.345 N 
HETATM    2  H           1     -35.759  -3.283 -12.239  0.00  0.00     0.163 HD
HETATM    3  C           1     -35.192  -1.305 -12.032  0.00  0.00     0.249 C 
HETATM    4  O           1     -34.308  -0.559 -11.684  0.00  0.00    -0.271 OA
ENDROOT
BRANCH   3   5
HETATM    5  C           1     -36.489  -0.741 -12.559  0.00  0.00     0.280 C 
BRANCH   5   6
HETATM    6  C           1     -36.192   0.360 -13.569  0.00  0.00     0.101 C 
BRANCH   6   7
HETATM    7  C           1     -36.158  -0.221 -14.948  0.00  0.00     0.028 A 
HETATM    8  N           1     -35.116  -0.950 -15.460  0.00  0.00    -0.355 N 
HETATM    9  C           1     -35.482  -1.267 -16.681  0.00  0.00     0.180 A 
ATOM     10  HN          1     -34.242  -1.195 -14.992  1.00  0.00     0.166 HD
HETATM   11  N           1     -36.719  -0.771 -16.976  0.00  0.00    -0.360 N 
HETATM   12  H           1     -37.234  -0.885 -17.884  0.00  0.00     0.166 HD
HETATM   13  C           1     -37.166  -0.097 -15.874  0.00  0.00     0.114 A 
ENDBRANCH   6   7
ENDBRANCH   5   6
BRANCH   5  14
HETATM   14  N           1     -37.286  -0.175 -11.422  0.00  0.00    -0.066 N 
HETATM   15  H           1     -36.662   0.399 -10.811  0.00  0.00     0.275 HD
HETATM   16  H           1     -37.699  -0.956 -10.863  0.00  0.00     0.275 HD
HETATM   17  H           1     -38.054   0.426 -11.799  0.00  0.00     0.275 HD
ENDBRANCH   5  14
ENDBRANCH   3   5
BRANCH   1  18
HETATM   18  C           1     -33.772  -3.200 -11.440  0.00  0.00     0.186 C 
BRANCH  18  19
HETATM   19  C           1     -34.062  -4.150 -10.287  0.00  0.00     0.045 C 
BRANCH  19  20
HETATM   20  C           1     -35.052  -5.215 -10.742  0.00  0.00     0.105 C 
BRANCH  20  21
HETATM   21  C           1     -34.510  -6.583 -10.410  0.00  0.00     0.215 C 
HETATM   22  O           1     -35.129  -7.316  -9.674  0.00  0.00    -0.274 OA
HETATM   23  N           1     -33.318  -6.994 -10.941  0.00  0.00    -0.370 N 
HETATM   24  H           1     -32.800  -6.381 -11.558  0.00  0.00     0.159 HD
HETATM   25  H           1     -32.954  -7.912 -10.718  0.00  0.00     0.159 HD
ENDBRANCH  20  21
ENDBRANCH  19  20
ENDBRANCH  18  19
BRANCH  18  26
HETATM   26  C           1     -33.064  -3.949 -12.543  0.00  0.00     0.196 C 
HETATM   27  O           1     -33.535  -3.949 -13.701  0.00  0.00    -0.646 OA
HETATM   28  O           1     -32.006  -4.568 -12.297  0.00  0.00    -0.646 OA
ENDBRANCH  18  26
ENDBRANCH   1  18
TORSDOF 9
ENDMDL
MODEL 4
REMARK VINA RESULT:      -6.7      3.071      6.594
REMARK  9 active torsions:
REMARK  status: ('A' for Active; 'I' for Inactive)
REMARK    1  A    between atoms: N_3  and  C_11 
REMARK       I    between atoms: N_3  and  C_23 
REMARK    2  A    between atoms: C_6  and  C_18 
REMARK    3  A    between atoms: C_6  and  C_26 
REMARK    4  A    between atoms: C_11  and  C_12 
REMARK    5  A    between atoms: C_11  and  C_15 
REMARK    6  A    between atoms: C_12  and  C_13 
REMARK    7  A    between atoms: C_13  and  C_22 
REMARK       I    between atoms: N_17  and  C_22 
REMARK    8  A    between atoms: C_18  and  C_23 
REMARK    9  A    between atoms: C_18  and  N_19 
ROOT
HETATM    1  N           1     -35.447  -1.920 -11.553  0.00  0.00    -0.345 N 
HETATM    2  H           1     -36.241  -2.477 -11.265  0.00  0.00     0.163 HD
HETATM    3  C           1     -35.611  -0.590 -11.832  0.00  0.00     0.249 C 
HETATM    4  O           1     -34.664   0.076 -12.177  0.00  0.00    -0.271 OA
ENDROOT
BRANCH   3   5
HETATM    5  C           1     -36.975   0.045 -11.711  0.00  0.00     0.280 C 
BRANCH   5   6
HETATM    6  C           1     -37.702  -0.539 -10.506  0.00  0.00     0.101 C 
BRANCH   6   7
HETATM    7  C           1     -37.424   0.302  -9.299  0.00  0.00     0.028 A 
HETATM    8  N           1     -36.748  -0.130  -8.187  0.00  0.00    -0.355 N 
HETATM    9  C           1     -36.724   0.901  -7.374  0.00  0.00     0.180 A 
ATOM     10  HN          1     -36.348  -1.055  -8.027  1.00  0.00     0.166 HD
HETATM   11  N           1     -37.359   1.981  -7.917  0.00  0.00    -0.360 N 
HETATM   12  H           1     -37.476   2.924  -7.469  0.00  0.00     0.166 HD
HETATM   13  C           1     -37.814   1.612  -9.153  0.00  0.00     0.114 A 
ENDBRANCH   6   7
ENDBRANCH   5   6
BRANCH   5  14
HETATM   14  N           1     -37.767  -0.230 -12.954  0.00  0.00    -0.066 N 
HETATM   15  H           1     -38.649  -0.729 -12.701  0.00  0.00     0.275 HD
HETATM   16  H           1     -37.202  -0.827 -13.601  0.00  0.00     0.275 HD
HETATM   17  H           1     -37.999   0.672 -13.427  0.00  0.00     0.275 HD
ENDBRANCH   5  14
ENDBRANCH   3   5
BRANCH   1  18
HETATM   18  C           1     -34.136  -2.529 -11.669  0.00  0.00     0.186 C 
BRANCH  18  19
HETATM   19  C           1     -33.963  -3.574 -10.576  0.00  0.00     0.045 C 
BRANCH  19  20
HETATM   20  C           1     -35.018  -4.660 -10.738  0.00  0.00     0.105 C 
BRANCH  20  21
HETATM   21  C           1     -34.383  -6.013 -10.532  0.00  0.00     0.215 C 
HETATM   22  O           1     -34.892  -6.811  -9.779  0.00  0.00    -0.274 OA
HETATM   23  N           1     -33.232  -6.339 -11.196  0.00  0.00    -0.370 N 
HETATM   24  H           1     -32.806  -5.672 -11.827  0.00  0.00     0.159 HD
HETATM   25  H           1     -32.806  -7.247 -11.058  0.00  0.00     0.159 HD
ENDBRANCH  20  21
ENDBRANCH  19  20
ENDBRANCH  18  19
BRANCH  18  26
HETATM   26  C           1     -34.008  -3.190 -13.020  0.00  0.00     0.196 C 
HETATM   27  O           1     -34.797  -2.887 -13.941  0.00  0.00    -0.646 OA
HETATM   28  O           1     -33.113  -4.039 -13.217  0.00  0.00    -0.646 OA
ENDBRANCH  18  26
ENDBRANCH   1  18
TORSDOF 9
ENDMDL
MODEL 5
REMARK VINA RESULT:      -6.5      1.952      3.206
REMARK  9 active torsions:
REMARK  status: ('A' for Active; 'I' for Inactive)
REMARK    1  A    between atoms: N_3  and  C_11 
REMARK       I    between atoms: N_3  and  C_23 
REMARK    2  A    between atoms: C_6  and  C_18 
REMARK    3  A    between atoms: C_6  and  C_26 
REMARK    4  A    between atoms: C_11  and  C_12 
REMARK    5  A    between atoms: C_11  and  C_15 
REMARK    6  A    between atoms: C_12  and  C_13 
REMARK    7  A    between atoms: C_13  and  C_22 
REMARK       I    between atoms: N_17  and  C_22 
REMARK    8  A    between atoms: C_18  and  C_23 
REMARK    9  A    between atoms: C_18  and  N_19 
ROOT
HETATM    1  N           1     -35.352  -0.967 -13.737  0.00  0.00    -0.345 N 
HETATM    2  H           1     -35.318  -1.944 -13.998  0.00  0.00     0.163 HD
HETATM    3  C           1     -35.063  -0.593 -12.453  0.00  0.00     0.249 C 
HETATM    4  O           1     -35.104   0.572 -12.139  0.00  0.00    -0.271 OA
ENDROOT
BRANCH   3   5
HETATM    5  C           1     -34.691  -1.637 -11.427  0.00  0.00     0.280 C 
BRANCH   5   6
HETATM    6  C           1     -35.375  -2.954 -11.771  0.00  0.00     0.101 C 
BRANCH   6   7
HETATM    7  C           1     -34.399  -4.079 -11.616  0.00  0.00     0.028 A 
HETATM    8  N           1     -34.656  -5.246 -10.943  0.00  0.00    -0.355 N 
HETATM    9  C           1     -33.553  -5.952 -11.043  0.00  0.00     0.180 A 
ATOM     10  HN          1     -35.519  -5.509 -10.467  1.00  0.00     0.166 HD
HETATM   11  N           1     -32.595  -5.287 -11.754  0.00  0.00    -0.360 N 
HETATM   12  H           1     -31.629  -5.636 -11.973  0.00  0.00     0.166 HD
HETATM   13  C           1     -33.123  -4.083 -12.128  0.00  0.00     0.114 A 
ENDBRANCH   6   7
ENDBRANCH   5   6
BRANCH   5  14
HETATM   14  N           1     -35.136  -1.183 -10.069  0.00  0.00    -0.066 N 
HETATM   15  H           1     -34.400  -0.573  -9.648  0.00  0.00     0.275 HD
HETATM   16  H           1     -35.291  -2.016  -9.457  0.00  0.00     0.275 HD
HETATM   17  H           1     -36.028  -0.645 -10.156  0.00  0.00     0.275 HD
ENDBRANCH   5  14
ENDBRANCH   3   5
BRANCH   1  18
HETATM   18  C           1     -35.709   0.036 -14.722  0.00  0.00     0.186 C 
BRANCH  18  19
HETATM   19  C           1     -34.972  -0.246 -16.023  0.00  0.00     0.045 C 
BRANCH  19  20
HETATM   20  C           1     -35.532  -1.511 -16.661  0.00  0.00     0.105 C 
BRANCH  20  21
HETATM   21  C           1     -34.551  -2.643 -16.483  0.00  0.00     0.215 C 
HETATM   22  O           1     -34.550  -3.286 -15.459  0.00  0.00    -0.274 OA
HETATM   23  N           1     -33.662  -2.942 -17.479  0.00  0.00    -0.370 N 
HETATM   24  H           1     -33.662  -2.404 -18.336  0.00  0.00     0.159 HD
HETATM   25  H           1     -33.003  -3.702 -17.359  0.00  0.00     0.159 HD
ENDBRANCH  20  21
ENDBRANCH  19  20
ENDBRANCH  18  19
BRANCH  18  26
HETATM   26  C           1     -37.197  -0.008 -14.967  0.00  0.00     0.196 C 
HETATM   27  O           1     -37.709   0.729 -15.837  0.00  0.00    -0.646 OA
HETATM   28  O           1     -37.917  -0.783 -14.300  0.00  0.00    -0.646 OA
ENDBRANCH  18  26
ENDBRANCH   1  18
TORSDOF 9
ENDMDL
MODEL 6
REMARK VINA RESULT:      -6.4     13.021     16.290
REMARK  9 active torsions:
REMARK  status: ('A' for Active; 'I' for Inactive)
REMARK    1  A    between atoms: N_3  and  C_11 
REMARK       I    between atoms: N_3  and  C_23 
REMARK    2  A    between atoms: C_6  and  C_18 
REMARK    3  A    between atoms: C_6  and  C_26 
REMARK    4  A    between atoms: C_11  and  C_12 
REMARK    5  A    between atoms: C_11  and  C_15 
REMARK    6  A    between atoms: C_12  and  C_13 
REMARK    7  A    between atoms: C_13  and  C_22 
REMARK       I    between atoms: N_17  and  C_22 
REMARK    8  A    between atoms: C_18  and  C_23 
REMARK    9  A    between atoms: C_18  and  N_19 
ROOT
HETATM    1  N           1     -21.921  -5.877  -6.617  0.00  0.00    -0.345 N 
HETATM    2  H           1     -22.529  -6.618  -6.944  0.00  0.00     0.163 HD
HETATM    3  C           1     -21.830  -4.707  -7.321  0.00  0.00     0.249 C 
HETATM    4  O           1     -21.105  -3.823  -6.933  0.00  0.00    -0.271 OA
ENDROOT
BRANCH   3   5
HETATM    5  C           1     -22.635  -4.521  -8.585  0.00  0.00     0.280 C 
BRANCH   5   6
HETATM    6  C           1     -21.792  -3.792  -9.623  0.00  0.00     0.101 C 
BRANCH   6   7
HETATM    7  C           1     -22.544  -3.717 -10.915  0.00  0.00     0.028 A 
HETATM    8  N           1     -22.734  -2.569 -11.641  0.00  0.00    -0.355 N 
HETATM    9  C           1     -23.435  -2.935 -12.689  0.00  0.00     0.180 A 
ATOM     10  HN          1     -22.402  -1.631 -11.414  1.00  0.00     0.166 HD
HETATM   11  N           1     -23.706  -4.273 -12.668  0.00  0.00    -0.360 N 
HETATM   12  H           1     -24.248  -4.809 -13.390  0.00  0.00     0.166 HD
HETATM   13  C           1     -23.140  -4.789 -11.535  0.00  0.00     0.114 A 
ENDBRANCH   6   7
ENDBRANCH   5   6
BRANCH   5  14
HETATM   14  N           1     -23.861  -3.714  -8.280  0.00  0.00    -0.066 N 
HETATM   15  H           1     -24.629  -4.351  -7.968  0.00  0.00     0.275 HD
HETATM   16  H           1     -24.163  -3.200  -9.140  0.00  0.00     0.275 HD
HETATM   17  H           1     -23.648  -3.026  -7.522  0.00  0.00     0.275 HD
ENDBRANCH   5  14
ENDBRANCH   3   5
BRANCH   1  18
HETATM   18  C           1     -21.148  -6.056  -5.404  0.00  0.00     0.186 C 
BRANCH  18  19
HETATM   19  C           1     -22.072  -6.471  -4.269  0.00  0.00     0.045 C 
BRANCH  19  20
HETATM   20  C           1     -21.519  -5.954  -2.947  0.00  0.00     0.105 C 
BRANCH  20  21
HETATM   21  C           1     -21.804  -6.956  -1.855  0.00  0.00     0.215 C 
HETATM   22  O           1     -22.626  -6.706  -1.005  0.00  0.00    -0.274 OA
HETATM   23  N           1     -21.132  -8.148  -1.827  0.00  0.00    -0.370 N 
HETATM   24  H           1     -20.444  -8.358  -2.538  0.00  0.00     0.159 HD
HETATM   25  H           1     -21.323  -8.820  -1.094  0.00  0.00     0.159 HD
ENDBRANCH  20  21
ENDBRANCH  19  20
ENDBRANCH  18  19
BRANCH  18  26
HETATM   26  C           1     -20.108  -7.128  -5.624  0.00  0.00     0.196 C 
HETATM   27  O           1     -19.423  -7.129  -6.670  0.00  0.00    -0.646 OA
HETATM   28  O           1     -19.933  -8.013  -4.759  0.00  0.00    -0.646 OA
ENDBRANCH  18  26
ENDBRANCH   1  18
TORSDOF 9
ENDMDL
MODEL 7
REMARK VINA RESULT:      -6.3     13.486     16.725
REMARK  9 active torsions:
REMARK  status: ('A' for Active; 'I' for Inactive)
REMARK    1  A    between atoms: N_3  and  C_11 
REMARK       I    between atoms: N_3  and  C_23 
REMARK    2  A    between atoms: C_6  and  C_18 
REMARK    3  A    between atoms: C_6  and  C_26 
REMARK    4  A    between atoms: C_11  and  C_12 
REMARK    5  A    between atoms: C_11  and  C_15 
REMARK    6  A    between atoms: C_12  and  C_13 
REMARK    7  A    between atoms: C_13  and  C_22 
REMARK       I    between atoms: N_17  and  C_22 
REMARK    8  A    between atoms: C_18  and  C_23 
REMARK    9  A    between atoms: C_18  and  N_19 
ROOT
HETATM    1  N           1     -21.404  -5.927  -5.771  0.00  0.00    -0.345 N 
HETATM    2  H           1     -22.181  -6.302  -6.300  0.00  0.00     0.163 HD
HETATM    3  C           1     -20.732  -4.828  -6.231  0.00  0.00     0.249 C 
HETATM    4  O           1     -19.804  -4.379  -5.600  0.00  0.00    -0.271 OA
ENDROOT
BRANCH   3   5
HETATM    5  C           1     -21.149  -4.174  -7.526  0.00  0.00     0.280 C 
BRANCH   5   6
HETATM    6  C           1     -21.863  -5.194  -8.403  0.00  0.00     0.101 C 
BRANCH   6   7
HETATM    7  C           1     -22.999  -4.530  -9.118  0.00  0.00     0.028 A 
HETATM    8  N           1     -23.894  -3.673  -8.531  0.00  0.00    -0.355 N 
HETATM    9  C           1     -24.717  -3.322  -9.493  0.00  0.00     0.180 A 
ATOM     10  HN          1     -23.916  -3.373  -7.556  1.00  0.00     0.166 HD
HETATM   11  N           1     -24.388  -3.918 -10.676  0.00  0.00    -0.360 N 
HETATM   12  H           1     -24.889  -3.800 -11.592  0.00  0.00     0.166 HD
HETATM   13  C           1     -23.287  -4.697 -10.452  0.00  0.00     0.114 A 
ENDBRANCH   6   7
ENDBRANCH   5   6
BRANCH   5  14
HETATM   14  N           1     -19.934  -3.664  -8.242  0.00  0.00    -0.066 N 
HETATM   15  H           1     -19.440  -2.969  -7.637  0.00  0.00     0.275 HD
HETATM   16  H           1     -20.223  -3.206  -9.135  0.00  0.00     0.275 HD
HETATM   17  H           1     -19.292  -4.462  -8.452  0.00  0.00     0.275 HD
ENDBRANCH   5  14
ENDBRANCH   3   5
BRANCH   1  18
HETATM   18  C           1     -21.004  -6.555  -4.526  0.00  0.00     0.186 C 
BRANCH  18  19
HETATM   19  C           1     -22.222  -6.730  -3.631  0.00  0.00     0.045 C 
BRANCH  19  20
HETATM   20  C           1     -21.955  -6.087  -2.276  0.00  0.00     0.105 C 
BRANCH  20  21
HETATM   21  C           1     -22.029  -7.137  -1.196  0.00  0.00     0.215 C 
HETATM   22  O           1     -22.961  -7.147  -0.426  0.00  0.00    -0.274 OA
HETATM   23  N           1     -21.043  -8.079  -1.087  0.00  0.00    -0.370 N 
HETATM   24  H           1     -20.263  -8.072  -1.732  0.00  0.00     0.159 HD
HETATM   25  H           1     -21.093  -8.784  -0.362  0.00  0.00     0.159 HD
ENDBRANCH  20  21
ENDBRANCH  19  20
ENDBRANCH  18  19
BRANCH  18  26
HETATM   26  C           1     -20.395  -7.905  -4.817  0.00  0.00     0.196 C 
HETATM   27  O           1     -20.588  -8.859  -4.034  0.00  0.00    -0.646 OA
HETATM   28  O           1     -19.699  -8.067  -5.842  0.00  0.00    -0.646 OA
ENDBRANCH  18  26
ENDBRANCH   1  18
TORSDOF 9
ENDMDL
MODEL 8
REMARK VINA RESULT:      -6.2      1.883      3.264
REMARK  9 active torsions:
REMARK  status: ('A' for Active; 'I' for Inactive)
REMARK    1  A    between atoms: N_3  and  C_11 
REMARK       I    between atoms: N_3  and  C_23 
REMARK    2  A    between atoms: C_6  and  C_18 
REMARK    3  A    between atoms: C_6  and  C_26 
REMARK    4  A    between atoms: C_11  and  C_12 
REMARK    5  A    between atoms: C_11  and  C_15 
REMARK    6  A    between atoms: C_12  and  C_13 
REMARK    7  A    between atoms: C_13  and  C_22 
REMARK       I    between atoms: N_17  and  C_22 
REMARK    8  A    between atoms: C_18  and  C_23 
REMARK    9  A    between atoms: C_18  and  N_19 
ROOT
HETATM    1  N           1     -34.770  -2.257 -13.136  0.00  0.00    -0.345 N 
HETATM    2  H           1     -33.966  -2.278 -13.751  0.00  0.00     0.163 HD
HETATM    3  C           1     -35.006  -3.302 -12.284  0.00  0.00     0.249 C 
HETATM    4  O           1     -35.965  -3.279 -11.551  0.00  0.00    -0.271 OA
ENDROOT
BRANCH   3   5
HETATM    5  C           1     -34.067  -4.484 -12.260  0.00  0.00     0.280 C 
BRANCH   5   6
HETATM    6  C           1     -33.633  -4.760 -10.827  0.00  0.00     0.101 C 
BRANCH   6   7
HETATM    7  C           1     -34.053  -6.143 -10.435  0.00  0.00     0.028 A 
HETATM    8  N           1     -33.382  -7.288 -10.779  0.00  0.00    -0.355 N 
HETATM    9  C           1     -34.073  -8.268 -10.244  0.00  0.00     0.180 A 
ATOM     10  HN          1     -32.528  -7.362 -11.333  1.00  0.00     0.166 HD
HETATM   11  N           1     -35.164  -7.801  -9.568  0.00  0.00    -0.360 N 
HETATM   12  H           1     -35.873  -8.381  -9.055  0.00  0.00     0.166 HD
HETATM   13  C           1     -35.165  -6.438  -9.682  0.00  0.00     0.114 A 
ENDBRANCH   6   7
ENDBRANCH   5   6
BRANCH   5  14
HETATM   14  N           1     -32.861  -4.181 -13.098  0.00  0.00    -0.066 N 
HETATM   15  H           1     -32.750  -4.920 -13.828  0.00  0.00     0.275 HD
HETATM   16  H           1     -32.011  -4.161 -12.489  0.00  0.00     0.275 HD
HETATM   17  H           1     -32.980  -3.250 -13.558  0.00  0.00     0.275 HD
ENDBRANCH   5  14
ENDBRANCH   3   5
BRANCH   1  18
HETATM   18  C           1     -35.671  -1.122 -13.158  0.00  0.00     0.186 C 
BRANCH  18  19
HETATM   19  C           1     -35.420  -0.250 -11.937  0.00  0.00     0.045 C 
BRANCH  19  20
HETATM   20  C           1     -36.752   0.205 -11.354  0.00  0.00     0.105 C 
BRANCH  20  21
HETATM   21  C           1     -36.690   0.146  -9.848  0.00  0.00     0.215 C 
HETATM   22  O           1     -36.834  -0.911  -9.278  0.00  0.00    -0.274 OA
HETATM   23  N           1     -36.470   1.287  -9.126  0.00  0.00    -0.370 N 
HETATM   24  H           1     -36.349   2.172  -9.602  0.00  0.00     0.159 HD
HETATM   25  H           1     -36.428   1.247  -8.115  0.00  0.00     0.159 HD
ENDBRANCH  20  21
ENDBRANCH  19  20
ENDBRANCH  18  19
BRANCH  18  26
HETATM   26  C           1     -35.431  -0.314 -14.411  0.00  0.00     0.196 C 
HETATM   27  O           1     -36.265  -0.340 -15.341  0.00  0.00    -0.646 OA
HETATM   28  O           1     -34.397   0.380 -14.516  0.00  0.00    -0.646 OA
ENDBRANCH  18  26
ENDBRANCH   1  18
TORSDOF 9
ENDMDL
MODEL 9
REMARK VINA RESULT:      -6.2      1.677      2.112
REMARK  9 active torsions:
REMARK  status: ('A' for Active; 'I' for Inactive)
REMARK    1  A    between atoms: N_3  and  C_11 
REMARK       I    between atoms: N_3  and  C_23 
REMARK    2  A    between atoms: C_6  and  C_18 
REMARK    3  A    between atoms: C_6  and  C_26 
REMARK    4  A    between atoms: C_11  and  C_12 
REMARK    5  A    between atoms: C_11  and  C_15 
REMARK    6  A    between atoms: C_12  and  C_13 
REMARK    7  A    between atoms: C_13  and  C_22 
REMARK       I    between atoms: N_17  and  C_22 
REMARK    8  A    between atoms: C_18  and  C_23 
REMARK    9  A    between atoms: C_18  and  N_19 
ROOT
HETATM    1  N           1     -35.152  -0.539 -11.939  0.00  0.00    -0.345 N 
HETATM    2  H           1     -34.930  -0.172 -11.022  0.00  0.00     0.163 HD
HETATM    3  C           1     -34.714  -1.784 -12.301  0.00  0.00     0.249 C 
HETATM    4  O           1     -34.979  -2.223 -13.395  0.00  0.00    -0.271 OA
ENDROOT
BRANCH   3   5
HETATM    5  C           1     -33.901  -2.610 -11.334  0.00  0.00     0.280 C 
BRANCH   5   6
HETATM    6  C           1     -34.823  -3.547 -10.565  0.00  0.00     0.101 C 
BRANCH   6   7
HETATM    7  C           1     -34.321  -4.952 -10.685  0.00  0.00     0.028 A 
HETATM    8  N           1     -34.978  -6.057 -10.208  0.00  0.00    -0.355 N 
HETATM    9  C           1     -34.207  -7.076 -10.515  0.00  0.00     0.180 A 
ATOM     10  HN          1     -35.873  -6.083  -9.720  1.00  0.00     0.166 HD
HETATM   11  N           1     -33.080  -6.672 -11.171  0.00  0.00    -0.360 N 
HETATM   12  H           1     -32.309  -7.292 -11.522  0.00  0.00     0.166 HD
HETATM   13  C           1     -33.139  -5.310 -11.288  0.00  0.00     0.114 A 
ENDBRANCH   6   7
ENDBRANCH   5   6
BRANCH   5  14
HETATM   14  N           1     -33.197  -1.701 -10.372  0.00  0.00    -0.066 N 
HETATM   15  H           1     -32.744  -2.272  -9.622  0.00  0.00     0.275 HD
HETATM   16  H           1     -33.888  -1.046  -9.941  0.00  0.00     0.275 HD
HETATM   17  H           1     -32.467  -1.152 -10.880  0.00  0.00     0.275 HD
ENDBRANCH   5  14
ENDBRANCH   3   5
BRANCH   1  18
HETATM   18  C           1     -35.934   0.254 -12.868  0.00  0.00     0.186 C 
BRANCH  18  19
HETATM   19  C           1     -35.448  -0.001 -14.288  0.00  0.00     0.045 C 
BRANCH  19  20
HETATM   20  C           1     -35.141   1.328 -14.967  0.00  0.00     0.105 C 
BRANCH  20  21
HETATM   21  C           1     -36.243   1.660 -15.943  0.00  0.00     0.215 C 
HETATM   22  O           1     -37.071   0.827 -16.227  0.00  0.00    -0.274 OA
HETATM   23  N           1     -36.305   2.905 -16.507  0.00  0.00    -0.370 N 
HETATM   24  H           1     -35.612   3.604 -16.270  0.00  0.00     0.159 HD
HETATM   25  H           1     -37.044   3.129 -17.162  0.00  0.00     0.159 HD
ENDBRANCH  20  21
ENDBRANCH  19  20
ENDBRANCH  18  19
BRANCH  18  26
HETATM   26  C           1     -37.388  -0.132 -12.757  0.00  0.00     0.196 C 
HETATM   27  O           1     -37.941  -0.761 -13.686  0.00  0.00    -0.646 OA
HETATM   28  O           1     -38.040   0.177 -11.737  0.00  0.00    -0.646 OA
ENDBRANCH  18  26
ENDBRANCH   1  18
TORSDOF 9
ENDMDL
