MODEL 1
REMARK VINA RESULT:      -5.0      0.000      0.000
REMARK  8 active torsions:
REMARK  status: ('A' for Active; 'I' for Inactive)
REMARK    1  A    between atoms: S_5  and  C_6 
REMARK    2  A    between atoms: C_6  and  C_7 
REMARK    3  A    between atoms: C_7  and  C_8 
REMARK    4  A    between atoms: C_7  and  N_11 
REMARK       I    between atoms: N_11  and  C_12 
REMARK    5  A    between atoms: C_12  and  C_13 
REMARK    6  A    between atoms: C_13  and  C_14 
REMARK    7  A    between atoms: C_13  and  N_16 
REMARK    8  A    between atoms: C_14  and  Se_15 
ROOT
HETATM    1  H           1     -35.388  -1.973 -13.865  0.00  0.00     0.163 HD
HETATM    2  N           1     -34.946  -1.677 -13.004  0.00  0.00    -0.344 N 
HETATM    3  C           1     -34.261  -2.584 -12.240  0.00  0.00     0.249 C 
HETATM    4  O           1     -33.734  -2.232 -11.211  0.00  0.00    -0.271 OA
ENDROOT
BRANCH   3   5
HETATM    5  C           1     -34.166  -4.024 -12.682  0.00  0.00     0.274 C 
BRANCH   5   6
HETATM    6  C           1     -33.227  -4.780 -11.751  0.00  0.00     0.045 C 
BRANCH   6   7
HETATM    7 Se           1     -34.257  -6.015 -10.650  0.00  0.00     0.000 Se
HETATM    8  H           1     -35.563  -5.552 -11.146  0.00  0.00     0.000 HD
ENDBRANCH   6   7
ENDBRANCH   5   6
BRANCH   5   9
HETATM    9  N           1     -33.634  -4.081 -14.083  0.00  0.00    -0.067 N 
HETATM   10  H           1     -34.356  -3.719 -14.745  0.00  0.00     0.275 HD
HETATM   11  H           1     -32.772  -3.493 -14.152  0.00  0.00     0.275 HD
HETATM   12  H           1     -33.402  -5.071 -14.327  0.00  0.00     0.275 HD
ENDBRANCH   5   9
ENDBRANCH   3   5
BRANCH   2  13
HETATM   13  C           1     -35.038  -0.294 -12.579  0.00  0.00     0.194 C 
BRANCH  13  14
HETATM   14  C           1     -35.075   0.610 -13.803  0.00  0.00     0.106 C 
BRANCH  14  15
HETATM   15  S           1     -35.632  -0.343 -15.244  0.00  0.00    -0.180 SA
HETATM   16  H           1     -34.924  -1.451 -14.962  0.00  0.00     0.101 HD
ENDBRANCH  14  15
ENDBRANCH  13  14
BRANCH  13  17
HETATM   17  C           1     -36.297  -0.100 -11.770  0.00  0.00     0.197 C 
HETATM   18  O           1     -36.264   0.566 -10.713  0.00  0.00    -0.646 OA
HETATM   19  O           1     -37.372  -0.606 -12.158  0.00  0.00    -0.646 OA
ENDBRANCH  13  17
ENDBRANCH   2  13
TORSDOF 8
ENDMDL
MODEL 2
REMARK VINA RESULT:      -4.9      2.403      2.718
REMARK  8 active torsions:
REMARK  status: ('A' for Active; 'I' for Inactive)
REMARK    1  A    between atoms: S_5  and  C_6 
REMARK    2  A    between atoms: C_6  and  C_7 
REMARK    3  A    between atoms: C_7  and  C_8 
REMARK    4  A    between atoms: C_7  and  N_11 
REMARK       I    between atoms: N_11  and  C_12 
REMARK    5  A    between atoms: C_12  and  C_13 
REMARK    6  A    between atoms: C_13  and  C_14 
REMARK    7  A    between atoms: C_13  and  N_16 
REMARK    8  A    between atoms: C_14  and  Se_15 
ROOT
HETATM    1  H           1     -35.319  -0.828 -11.580  0.00  0.00     0.163 HD
HETATM    2  N           1     -35.260  -1.283 -12.482  0.00  0.00    -0.344 N 
HETATM    3  C           1     -34.567  -2.457 -12.613  0.00  0.00     0.249 C 
HETATM    4  O           1     -34.496  -3.000 -13.690  0.00  0.00    -0.271 OA
ENDROOT
BRANCH   3   5
HETATM    5  C           1     -33.891  -3.072 -11.412  0.00  0.00     0.274 C 
BRANCH   5   6
HETATM    6  C           1     -34.804  -4.127 -10.800  0.00  0.00     0.045 C 
BRANCH   6   7
HETATM    7 Se           1     -33.967  -5.880 -10.956  0.00  0.00     0.000 Se
HETATM    8  H           1     -34.692  -6.247 -12.183  0.00  0.00     0.000 HD
ENDBRANCH   6   7
ENDBRANCH   5   6
BRANCH   5   9
HETATM    9  N           1     -33.612  -2.005 -10.396  0.00  0.00    -0.067 N 
HETATM   10  H           1     -33.836  -1.068 -10.802  0.00  0.00     0.275 HD
HETATM   11  H           1     -34.203  -2.166  -9.549  0.00  0.00     0.275 HD
HETATM   12  H           1     -32.602  -2.035 -10.127  0.00  0.00     0.275 HD
ENDBRANCH   5   9
ENDBRANCH   3   5
BRANCH   2  13
HETATM   13  C           1     -35.909  -0.692 -13.636  0.00  0.00     0.194 C 
BRANCH  13  14
HETATM   14  C           1     -37.232  -0.070 -13.210  0.00  0.00     0.106 C 
BRANCH  14  15
HETATM   15  S           1     -37.390  -0.161 -11.404  0.00  0.00    -0.180 SA
HETATM   16  H           1     -36.072  -0.252 -11.152  0.00  0.00     0.101 HD
ENDBRANCH  14  15
ENDBRANCH  13  14
BRANCH  13  17
HETATM   17  C           1     -35.016   0.375 -14.222  0.00  0.00     0.197 C 
HETATM   18  O           1     -34.766   1.409 -13.568  0.00  0.00    -0.646 OA
HETATM   19  O           1     -34.528   0.222 -15.363  0.00  0.00    -0.646 OA
ENDBRANCH  13  17
ENDBRANCH   2  13
TORSDOF 8
ENDMDL
MODEL 3
REMARK VINA RESULT:      -4.8      1.628      4.659
REMARK  8 active torsions:
REMARK  status: ('A' for Active; 'I' for Inactive)
REMARK    1  A    between atoms: S_5  and  C_6 
REMARK    2  A    between atoms: C_6  and  C_7 
REMARK    3  A    between atoms: C_7  and  C_8 
REMARK    4  A    between atoms: C_7  and  N_11 
REMARK       I    between atoms: N_11  and  C_12 
REMARK    5  A    between atoms: C_12  and  C_13 
REMARK    6  A    between atoms: C_13  and  C_14 
REMARK    7  A    between atoms: C_13  and  N_16 
REMARK    8  A    between atoms: C_14  and  Se_15 
ROOT
HETATM    1  H           1     -33.976  -1.079 -13.578  0.00  0.00     0.163 HD
HETATM    2  N           1     -34.861  -1.315 -13.148  0.00  0.00    -0.344 N 
HETATM    3  C           1     -35.993  -0.623 -13.487  0.00  0.00     0.249 C 
HETATM    4  O           1     -37.050  -0.904 -12.973  0.00  0.00    -0.271 OA
ENDROOT
BRANCH   3   5
HETATM    5  C           1     -35.920   0.492 -14.501  0.00  0.00     0.274 C 
BRANCH   5   6
HETATM    6  C           1     -36.766   0.131 -15.715  0.00  0.00     0.045 C 
BRANCH   6   7
HETATM    7 Se           1     -35.851  -1.232 -16.765  0.00  0.00     0.000 Se
HETATM    8  H           1     -36.673  -1.023 -17.968  0.00  0.00     0.000 HD
ENDBRANCH   6   7
ENDBRANCH   5   6
BRANCH   5   9
HETATM    9  N           1     -34.495   0.687 -14.927  0.00  0.00    -0.067 N 
HETATM   10  H           1     -34.073  -0.239 -15.165  0.00  0.00     0.275 HD
HETATM   11  H           1     -34.464   1.309 -15.766  0.00  0.00     0.275 HD
HETATM   12  H           1     -33.956   1.125 -14.146  0.00  0.00     0.275 HD
ENDBRANCH   5   9
ENDBRANCH   3   5
BRANCH   2  13
HETATM   13  C           1     -34.931  -2.386 -12.173  0.00  0.00     0.194 C 
BRANCH  13  14
HETATM   14  C           1     -34.048  -3.541 -12.626  0.00  0.00     0.106 C 
BRANCH  14  15
HETATM   15  S           1     -34.640  -5.085 -11.877  0.00  0.00    -0.180 SA
HETATM   16  H           1     -35.693  -5.246 -12.698  0.00  0.00     0.101 HD
ENDBRANCH  14  15
ENDBRANCH  13  14
BRANCH  13  17
HETATM   17  C           1     -34.451  -1.879 -10.835  0.00  0.00     0.197 C 
HETATM   18  O           1     -33.238  -1.939 -10.542  0.00  0.00    -0.646 OA
HETATM   19  O           1     -35.268  -1.399 -10.020  0.00  0.00    -0.646 OA
ENDBRANCH  13  17
ENDBRANCH   2  13
TORSDOF 8
ENDMDL
MODEL 4
REMARK VINA RESULT:      -4.8     12.320     13.857
REMARK  8 active torsions:
REMARK  status: ('A' for Active; 'I' for Inactive)
REMARK    1  A    between atoms: S_5  and  C_6 
REMARK    2  A    between atoms: C_6  and  C_7 
REMARK    3  A    between atoms: C_7  and  C_8 
REMARK    4  A    between atoms: C_7  and  N_11 
REMARK       I    between atoms: N_11  and  C_12 
REMARK    5  A    between atoms: C_12  and  C_13 
REMARK    6  A    between atoms: C_13  and  C_14 
REMARK    7  A    between atoms: C_13  and  N_16 
REMARK    8  A    between atoms: C_14  and  Se_15 
ROOT
HETATM    1  H           1     -22.341  -5.730  -9.153  0.00  0.00     0.163 HD
HETATM    2  N           1     -22.263  -4.780  -8.813  0.00  0.00    -0.344 N 
HETATM    3  C           1     -21.662  -4.531  -7.608  0.00  0.00     0.249 C 
HETATM    4  O           1     -21.570  -3.397  -7.201  0.00  0.00    -0.271 OA
ENDROOT
BRANCH   3   5
HETATM    5  C           1     -21.115  -5.674  -6.788  0.00  0.00     0.274 C 
BRANCH   5   6
HETATM    6  C           1     -20.710  -5.164  -5.411  0.00  0.00     0.045 C 
BRANCH   6   7
HETATM    7 Se           1     -21.442  -6.339  -4.040  0.00  0.00     0.000 Se
HETATM    8  H           1     -22.084  -7.252  -4.999  0.00  0.00     0.000 HD
ENDBRANCH   6   7
ENDBRANCH   5   6
BRANCH   5   9
HETATM    9  N           1     -19.917  -6.255  -7.477  0.00  0.00    -0.067 N 
HETATM   10  H           1     -19.846  -7.273  -7.254  0.00  0.00     0.275 HD
HETATM   11  H           1     -20.015  -6.131  -8.510  0.00  0.00     0.275 HD
HETATM   12  H           1     -19.054  -5.766  -7.147  0.00  0.00     0.275 HD
ENDBRANCH   5   9
ENDBRANCH   3   5
BRANCH   2  13
HETATM   13  C           1     -22.788  -3.682  -9.601  0.00  0.00     0.194 C 
BRANCH  13  14
HETATM   14  C           1     -22.206  -3.744 -11.007  0.00  0.00     0.106 C 
BRANCH  14  15
HETATM   15  S           1     -20.430  -4.104 -10.912  0.00  0.00    -0.180 SA
HETATM   16  H           1     -20.078  -3.362 -11.977  0.00  0.00     0.101 HD
ENDBRANCH  14  15
ENDBRANCH  13  14
BRANCH  13  17
HETATM   17  C           1     -24.292  -3.791  -9.673  0.00  0.00     0.197 C 
HETATM   18  O           1     -25.001  -2.776  -9.500  0.00  0.00    -0.646 OA
HETATM   19  O           1     -24.828  -4.896  -9.905  0.00  0.00    -0.646 OA
ENDBRANCH  13  17
ENDBRANCH   2  13
TORSDOF 8
ENDMDL
MODEL 5
REMARK VINA RESULT:      -4.6      3.344      4.979
REMARK  8 active torsions:
REMARK  status: ('A' for Active; 'I' for Inactive)
REMARK    1  A    between atoms: S_5  and  C_6 
REMARK    2  A    between atoms: C_6  and  C_7 
REMARK    3  A    between atoms: C_7  and  C_8 
REMARK    4  A    between atoms: C_7  and  N_11 
REMARK       I    between atoms: N_11  and  C_12 
REMARK    5  A    between atoms: C_12  and  C_13 
REMARK    6  A    between atoms: C_13  and  C_14 
REMARK    7  A    between atoms: C_13  and  N_16 
REMARK    8  A    between atoms: C_14  and  Se_15 
ROOT
HETATM    1  H           1     -34.611  -0.844 -10.428  0.00  0.00     0.163 HD
HETATM    2  N           1     -35.488  -0.994 -10.909  0.00  0.00    -0.344 N 
HETATM    3  C           1     -36.672  -0.726 -10.275  0.00  0.00     0.249 C 
HETATM    4  O           1     -37.720  -0.907 -10.850  0.00  0.00    -0.271 OA
ENDROOT
BRANCH   3   5
HETATM    5  C           1     -36.668  -0.206  -8.859  0.00  0.00     0.274 C 
BRANCH   5   6
HETATM    6  C           1     -38.072  -0.309  -8.276  0.00  0.00     0.045 C 
BRANCH   6   7
HETATM    7 Se           1     -38.075   0.394  -6.459  0.00  0.00     0.000 Se
HETATM    8  H           1     -37.469   1.683  -6.831  0.00  0.00     0.000 HD
ENDBRANCH   6   7
ENDBRANCH   5   6
BRANCH   5   9
HETATM    9  N           1     -36.231   1.229  -8.855  0.00  0.00    -0.067 N 
HETATM   10  H           1     -35.569   1.389  -8.062  0.00  0.00     0.275 HD
HETATM   11  H           1     -35.751   1.449  -9.757  0.00  0.00     0.275 HD
HETATM   12  H           1     -37.065   1.847  -8.743  0.00  0.00     0.275 HD
ENDBRANCH   5   9
ENDBRANCH   3   5
BRANCH   2  13
HETATM   13  C           1     -35.491  -1.494 -12.270  0.00  0.00     0.194 C 
BRANCH  13  14
HETATM   14  C           1     -35.231  -0.344 -13.233  0.00  0.00     0.106 C 
BRANCH  14  15
HETATM   15  S           1     -36.655  -0.148 -14.341  0.00  0.00    -0.180 SA
HETATM   16  H           1     -36.874   1.150 -14.061  0.00  0.00     0.101 HD
ENDBRANCH  14  15
ENDBRANCH  13  14
BRANCH  13  17
HETATM   17  C           1     -34.410  -2.536 -12.424  0.00  0.00     0.197 C 
HETATM   18  O           1     -34.368  -3.246 -13.451  0.00  0.00    -0.646 OA
HETATM   19  O           1     -33.556  -2.688 -11.523  0.00  0.00    -0.646 OA
ENDBRANCH  13  17
ENDBRANCH   2  13
TORSDOF 8
ENDMDL
MODEL 6
REMARK VINA RESULT:      -4.5      3.401      4.766
REMARK  8 active torsions:
REMARK  status: ('A' for Active; 'I' for Inactive)
REMARK    1  A    between atoms: S_5  and  C_6 
REMARK    2  A    between atoms: C_6  and  C_7 
REMARK    3  A    between atoms: C_7  and  C_8 
REMARK    4  A    between atoms: C_7  and  N_11 
REMARK       I    between atoms: N_11  and  C_12 
REMARK    5  A    between atoms: C_12  and  C_13 
REMARK    6  A    between atoms: C_13  and  C_14 
REMARK    7  A    between atoms: C_13  and  N_16 
REMARK    8  A    between atoms: C_14  and  Se_15 
ROOT
HETATM    1  H           1     -32.410  -3.648 -14.264  0.00  0.00     0.163 HD
HETATM    2  N           1     -33.352  -4.018 -14.273  0.00  0.00    -0.344 N 
HETATM    3  C           1     -33.883  -4.509 -15.436  0.00  0.00     0.249 C 
HETATM    4  O           1     -35.008  -4.949 -15.447  0.00  0.00    -0.271 OA
ENDROOT
BRANCH   3   5
HETATM    5  C           1     -33.064  -4.499 -16.703  0.00  0.00     0.274 C 
BRANCH   5   6
HETATM    6  C           1     -31.592  -4.681 -16.358  0.00  0.00     0.045 C 
BRANCH   6   7
HETATM    7 Se           1     -30.888  -6.232 -17.305  0.00  0.00     0.000 Se
HETATM    8  H           1     -29.921  -5.455 -18.098  0.00  0.00     0.000 HD
ENDBRANCH   6   7
ENDBRANCH   5   6
BRANCH   5   9
HETATM    9  N           1     -33.252  -3.189 -17.409  0.00  0.00    -0.067 N 
HETATM   10  H           1     -32.573  -3.118 -18.200  0.00  0.00     0.275 HD
HETATM   11  H           1     -34.227  -3.131 -17.782  0.00  0.00     0.275 HD
HETATM   12  H           1     -33.087  -2.405 -16.738  0.00  0.00     0.275 HD
ENDBRANCH   5   9
ENDBRANCH   3   5
BRANCH   2  13
HETATM   13  C           1     -34.139  -4.027 -13.055  0.00  0.00     0.194 C 
BRANCH  13  14
HETATM   14  C           1     -33.282  -4.530 -11.902  0.00  0.00     0.106 C 
BRANCH  14  15
HETATM   15  S           1     -34.195  -5.797 -10.977  0.00  0.00    -0.180 SA
HETATM   16  H           1     -33.662  -5.506  -9.776  0.00  0.00     0.101 HD
ENDBRANCH  14  15
ENDBRANCH  13  14
BRANCH  13  17
HETATM   17  C           1     -34.616  -2.627 -12.756  0.00  0.00     0.197 C 
HETATM   18  O           1     -35.026  -1.895 -13.681  0.00  0.00    -0.646 OA
HETATM   19  O           1     -34.600  -2.200 -11.581  0.00  0.00    -0.646 OA
ENDBRANCH  13  17
ENDBRANCH   2  13
TORSDOF 8
ENDMDL
MODEL 7
REMARK VINA RESULT:      -4.4      2.793      4.487
REMARK  8 active torsions:
REMARK  status: ('A' for Active; 'I' for Inactive)
REMARK    1  A    between atoms: S_5  and  C_6 
REMARK    2  A    between atoms: C_6  and  C_7 
REMARK    3  A    between atoms: C_7  and  C_8 
REMARK    4  A    between atoms: C_7  and  N_11 
REMARK       I    between atoms: N_11  and  C_12 
REMARK    5  A    between atoms: C_12  and  C_13 
REMARK    6  A    between atoms: C_13  and  C_14 
REMARK    7  A    between atoms: C_13  and  N_16 
REMARK    8  A    between atoms: C_14  and  Se_15 
ROOT
HETATM    1  H           1     -35.112   0.779 -11.923  0.00  0.00     0.163 HD
HETATM    2  N           1     -35.862   0.112 -12.053  0.00  0.00    -0.344 N 
HETATM    3  C           1     -36.394  -0.085 -13.300  0.00  0.00     0.249 C 
HETATM    4  O           1     -37.290  -0.881 -13.455  0.00  0.00    -0.271 OA
ENDROOT
BRANCH   3   5
HETATM    5  C           1     -35.862   0.692 -14.478  0.00  0.00     0.274 C 
BRANCH   5   6
HETATM    6  C           1     -36.652   0.325 -15.728  0.00  0.00     0.045 C 
BRANCH   6   7
HETATM    7 Se           1     -35.757  -1.135 -16.658  0.00  0.00     0.000 Se
HETATM    8  H           1     -34.488  -0.977 -15.929  0.00  0.00     0.000 HD
ENDBRANCH   6   7
ENDBRANCH   5   6
BRANCH   5   9
HETATM    9  N           1     -34.415   0.356 -14.686  0.00  0.00    -0.067 N 
HETATM   10  H           1     -34.304  -0.681 -14.753  0.00  0.00     0.275 HD
HETATM   11  H           1     -34.078   0.799 -15.570  0.00  0.00     0.275 HD
HETATM   12  H           1     -33.855   0.715 -13.880  0.00  0.00     0.275 HD
ENDBRANCH   5   9
ENDBRANCH   3   5
BRANCH   2  13
HETATM   13  C           1     -36.372  -0.635 -10.920  0.00  0.00     0.194 C 
BRANCH  13  14
HETATM   14  C           1     -35.274  -1.532 -10.367  0.00  0.00     0.106 C 
BRANCH  14  15
HETATM   15  S           1     -35.316  -3.135 -11.218  0.00  0.00    -0.180 SA
HETATM   16  H           1     -34.077  -3.518 -10.859  0.00  0.00     0.101 HD
ENDBRANCH  14  15
ENDBRANCH  13  14
BRANCH  13  17
HETATM   17  C           1     -36.825   0.327  -9.849  0.00  0.00     0.197 C 
HETATM   18  O           1     -36.209   0.389  -8.764  0.00  0.00    -0.646 OA
HETATM   19  O           1     -37.818   1.060 -10.048  0.00  0.00    -0.646 OA
ENDBRANCH  13  17
ENDBRANCH   2  13
TORSDOF 8
ENDMDL
MODEL 8
REMARK VINA RESULT:      -4.4     12.534     14.132
REMARK  8 active torsions:
REMARK  status: ('A' for Active; 'I' for Inactive)
REMARK    1  A    between atoms: S_5  and  C_6 
REMARK    2  A    between atoms: C_6  and  C_7 
REMARK    3  A    between atoms: C_7  and  C_8 
REMARK    4  A    between atoms: C_7  and  N_11 
REMARK       I    between atoms: N_11  and  C_12 
REMARK    5  A    between atoms: C_12  and  C_13 
REMARK    6  A    between atoms: C_13  and  C_14 
REMARK    7  A    between atoms: C_13  and  N_16 
REMARK    8  A    between atoms: C_14  and  Se_15 
ROOT
HETATM    1  H           1     -22.509  -3.423  -9.075  0.00  0.00     0.163 HD
HETATM    2  N           1     -21.882  -3.982  -9.639  0.00  0.00    -0.344 N 
HETATM    3  C           1     -20.657  -4.344  -9.146  0.00  0.00     0.249 C 
HETATM    4  O           1     -19.908  -5.011  -9.820  0.00  0.00    -0.271 OA
ENDROOT
BRANCH   3   5
HETATM    5  C           1     -20.242  -3.910  -7.762  0.00  0.00     0.274 C 
BRANCH   5   6
HETATM    6  C           1     -19.659  -5.099  -7.009  0.00  0.00     0.045 C 
BRANCH   6   7
HETATM    7 Se           1     -20.769  -5.495  -5.457  0.00  0.00     0.000 Se
HETATM    8  H           1     -20.504  -6.942  -5.490  0.00  0.00     0.000 HD
ENDBRANCH   6   7
ENDBRANCH   5   6
BRANCH   5   9
HETATM    9  N           1     -21.439  -3.389  -7.022  0.00  0.00    -0.067 N 
HETATM   10  H           1     -21.672  -2.431  -7.367  0.00  0.00     0.275 HD
HETATM   11  H           1     -22.252  -4.024  -7.186  0.00  0.00     0.275 HD
HETATM   12  H           1     -21.226  -3.349  -6.000  0.00  0.00     0.275 HD
ENDBRANCH   5   9
ENDBRANCH   3   5
BRANCH   2  13
HETATM   13  C           1     -22.281  -4.399 -10.969  0.00  0.00     0.194 C 
BRANCH  13  14
HETATM   14  C           1     -23.755  -4.779 -10.960  0.00  0.00     0.106 C 
BRANCH  14  15
HETATM   15  S           1     -24.674  -3.614  -9.914  0.00  0.00    -0.180 SA
HETATM   16  H           1     -23.729  -3.501  -8.964  0.00  0.00     0.101 HD
ENDBRANCH  14  15
ENDBRANCH  13  14
BRANCH  13  17
HETATM   17  C           1     -22.058  -3.263 -11.938  0.00  0.00     0.197 C 
HETATM   18  O           1     -21.314  -2.310 -11.624  0.00  0.00    -0.646 OA
HETATM   19  O           1     -22.620  -3.277 -13.055  0.00  0.00    -0.646 OA
ENDBRANCH  13  17
ENDBRANCH   2  13
TORSDOF 8
ENDMDL
MODEL 9
REMARK VINA RESULT:      -4.3     12.272     14.158
REMARK  8 active torsions:
REMARK  status: ('A' for Active; 'I' for Inactive)
REMARK    1  A    between atoms: S_5  and  C_6 
REMARK    2  A    between atoms: C_6  and  C_7 
REMARK    3  A    between atoms: C_7  and  C_8 
REMARK    4  A    between atoms: C_7  and  N_11 
REMARK       I    between atoms: N_11  and  C_12 
REMARK    5  A    between atoms: C_12  and  C_13 
REMARK    6  A    between atoms: C_13  and  C_14 
REMARK    7  A    between atoms: C_13  and  N_16 
REMARK    8  A    between atoms: C_14  and  Se_15 
ROOT
HETATM    1  H           1     -20.533  -3.827  -9.706  0.00  0.00     0.163 HD
HETATM    2  N           1     -21.414  -4.266  -9.473  0.00  0.00    -0.344 N 
HETATM    3  C           1     -22.503  -4.090 -10.284  0.00  0.00     0.249 C 
HETATM    4  O           1     -23.555  -4.613 -10.004  0.00  0.00    -0.271 OA
ENDROOT
BRANCH   3   5
HETATM    5  C           1     -22.388  -3.242 -11.527  0.00  0.00     0.274 C 
BRANCH   5   6
HETATM    6  C           1     -23.591  -3.494 -12.427  0.00  0.00     0.045 C 
BRANCH   6   7
HETATM    7 Se           1     -23.250  -2.746 -14.194  0.00  0.00     0.000 Se
HETATM    8  H           1     -24.662  -2.771 -14.605  0.00  0.00     0.000 HD
ENDBRANCH   6   7
ENDBRANCH   5   6
BRANCH   5   9
HETATM    9  N           1     -21.131  -3.601 -12.262  0.00  0.00    -0.067 N 
HETATM   10  H           1     -20.301  -3.322 -11.691  0.00  0.00     0.275 HD
HETATM   11  H           1     -21.107  -4.632 -12.428  0.00  0.00     0.275 HD
HETATM   12  H           1     -21.107  -3.098 -13.178  0.00  0.00     0.275 HD
ENDBRANCH   5   9
ENDBRANCH   3   5
BRANCH   2  13
HETATM   13  C           1     -21.523  -5.081  -8.278  0.00  0.00     0.194 C 
BRANCH  13  14
HETATM   14  C           1     -20.141  -5.569  -7.869  0.00  0.00     0.106 C 
BRANCH  14  15
HETATM   15  S           1     -20.252  -6.441  -6.281  0.00  0.00    -0.180 SA
HETATM   16  H           1     -19.033  -7.007  -6.346  0.00  0.00     0.101 HD
ENDBRANCH  14  15
ENDBRANCH  13  14
BRANCH  13  17
HETATM   17  C           1     -22.119  -4.258  -7.162  0.00  0.00     0.197 C 
HETATM   18  O           1     -21.530  -3.232  -6.759  0.00  0.00    -0.646 OA
HETATM   19  O           1     -23.202  -4.602  -6.642  0.00  0.00    -0.646 OA
ENDBRANCH  13  17
ENDBRANCH   2  13
TORSDOF 8
ENDMDL
