MODEL 1
REMARK VINA RESULT:      -8.1      0.000      0.000
REMARK  11 active torsions:
REMARK  status: ('A' for Active; 'I' for Inactive)
REMARK       I    between atoms: C_1  and  N_2 
REMARK    1  A    between atoms: C_1  and  C_30 
REMARK    2  A    between atoms: N_2  and  C_6 
REMARK    3  A    between atoms: C_5  and  C_6 
REMARK    4  A    between atoms: C_6  and  C_8 
REMARK    5  A    between atoms: C_8  and  C_9 
REMARK    6  A    between atoms: O_11  and  P_23 
REMARK    7  A    between atoms: N_16  and  C_30 
REMARK    8  A    between atoms: P_23  and  O_24 
REMARK    9  A    between atoms: O_24  and  C_25 
REMARK   10  A    between atoms: C_28  and  C_29 
REMARK   11  A    between atoms: C_29  and  C_30 
ROOT
HETATM    1  C           1     -20.944  -4.945  -6.301  0.00  0.00     0.278 C 
ENDROOT
BRANCH   1   2
HETATM    2  C           1     -21.648  -5.908  -5.376  0.00  0.00     0.249 C 
HETATM    3  N           1     -20.921  -6.682  -4.510  0.00  0.00    -0.344 N 
HETATM    4  H           1     -19.912  -6.608  -4.492  0.00  0.00     0.163 HD
HETATM    5  O           1     -22.852  -5.996  -5.397  0.00  0.00    -0.271 OA
BRANCH   3   6
HETATM    6  C           1     -21.596  -7.606  -3.622  0.00  0.00     0.189 C 
BRANCH   6   7
HETATM    7  C           1     -21.678  -7.006  -2.240  0.00  0.00     0.197 C 
HETATM    8  O           1     -22.334  -5.960  -2.051  0.00  0.00    -0.646 OA
HETATM    9  O           1     -21.087  -7.554  -1.284  0.00  0.00    -0.646 OA
ENDBRANCH   6   7
BRANCH   6  10
HETATM   10  C           1     -20.819  -8.914  -3.562  0.00  0.00     0.014 C 
HETATM   11  C           1     -21.629 -10.016  -4.235  0.00  0.00     0.012 C 
BRANCH  10  12
HETATM   12  C           1     -19.489  -8.750  -4.286  0.00  0.00     0.002 C 
HETATM   13  C           1     -18.374  -9.353  -3.441  0.00  0.00     0.005 C 
ENDBRANCH  10  12
ENDBRANCH   6  10
ENDBRANCH   3   6
ENDBRANCH   1   2
BRANCH   1  14
HETATM   14  N           1     -19.661  -4.493  -5.669  0.00  0.00    -0.066 N 
HETATM   15  H           1     -18.874  -4.629  -6.342  0.00  0.00     0.275 HD
HETATM   16  H           1     -19.735  -3.481  -5.419  0.00  0.00     0.275 HD
HETATM   17  H           1     -19.481  -5.054  -4.806  0.00  0.00     0.275 HD
ENDBRANCH   1  14
BRANCH   1  18
HETATM   18  C           1     -20.641  -5.641  -7.621  0.00  0.00     0.081 C 
BRANCH  18  19
HETATM   19  C           1     -21.194  -4.829  -8.751  0.00  0.00    -0.056 A 
HETATM   20  C           1     -22.515  -4.382  -8.707  0.00  0.00     0.010 A 
HETATM   21  C           1     -23.030  -3.626  -9.761  0.00  0.00     0.038 A 
HETATM   22  C           1     -22.226  -3.319 -10.858  0.00  0.00     0.081 A 
HETATM   23  C           1     -20.906  -3.767 -10.902  0.00  0.00     0.038 A 
HETATM   24  C           1     -20.389  -4.522  -9.849  0.00  0.00     0.010 A 
BRANCH  22  25
HETATM   25  O           1     -22.726  -2.585 -11.881  0.00  0.00    -0.247 OA
BRANCH  25  26
HETATM   26  P           1     -23.873  -3.252 -12.802  0.00  0.00     0.411 P 
HETATM   27  O           1     -25.204  -2.917 -12.250  0.00  0.00    -0.624 OA
HETATM   28  O           1     -23.764  -2.729 -14.182  0.00  0.00    -0.624 OA
BRANCH  26  29
HETATM   29  O           1     -23.686  -4.856 -12.819  0.00  0.00    -0.300 OA
HETATM   30  H           1     -24.417  -5.182 -13.315  0.00  0.00     0.223 HD
ENDBRANCH  26  29
ENDBRANCH  25  26
ENDBRANCH  22  25
ENDBRANCH  18  19
ENDBRANCH   1  18
TORSDOF 11
ENDMDL
MODEL 2
REMARK VINA RESULT:      -8.0      1.668      2.336
REMARK  11 active torsions:
REMARK  status: ('A' for Active; 'I' for Inactive)
REMARK       I    between atoms: C_1  and  N_2 
REMARK    1  A    between atoms: C_1  and  C_30 
REMARK    2  A    between atoms: N_2  and  C_6 
REMARK    3  A    between atoms: C_5  and  C_6 
REMARK    4  A    between atoms: C_6  and  C_8 
REMARK    5  A    between atoms: C_8  and  C_9 
REMARK    6  A    between atoms: O_11  and  P_23 
REMARK    7  A    between atoms: N_16  and  C_30 
REMARK    8  A    between atoms: P_23  and  O_24 
REMARK    9  A    between atoms: O_24  and  C_25 
REMARK   10  A    between atoms: C_28  and  C_29 
REMARK   11  A    between atoms: C_29  and  C_30 
ROOT
HETATM    1  C           1     -20.896  -5.529  -6.858  0.00  0.00     0.278 C 
ENDROOT
BRANCH   1   2
HETATM    2  C           1     -20.419  -6.720  -6.063  0.00  0.00     0.249 C 
HETATM    3  N           1     -21.169  -7.190  -5.017  0.00  0.00    -0.344 N 
HETATM    4  H           1     -22.042  -6.739  -4.777  0.00  0.00     0.163 HD
HETATM    5  O           1     -19.377  -7.260  -6.349  0.00  0.00    -0.271 OA
BRANCH   3   6
HETATM    6  C           1     -20.711  -8.334  -4.253  0.00  0.00     0.189 C 
BRANCH   6   7
HETATM    7  C           1     -21.380  -9.584  -4.771  0.00  0.00     0.197 C 
HETATM    8  O           1     -21.092 -10.023  -5.904  0.00  0.00    -0.646 OA
HETATM    9  O           1     -22.224 -10.178  -4.066  0.00  0.00    -0.646 OA
ENDBRANCH   6   7
BRANCH   6  10
HETATM   10  C           1     -21.063  -8.140  -2.785  0.00  0.00     0.014 C 
HETATM   11  C           1     -19.866  -8.519  -1.922  0.00  0.00     0.012 C 
BRANCH  10  12
HETATM   12  C           1     -21.424  -6.682  -2.537  0.00  0.00     0.002 C 
HETATM   13  C           1     -22.306  -6.581  -1.298  0.00  0.00     0.005 C 
ENDBRANCH  10  12
ENDBRANCH   6  10
ENDBRANCH   3   6
ENDBRANCH   1   2
BRANCH   1  14
HETATM   14  N           1     -20.751  -4.286  -6.030  0.00  0.00    -0.066 N 
HETATM   15  H           1     -20.190  -3.580  -6.557  0.00  0.00     0.275 HD
HETATM   16  H           1     -21.698  -3.895  -5.823  0.00  0.00     0.275 HD
HETATM   17  H           1     -20.266  -4.519  -5.135  0.00  0.00     0.275 HD
ENDBRANCH   1  14
BRANCH   1  18
HETATM   18  C           1     -20.060  -5.396  -8.123  0.00  0.00     0.081 C 
BRANCH  18  19
HETATM   19  C           1     -20.826  -4.618  -9.148  0.00  0.00    -0.056 A 
HETATM   20  C           1     -22.157  -4.273  -8.911  0.00  0.00     0.010 A 
HETATM   21  C           1     -22.870  -3.550  -9.867  0.00  0.00     0.038 A 
HETATM   22  C           1     -22.254  -3.172 -11.059  0.00  0.00     0.081 A 
HETATM   23  C           1     -20.924  -3.518 -11.297  0.00  0.00     0.038 A 
HETATM   24  C           1     -20.209  -4.241 -10.342  0.00  0.00     0.010 A 
BRANCH  22  25
HETATM   25  O           1     -22.947  -2.469 -11.988  0.00  0.00    -0.247 OA
BRANCH  25  26
HETATM   26  P           1     -23.963  -3.279 -12.947  0.00  0.00     0.411 P 
HETATM   27  O           1     -25.357  -2.939 -12.586  0.00  0.00    -0.624 OA
HETATM   28  O           1     -23.713  -2.904 -14.357  0.00  0.00    -0.624 OA
BRANCH  26  29
HETATM   29  O           1     -23.731  -4.866 -12.763  0.00  0.00    -0.300 OA
HETATM   30  H           1     -24.556  -5.200 -12.458  0.00  0.00     0.223 HD
ENDBRANCH  26  29
ENDBRANCH  25  26
ENDBRANCH  22  25
ENDBRANCH  18  19
ENDBRANCH   1  18
TORSDOF 11
ENDMDL
MODEL 3
REMARK VINA RESULT:      -7.7      1.893      2.722
REMARK  11 active torsions:
REMARK  status: ('A' for Active; 'I' for Inactive)
REMARK       I    between atoms: C_1  and  N_2 
REMARK    1  A    between atoms: C_1  and  C_30 
REMARK    2  A    between atoms: N_2  and  C_6 
REMARK    3  A    between atoms: C_5  and  C_6 
REMARK    4  A    between atoms: C_6  and  C_8 
REMARK    5  A    between atoms: C_8  and  C_9 
REMARK    6  A    between atoms: O_11  and  P_23 
REMARK    7  A    between atoms: N_16  and  C_30 
REMARK    8  A    between atoms: P_23  and  O_24 
REMARK    9  A    between atoms: O_24  and  C_25 
REMARK   10  A    between atoms: C_28  and  C_29 
REMARK   11  A    between atoms: C_29  and  C_30 
ROOT
HETATM    1  C           1     -21.877  -4.669  -7.082  0.00  0.00     0.278 C 
ENDROOT
BRANCH   1   2
HETATM    2  C           1     -21.050  -5.334  -6.008  0.00  0.00     0.249 C 
HETATM    3  N           1     -21.409  -6.567  -5.533  0.00  0.00    -0.344 N 
HETATM    4  H           1     -22.229  -7.032  -5.902  0.00  0.00     0.163 HD
HETATM    5  O           1     -20.072  -4.779  -5.568  0.00  0.00    -0.271 OA
BRANCH   3   6
HETATM    6  C           1     -20.616  -7.206  -4.502  0.00  0.00     0.189 C 
BRANCH   6   7
HETATM    7  C           1     -20.024  -8.484  -5.043  0.00  0.00     0.197 C 
HETATM    8  O           1     -18.805  -8.717  -4.899  0.00  0.00    -0.646 OA
HETATM    9  O           1     -20.753  -9.309  -5.636  0.00  0.00    -0.646 OA
ENDBRANCH   6   7
BRANCH   6  10
HETATM   10  C           1     -21.500  -7.523  -3.303  0.00  0.00     0.014 C 
HETATM   11  C           1     -20.722  -8.381  -2.313  0.00  0.00     0.012 C 
BRANCH  10  12
HETATM   12  C           1     -21.924  -6.226  -2.626  0.00  0.00     0.002 C 
HETATM   13  C           1     -22.311  -6.512  -1.180  0.00  0.00     0.005 C 
ENDBRANCH  10  12
ENDBRANCH   6  10
ENDBRANCH   3   6
ENDBRANCH   1   2
BRANCH   1  14
HETATM   14  N           1     -21.436  -3.244  -7.242  0.00  0.00    -0.066 N 
HETATM   15  H           1     -20.576  -3.210  -7.834  0.00  0.00     0.275 HD
HETATM   16  H           1     -22.197  -2.695  -7.701  0.00  0.00     0.275 HD
HETATM   17  H           1     -21.228  -2.837  -6.302  0.00  0.00     0.275 HD
ENDBRANCH   1  14
BRANCH   1  18
HETATM   18  C           1     -21.686  -5.408  -8.400  0.00  0.00     0.081 C 
BRANCH  18  19
HETATM   19  C           1     -21.992  -4.486  -9.539  0.00  0.00    -0.056 A 
HETATM   20  C           1     -20.992  -4.149 -10.451  0.00  0.00     0.010 A 
HETATM   21  C           1     -21.278  -3.289 -11.512  0.00  0.00     0.038 A 
HETATM   22  C           1     -22.561  -2.766 -11.660  0.00  0.00     0.081 A 
HETATM   23  C           1     -23.561  -3.102 -10.747  0.00  0.00     0.038 A 
HETATM   24  C           1     -23.277  -3.962  -9.686  0.00  0.00     0.010 A 
BRANCH  22  25
HETATM   25  O           1     -22.839  -1.930 -12.690  0.00  0.00    -0.247 OA
BRANCH  25  26
HETATM   26  P           1     -23.531  -2.556 -14.008  0.00  0.00     0.411 P 
HETATM   27  O           1     -24.552  -1.617 -14.521  0.00  0.00    -0.624 OA
HETATM   28  O           1     -22.500  -2.781 -15.046  0.00  0.00    -0.624 OA
BRANCH  26  29
HETATM   29  O           1     -24.232  -3.962 -13.634  0.00  0.00    -0.300 OA
HETATM   30  H           1     -23.900  -4.576 -14.265  0.00  0.00     0.223 HD
ENDBRANCH  26  29
ENDBRANCH  25  26
ENDBRANCH  22  25
ENDBRANCH  18  19
ENDBRANCH   1  18
TORSDOF 11
ENDMDL
MODEL 4
REMARK VINA RESULT:      -7.4      1.984      2.874
REMARK  11 active torsions:
REMARK  status: ('A' for Active; 'I' for Inactive)
REMARK       I    between atoms: C_1  and  N_2 
REMARK    1  A    between atoms: C_1  and  C_30 
REMARK    2  A    between atoms: N_2  and  C_6 
REMARK    3  A    between atoms: C_5  and  C_6 
REMARK    4  A    between atoms: C_6  and  C_8 
REMARK    5  A    between atoms: C_8  and  C_9 
REMARK    6  A    between atoms: O_11  and  P_23 
REMARK    7  A    between atoms: N_16  and  C_30 
REMARK    8  A    between atoms: P_23  and  O_24 
REMARK    9  A    between atoms: O_24  and  C_25 
REMARK   10  A    between atoms: C_28  and  C_29 
REMARK   11  A    between atoms: C_29  and  C_30 
ROOT
HETATM    1  C           1     -21.556  -6.598  -5.616  0.00  0.00     0.278 C 
ENDROOT
BRANCH   1   2
HETATM    2  C           1     -20.829  -7.850  -5.189  0.00  0.00     0.249 C 
HETATM    3  N           1     -21.278  -8.570  -4.114  0.00  0.00    -0.344 N 
HETATM    4  H           1     -22.097  -8.262  -3.606  0.00  0.00     0.163 HD
HETATM    5  O           1     -19.852  -8.218  -5.796  0.00  0.00    -0.271 OA
BRANCH   3   6
HETATM    6  C           1     -20.580  -9.772  -3.704  0.00  0.00     0.189 C 
BRANCH   6   7
HETATM    7  C           1     -21.582 -10.866  -3.428  0.00  0.00     0.197 C 
HETATM    8  O           1     -22.514 -11.076  -4.234  0.00  0.00    -0.646 OA
HETATM    9  O           1     -21.482 -11.560  -2.393  0.00  0.00    -0.646 OA
ENDBRANCH   6   7
BRANCH   6  10
HETATM   10  C           1     -19.777  -9.489  -2.442  0.00  0.00     0.014 C 
HETATM   11  C           1     -18.300  -9.372  -2.796  0.00  0.00     0.012 C 
BRANCH  10  12
HETATM   12  C           1     -20.253  -8.185  -1.817  0.00  0.00     0.002 C 
HETATM   13  C           1     -21.040  -8.486  -0.548  0.00  0.00     0.005 C 
ENDBRANCH  10  12
ENDBRANCH   6  10
ENDBRANCH   3   6
ENDBRANCH   1   2
BRANCH   1  14
HETATM   14  N           1     -22.328  -6.049  -4.453  0.00  0.00    -0.066 N 
HETATM   15  H           1     -22.605  -6.830  -3.818  0.00  0.00     0.275 HD
HETATM   16  H           1     -21.730  -5.370  -3.930  0.00  0.00     0.275 HD
HETATM   17  H           1     -23.185  -5.563  -4.802  0.00  0.00     0.275 HD
ENDBRANCH   1  14
BRANCH   1  18
HETATM   18  C           1     -20.546  -5.562  -6.089  0.00  0.00     0.081 C 
BRANCH  18  19
HETATM   19  C           1     -21.024  -4.946  -7.368  0.00  0.00    -0.056 A 
HETATM   20  C           1     -20.213  -4.977  -8.502  0.00  0.00     0.010 A 
HETATM   21  C           1     -20.659  -4.403  -9.693  0.00  0.00     0.038 A 
HETATM   22  C           1     -21.914  -3.799  -9.750  0.00  0.00     0.081 A 
HETATM   23  C           1     -22.725  -3.767  -8.615  0.00  0.00     0.038 A 
HETATM   24  C           1     -22.280  -4.341  -7.424  0.00  0.00     0.010 A 
BRANCH  22  25
HETATM   25  O           1     -22.346  -3.241 -10.907  0.00  0.00    -0.247 OA
BRANCH  25  26
HETATM   26  P           1     -23.637  -3.893 -11.626  0.00  0.00     0.411 P 
HETATM   27  O           1     -23.758  -5.312 -11.226  0.00  0.00    -0.624 OA
HETATM   28  O           1     -24.854  -3.158 -11.214  0.00  0.00    -0.624 OA
BRANCH  26  29
HETATM   29  O           1     -23.468  -3.797 -13.229  0.00  0.00    -0.300 OA
HETATM   30  H           1     -22.900  -3.060 -13.371  0.00  0.00     0.223 HD
ENDBRANCH  26  29
ENDBRANCH  25  26
ENDBRANCH  22  25
ENDBRANCH  18  19
ENDBRANCH   1  18
TORSDOF 11
ENDMDL
MODEL 5
REMARK VINA RESULT:      -7.3      3.531      9.073
REMARK  11 active torsions:
REMARK  status: ('A' for Active; 'I' for Inactive)
REMARK       I    between atoms: C_1  and  N_2 
REMARK    1  A    between atoms: C_1  and  C_30 
REMARK    2  A    between atoms: N_2  and  C_6 
REMARK    3  A    between atoms: C_5  and  C_6 
REMARK    4  A    between atoms: C_6  and  C_8 
REMARK    5  A    between atoms: C_8  and  C_9 
REMARK    6  A    between atoms: O_11  and  P_23 
REMARK    7  A    between atoms: N_16  and  C_30 
REMARK    8  A    between atoms: P_23  and  O_24 
REMARK    9  A    between atoms: O_24  and  C_25 
REMARK   10  A    between atoms: C_28  and  C_29 
REMARK   11  A    between atoms: C_29  and  C_30 
ROOT
HETATM    1  C           1     -21.134  -5.413  -6.604  0.00  0.00     0.278 C 
ENDROOT
BRANCH   1   2
HETATM    2  C           1     -21.674  -4.405  -7.590  0.00  0.00     0.249 C 
HETATM    3  N           1     -22.284  -4.831  -8.740  0.00  0.00    -0.344 N 
HETATM    4  H           1     -22.372  -5.821  -8.929  0.00  0.00     0.163 HD
HETATM    5  O           1     -21.569  -3.223  -7.365  0.00  0.00    -0.271 OA
BRANCH   3   6
HETATM    6  C           1     -22.802  -3.864  -9.687  0.00  0.00     0.189 C 
BRANCH   6   7
HETATM    7  C           1     -24.310  -3.891  -9.658  0.00  0.00     0.197 C 
HETATM    8  O           1     -24.919  -4.965  -9.848  0.00  0.00    -0.646 OA
HETATM    9  O           1     -24.950  -2.838  -9.445  0.00  0.00    -0.646 OA
ENDBRANCH   6   7
BRANCH   6  10
HETATM   10  C           1     -22.314  -4.211 -11.087  0.00  0.00     0.014 C 
HETATM   11  C           1     -22.817  -3.163 -12.073  0.00  0.00     0.012 C 
BRANCH  10  12
HETATM   12  C           1     -20.792  -4.233 -11.105  0.00  0.00     0.002 C 
HETATM   13  C           1     -20.264  -2.807 -11.194  0.00  0.00     0.005 C 
ENDBRANCH  10  12
ENDBRANCH   6  10
ENDBRANCH   3   6
ENDBRANCH   1   2
BRANCH   1  14
HETATM   14  N           1     -20.026  -4.788  -5.808  0.00  0.00    -0.066 N 
HETATM   15  H           1     -20.120  -3.748  -5.836  0.00  0.00     0.275 HD
HETATM   16  H           1     -20.084  -5.116  -4.817  0.00  0.00     0.275 HD
HETATM   17  H           1     -19.105  -5.066  -6.216  0.00  0.00     0.275 HD
ENDBRANCH   1  14
BRANCH   1  18
HETATM   18  C           1     -22.249  -5.850  -5.664  0.00  0.00     0.081 C 
BRANCH  18  19
HETATM   19  C           1     -21.686  -6.746  -4.605  0.00  0.00    -0.056 A 
HETATM   20  C           1     -21.648  -6.319  -3.278  0.00  0.00     0.010 A 
HETATM   21  C           1     -21.123  -7.156  -2.292  0.00  0.00     0.038 A 
HETATM   22  C           1     -20.637  -8.417  -2.633  0.00  0.00     0.081 A 
HETATM   23  C           1     -20.674  -8.844  -3.960  0.00  0.00     0.038 A 
HETATM   24  C           1     -21.199  -8.009  -4.947  0.00  0.00     0.010 A 
BRANCH  22  25
HETATM   25  O           1     -20.127  -9.229  -1.675  0.00  0.00    -0.247 OA
BRANCH  25  26
HETATM   26  P           1     -21.162  -9.982  -0.690  0.00  0.00     0.411 P 
HETATM   27  O           1     -20.657 -11.340  -0.392  0.00  0.00    -0.624 OA
HETATM   28  O           1     -21.290  -9.215   0.569  0.00  0.00    -0.624 OA
BRANCH  26  29
HETATM   29  O           1     -22.606 -10.089  -1.404  0.00  0.00    -0.300 OA
HETATM   30  H           1     -22.417 -10.211  -2.319  0.00  0.00     0.223 HD
ENDBRANCH  26  29
ENDBRANCH  25  26
ENDBRANCH  22  25
ENDBRANCH  18  19
ENDBRANCH   1  18
TORSDOF 11
ENDMDL
MODEL 6
REMARK VINA RESULT:      -7.0      1.468      1.829
REMARK  11 active torsions:
REMARK  status: ('A' for Active; 'I' for Inactive)
REMARK       I    between atoms: C_1  and  N_2 
REMARK    1  A    between atoms: C_1  and  C_30 
REMARK    2  A    between atoms: N_2  and  C_6 
REMARK    3  A    between atoms: C_5  and  C_6 
REMARK    4  A    between atoms: C_6  and  C_8 
REMARK    5  A    between atoms: C_8  and  C_9 
REMARK    6  A    between atoms: O_11  and  P_23 
REMARK    7  A    between atoms: N_16  and  C_30 
REMARK    8  A    between atoms: P_23  and  O_24 
REMARK    9  A    between atoms: O_24  and  C_25 
REMARK   10  A    between atoms: C_28  and  C_29 
REMARK   11  A    between atoms: C_29  and  C_30 
ROOT
HETATM    1  C           1     -20.405  -6.155  -5.673  0.00  0.00     0.278 C 
ENDROOT
BRANCH   1   2
HETATM    2  C           1     -21.451  -6.617  -4.687  0.00  0.00     0.249 C 
HETATM    3  N           1     -21.072  -7.248  -3.532  0.00  0.00    -0.344 N 
HETATM    4  H           1     -20.091  -7.406  -3.340  0.00  0.00     0.163 HD
HETATM    5  O           1     -22.622  -6.428  -4.916  0.00  0.00    -0.271 OA
BRANCH   3   6
HETATM    6  C           1     -22.076  -7.692  -2.586  0.00  0.00     0.189 C 
BRANCH   6   7
HETATM    7  C           1     -22.285  -6.626  -1.538  0.00  0.00     0.197 C 
HETATM    8  O           1     -22.749  -6.932  -0.420  0.00  0.00    -0.646 OA
HETATM    9  O           1     -21.994  -5.436  -1.791  0.00  0.00    -0.646 OA
ENDBRANCH   6   7
BRANCH   6  10
HETATM   10  C           1     -21.611  -8.978  -1.916  0.00  0.00     0.014 C 
HETATM   11  C           1     -22.033 -10.172  -2.764  0.00  0.00     0.012 C 
BRANCH  10  12
HETATM   12  C           1     -20.095  -8.963  -1.781  0.00  0.00     0.002 C 
HETATM   13  C           1     -19.555 -10.376  -1.961  0.00  0.00     0.005 C 
ENDBRANCH  10  12
ENDBRANCH   6  10
ENDBRANCH   3   6
ENDBRANCH   1   2
BRANCH   1  14
HETATM   14  N           1     -20.663  -6.789  -7.007  0.00  0.00    -0.066 N 
HETATM   15  H           1     -19.973  -6.427  -7.704  0.00  0.00     0.275 HD
HETATM   16  H           1     -20.561  -7.826  -6.924  0.00  0.00     0.275 HD
HETATM   17  H           1     -21.631  -6.557  -7.322  0.00  0.00     0.275 HD
ENDBRANCH   1  14
BRANCH   1  18
HETATM   18  C           1     -20.472  -4.640  -5.811  0.00  0.00     0.081 C 
BRANCH  18  19
HETATM   19  C           1     -20.962  -4.285  -7.180  0.00  0.00    -0.056 A 
HETATM   20  C           1     -22.314  -4.009  -7.387  0.00  0.00     0.010 A 
HETATM   21  C           1     -22.770  -3.679  -8.663  0.00  0.00     0.038 A 
HETATM   22  C           1     -21.876  -3.624  -9.732  0.00  0.00     0.081 A 
HETATM   23  C           1     -20.525  -3.901  -9.525  0.00  0.00     0.038 A 
HETATM   24  C           1     -20.067  -4.231  -8.249  0.00  0.00     0.010 A 
BRANCH  22  25
HETATM   25  O           1     -22.320  -3.304 -10.971  0.00  0.00    -0.247 OA
BRANCH  25  26
HETATM   26  P           1     -23.675  -4.008 -11.497  0.00  0.00     0.411 P 
HETATM   27  O           1     -23.777  -5.368 -10.925  0.00  0.00    -0.624 OA
HETATM   28  O           1     -24.843  -3.205 -11.074  0.00  0.00    -0.624 OA
BRANCH  26  29
HETATM   29  O           1     -23.644  -4.103 -13.109  0.00  0.00    -0.300 OA
HETATM   30  H           1     -24.547  -4.071 -13.372  0.00  0.00     0.223 HD
ENDBRANCH  26  29
ENDBRANCH  25  26
ENDBRANCH  22  25
ENDBRANCH  18  19
ENDBRANCH   1  18
TORSDOF 11
ENDMDL
MODEL 7
REMARK VINA RESULT:      -7.0      1.961      2.820
REMARK  11 active torsions:
REMARK  status: ('A' for Active; 'I' for Inactive)
REMARK       I    between atoms: C_1  and  N_2 
REMARK    1  A    between atoms: C_1  and  C_30 
REMARK    2  A    between atoms: N_2  and  C_6 
REMARK    3  A    between atoms: C_5  and  C_6 
REMARK    4  A    between atoms: C_6  and  C_8 
REMARK    5  A    between atoms: C_8  and  C_9 
REMARK    6  A    between atoms: O_11  and  P_23 
REMARK    7  A    between atoms: N_16  and  C_30 
REMARK    8  A    between atoms: P_23  and  O_24 
REMARK    9  A    between atoms: O_24  and  C_25 
REMARK   10  A    between atoms: C_28  and  C_29 
REMARK   11  A    between atoms: C_29  and  C_30 
ROOT
HETATM    1  C           1     -21.151  -6.757  -5.192  0.00  0.00     0.278 C 
ENDROOT
BRANCH   1   2
HETATM    2  C           1     -20.806  -8.226  -5.140  0.00  0.00     0.249 C 
HETATM    3  N           1     -19.975  -8.700  -4.160  0.00  0.00    -0.344 N 
HETATM    4  H           1     -19.592  -8.065  -3.471  0.00  0.00     0.163 HD
HETATM    5  O           1     -21.264  -8.984  -5.961  0.00  0.00    -0.271 OA
BRANCH   3   6
HETATM    6  C           1     -19.644 -10.110  -4.109  0.00  0.00     0.189 C 
BRANCH   6   7
HETATM    7  C           1     -20.255 -10.725  -2.874  0.00  0.00     0.197 C 
HETATM    8  O           1     -20.947 -10.025  -2.105  0.00  0.00    -0.646 OA
HETATM    9  O           1     -20.067 -11.934  -2.620  0.00  0.00    -0.646 OA
ENDBRANCH   6   7
BRANCH   6  10
HETATM   10  C           1     -18.131 -10.276  -4.065  0.00  0.00     0.014 C 
HETATM   11  C           1     -17.537  -9.870  -5.408  0.00  0.00     0.012 C 
BRANCH  10  12
HETATM   12  C           1     -17.554  -9.393  -2.968  0.00  0.00     0.002 C 
HETATM   13  C           1     -16.038  -9.549  -2.935  0.00  0.00     0.005 C 
ENDBRANCH  10  12
ENDBRANCH   6  10
ENDBRANCH   3   6
ENDBRANCH   1   2
BRANCH   1  14
HETATM   14  N           1     -21.133  -6.191  -3.803  0.00  0.00    -0.066 N 
HETATM   15  H           1     -21.009  -6.964  -3.113  0.00  0.00     0.275 HD
HETATM   16  H           1     -20.342  -5.513  -3.714  0.00  0.00     0.275 HD
HETATM   17  H           1     -22.036  -5.699  -3.616  0.00  0.00     0.275 HD
ENDBRANCH   1  14
BRANCH   1  18
HETATM   18  C           1     -20.126  -6.026  -6.050  0.00  0.00     0.081 C 
BRANCH  18  19
HETATM   19  C           1     -20.832  -5.256  -7.122  0.00  0.00    -0.056 A 
HETATM   20  C           1     -22.125  -4.780  -6.904  0.00  0.00     0.010 A 
HETATM   21  C           1     -22.782  -4.063  -7.904  0.00  0.00     0.038 A 
HETATM   22  C           1     -22.148  -3.822  -9.121  0.00  0.00     0.081 A 
HETATM   23  C           1     -20.855  -4.298  -9.341  0.00  0.00     0.038 A 
HETATM   24  C           1     -20.197  -5.015  -8.341  0.00  0.00     0.010 A 
BRANCH  22  25
HETATM   25  O           1     -22.786  -3.126 -10.093  0.00  0.00    -0.247 OA
BRANCH  25  26
HETATM   26  P           1     -24.062  -3.814 -10.804  0.00  0.00     0.411 P 
HETATM   27  O           1     -24.544  -2.944 -11.900  0.00  0.00    -0.624 OA
HETATM   28  O           1     -23.669  -5.130 -11.354  0.00  0.00    -0.624 OA
BRANCH  26  29
HETATM   29  O           1     -25.242  -4.015  -9.720  0.00  0.00    -0.300 OA
HETATM   30  H           1     -25.977  -4.330 -10.215  0.00  0.00     0.223 HD
ENDBRANCH  26  29
ENDBRANCH  25  26
ENDBRANCH  22  25
ENDBRANCH  18  19
ENDBRANCH   1  18
TORSDOF 11
ENDMDL
MODEL 8
REMARK VINA RESULT:      -7.0      2.118      2.784
REMARK  11 active torsions:
REMARK  status: ('A' for Active; 'I' for Inactive)
REMARK       I    between atoms: C_1  and  N_2 
REMARK    1  A    between atoms: C_1  and  C_30 
REMARK    2  A    between atoms: N_2  and  C_6 
REMARK    3  A    between atoms: C_5  and  C_6 
REMARK    4  A    between atoms: C_6  and  C_8 
REMARK    5  A    between atoms: C_8  and  C_9 
REMARK    6  A    between atoms: O_11  and  P_23 
REMARK    7  A    between atoms: N_16  and  C_30 
REMARK    8  A    between atoms: P_23  and  O_24 
REMARK    9  A    between atoms: O_24  and  C_25 
REMARK   10  A    between atoms: C_28  and  C_29 
REMARK   11  A    between atoms: C_29  and  C_30 
ROOT
HETATM    1  C           1     -21.169  -6.196  -5.634  0.00  0.00     0.278 C 
ENDROOT
BRANCH   1   2
HETATM    2  C           1     -20.231  -7.378  -5.606  0.00  0.00     0.249 C 
HETATM    3  N           1     -20.357  -8.329  -4.629  0.00  0.00    -0.344 N 
HETATM    4  H           1     -21.080  -8.239  -3.926  0.00  0.00     0.163 HD
HETATM    5  O           1     -19.369  -7.485  -6.445  0.00  0.00    -0.271 OA
BRANCH   3   6
HETATM    6  C           1     -19.457  -9.464  -4.602  0.00  0.00     0.189 C 
BRANCH   6   7
HETATM    7  C           1     -20.259 -10.741  -4.557  0.00  0.00     0.197 C 
HETATM    8  O           1     -19.722 -11.828  -4.861  0.00  0.00    -0.646 OA
HETATM    9  O           1     -21.462 -10.712  -4.219  0.00  0.00    -0.646 OA
ENDBRANCH   6   7
BRANCH   6  10
HETATM   10  C           1     -18.568  -9.379  -3.368  0.00  0.00     0.014 C 
HETATM   11  C           1     -19.299  -9.982  -2.175  0.00  0.00     0.012 C 
BRANCH  10  12
HETATM   12  C           1     -17.279 -10.151  -3.615  0.00  0.00     0.002 C 
HETATM   13  C           1     -16.122  -9.442  -2.921  0.00  0.00     0.005 C 
ENDBRANCH  10  12
ENDBRANCH   6  10
ENDBRANCH   3   6
ENDBRANCH   1   2
BRANCH   1  14
HETATM   14  N           1     -21.729  -5.970  -4.261  0.00  0.00    -0.066 N 
HETATM   15  H           1     -22.160  -5.019  -4.212  0.00  0.00     0.275 HD
HETATM   16  H           1     -22.457  -6.693  -4.060  0.00  0.00     0.275 HD
HETATM   17  H           1     -20.962  -6.042  -3.556  0.00  0.00     0.275 HD
ENDBRANCH   1  14
BRANCH   1  18
HETATM   18  C           1     -20.409  -4.955  -6.081  0.00  0.00     0.081 C 
BRANCH  18  19
HETATM   19  C           1     -20.912  -4.516  -7.422  0.00  0.00    -0.056 A 
HETATM   20  C           1     -22.203  -4.003  -7.548  0.00  0.00     0.010 A 
HETATM   21  C           1     -22.671  -3.595  -8.798  0.00  0.00     0.038 A 
HETATM   22  C           1     -21.850  -3.701  -9.919  0.00  0.00     0.081 A 
HETATM   23  C           1     -20.560  -4.216  -9.793  0.00  0.00     0.038 A 
HETATM   24  C           1     -20.090  -4.624  -8.544  0.00  0.00     0.010 A 
BRANCH  22  25
HETATM   25  O           1     -22.305  -3.306 -11.133  0.00  0.00    -0.247 OA
BRANCH  25  26
HETATM   26  P           1     -23.664  -3.978 -11.689  0.00  0.00     0.411 P 
HETATM   27  O           1     -23.806  -5.339 -11.126  0.00  0.00    -0.624 OA
HETATM   28  O           1     -24.823  -3.153 -11.283  0.00  0.00    -0.624 OA
BRANCH  26  29
HETATM   29  O           1     -23.604  -4.066 -13.300  0.00  0.00    -0.300 OA
HETATM   30  H           1     -23.767  -3.188 -13.598  0.00  0.00     0.223 HD
ENDBRANCH  26  29
ENDBRANCH  25  26
ENDBRANCH  22  25
ENDBRANCH  18  19
ENDBRANCH   1  18
TORSDOF 11
ENDMDL
MODEL 9
REMARK VINA RESULT:      -6.5      5.674      8.522
REMARK  11 active torsions:
REMARK  status: ('A' for Active; 'I' for Inactive)
REMARK       I    between atoms: C_1  and  N_2 
REMARK    1  A    between atoms: C_1  and  C_30 
REMARK    2  A    between atoms: N_2  and  C_6 
REMARK    3  A    between atoms: C_5  and  C_6 
REMARK    4  A    between atoms: C_6  and  C_8 
REMARK    5  A    between atoms: C_8  and  C_9 
REMARK    6  A    between atoms: O_11  and  P_23 
REMARK    7  A    between atoms: N_16  and  C_30 
REMARK    8  A    between atoms: P_23  and  O_24 
REMARK    9  A    between atoms: O_24  and  C_25 
REMARK   10  A    between atoms: C_28  and  C_29 
REMARK   11  A    between atoms: C_29  and  C_30 
ROOT
HETATM    1  C           1     -22.756 -10.396  -0.272  0.00  0.00     0.278 C 
ENDROOT
BRANCH   1   2
HETATM    2  C           1     -21.908 -11.406   0.462  0.00  0.00     0.249 C 
HETATM    3  N           1     -22.303 -12.717   0.522  0.00  0.00    -0.344 N 
HETATM    4  H           1     -23.164 -13.006   0.075  0.00  0.00     0.163 HD
HETATM    5  O           1     -20.881 -11.061   0.995  0.00  0.00    -0.271 OA
BRANCH   3   6
HETATM    6  C           1     -21.490 -13.687   1.227  0.00  0.00     0.189 C 
BRANCH   6   7
HETATM    7  C           1     -20.564 -14.369   0.250  0.00  0.00     0.197 C 
HETATM    8  O           1     -21.034 -15.039  -0.694  0.00  0.00    -0.646 OA
HETATM    9  O           1     -19.325 -14.266   0.386  0.00  0.00    -0.646 OA
ENDBRANCH   6   7
BRANCH   6  10
HETATM   10  C           1     -22.390 -14.725   1.882  0.00  0.00     0.014 C 
HETATM   11  C           1     -21.661 -15.355   3.063  0.00  0.00     0.012 C 
BRANCH  10  12
HETATM   12  C           1     -23.666 -14.055   2.375  0.00  0.00     0.002 C 
HETATM   13  C           1     -24.288 -14.899   3.480  0.00  0.00     0.005 C 
ENDBRANCH  10  12
ENDBRANCH   6  10
ENDBRANCH   3   6
ENDBRANCH   1   2
BRANCH   1  14
HETATM   14  N           1     -24.206 -10.670  -0.002  0.00  0.00    -0.066 N 
HETATM   15  H           1     -24.795 -10.116  -0.664  0.00  0.00     0.275 HD
HETATM   16  H           1     -24.397 -11.689  -0.135  0.00  0.00     0.275 HD
HETATM   17  H           1     -24.435 -10.397   0.980  0.00  0.00     0.275 HD
ENDBRANCH   1  14
BRANCH   1  18
HETATM   18  C           1     -22.407  -8.995   0.212  0.00  0.00     0.081 C 
BRANCH  18  19
HETATM   19  C           1     -21.995  -8.151  -0.954  0.00  0.00    -0.056 A 
HETATM   20  C           1     -22.385  -6.814  -1.020  0.00  0.00     0.010 A 
HETATM   21  C           1     -22.002  -6.029  -2.108  0.00  0.00     0.038 A 
HETATM   22  C           1     -21.229  -6.581  -3.129  0.00  0.00     0.081 A 
HETATM   23  C           1     -20.840  -7.919  -3.064  0.00  0.00     0.038 A 
HETATM   24  C           1     -21.223  -8.705  -1.976  0.00  0.00     0.010 A 
BRANCH  22  25
HETATM   25  O           1     -20.857  -5.819  -4.186  0.00  0.00    -0.247 OA
BRANCH  25  26
HETATM   26  P           1     -21.665  -5.999  -5.572  0.00  0.00     0.411 P 
HETATM   27  O           1     -21.472  -4.798  -6.414  0.00  0.00    -0.624 OA
HETATM   28  O           1     -21.157  -7.190  -6.287  0.00  0.00    -0.624 OA
BRANCH  26  29
HETATM   29  O           1     -23.238  -6.189  -5.260  0.00  0.00    -0.300 OA
HETATM   30  H           1     -23.269  -6.674  -4.453  0.00  0.00     0.223 HD
ENDBRANCH  26  29
ENDBRANCH  25  26
ENDBRANCH  22  25
ENDBRANCH  18  19
ENDBRANCH   1  18
TORSDOF 11
ENDMDL
