MODEL 1
REMARK VINA RESULT:      -7.7      0.000      0.000
REMARK  11 active torsions:
REMARK  status: ('A' for Active; 'I' for Inactive)
REMARK    1  A    between atoms: C_1  and  C_6 
REMARK       I    between atoms: C_2  and  N_9 
REMARK    2  A    between atoms: C_2  and  C_3 
REMARK    3  A    between atoms: C_3  and  C_4 
REMARK    4  A    between atoms: C_3  and  N_25 
REMARK    5  A    between atoms: C_4  and  C_5 
REMARK       I    between atoms: C_5  and  N_13 
REMARK    6  A    between atoms: C_6  and  C_16 
REMARK    7  A    between atoms: P_7  and  O_8 
REMARK    8  A    between atoms: P_7  and  O_22 
REMARK    9  A    between atoms: O_8  and  C_10 
REMARK   10  A    between atoms: N_9  and  C_16 
REMARK   11  A    between atoms: C_16  and  C_18 
ROOT
HETATM    1  C           1     -21.654  -6.771  -5.399  0.00  0.00     0.189 C 
ENDROOT
BRANCH   1   2
HETATM    2  C           1     -20.709  -5.634  -5.767  0.00  0.00     0.074 C 
BRANCH   2   3
HETATM    3  C           1     -21.127  -5.039  -7.075  0.00  0.00    -0.056 A 
HETATM    4  C           1     -22.374  -4.425  -7.196  0.00  0.00     0.010 A 
HETATM    5  C           1     -22.764  -3.872  -8.415  0.00  0.00     0.038 A 
HETATM    6  C           1     -21.906  -3.931  -9.513  0.00  0.00     0.081 A 
HETATM    7  C           1     -20.660  -4.545  -9.393  0.00  0.00     0.038 A 
HETATM    8  C           1     -20.270  -5.099  -8.174  0.00  0.00     0.010 A 
BRANCH   6   9
HETATM    9  O           1     -22.285  -3.393 -10.699  0.00  0.00    -0.247 OA
BRANCH   9  10
HETATM   10  P           1     -23.610  -3.981 -11.410  0.00  0.00     0.411 P 
HETATM   11  O           1     -24.776  -3.143 -11.052  0.00  0.00    -0.624 OA
HETATM   12  O           1     -23.840  -5.369 -10.952  0.00  0.00    -0.624 OA
BRANCH  10  13
HETATM   13  O           1     -23.410  -3.968 -13.012  0.00  0.00    -0.300 OA
HETATM   14  H           1     -22.720  -4.587 -13.177  0.00  0.00     0.223 HD
ENDBRANCH  10  13
ENDBRANCH   9  10
ENDBRANCH   6   9
ENDBRANCH   2   3
ENDBRANCH   1   2
BRANCH   1  15
HETATM   15  N           1     -22.391  -6.418  -4.201  0.00  0.00    -0.344 N 
HETATM   16  C           1     -21.745  -6.350  -2.996  0.00  0.00     0.249 C 
HETATM   17  O           1     -21.253  -5.308  -2.634  0.00  0.00    -0.271 OA
HETATM   18  H           1     -23.382  -6.223  -4.256  0.00  0.00     0.163 HD
BRANCH  16  19
HETATM   19  C           1     -21.649  -7.574  -2.119  0.00  0.00     0.283 C 
BRANCH  19  20
HETATM   20  C           1     -22.356  -7.310  -0.796  0.00  0.00     0.145 C 
BRANCH  20  21
HETATM   21  C           1     -22.229  -8.522   0.093  0.00  0.00     0.217 C 
HETATM   22  N           1     -23.161  -9.524   0.022  0.00  0.00    -0.370 N 
HETATM   23  H           1     -23.076 -10.337   0.618  0.00  0.00     0.159 HD
HETATM   24  H           1     -23.933  -9.451  -0.628  0.00  0.00     0.159 HD
HETATM   25  O           1     -21.306  -8.610   0.867  0.00  0.00    -0.274 OA
ENDBRANCH  20  21
ENDBRANCH  19  20
BRANCH  19  26
HETATM   26  N           1     -20.206  -7.890  -1.861  0.00  0.00    -0.066 N 
HETATM   27  H           1     -20.042  -8.913  -2.004  0.00  0.00     0.275 HD
HETATM   28  H           1     -19.607  -7.347  -2.523  0.00  0.00     0.275 HD
HETATM   29  H           1     -19.963  -7.632  -0.878  0.00  0.00     0.275 HD
ENDBRANCH  19  26
ENDBRANCH  16  19
ENDBRANCH   1  15
BRANCH   1  30
HETATM   30  C           1     -20.856  -8.028  -5.148  0.00  0.00     0.197 C 
HETATM   31  O           1     -19.620  -7.959  -4.977  0.00  0.00    -0.646 OA
HETATM   32  O           1     -21.432  -9.136  -5.109  0.00  0.00    -0.646 OA
ENDBRANCH   1  30
TORSDOF 11
ENDMDL
MODEL 2
REMARK VINA RESULT:      -7.4      1.880      2.534
REMARK  11 active torsions:
REMARK  status: ('A' for Active; 'I' for Inactive)
REMARK    1  A    between atoms: C_1  and  C_6 
REMARK       I    between atoms: C_2  and  N_9 
REMARK    2  A    between atoms: C_2  and  C_3 
REMARK    3  A    between atoms: C_3  and  C_4 
REMARK    4  A    between atoms: C_3  and  N_25 
REMARK    5  A    between atoms: C_4  and  C_5 
REMARK       I    between atoms: C_5  and  N_13 
REMARK    6  A    between atoms: C_6  and  C_16 
REMARK    7  A    between atoms: P_7  and  O_8 
REMARK    8  A    between atoms: P_7  and  O_22 
REMARK    9  A    between atoms: O_8  and  C_10 
REMARK   10  A    between atoms: N_9  and  C_16 
REMARK   11  A    between atoms: C_16  and  C_18 
ROOT
HETATM    1  C           1     -21.602  -5.600  -6.618  0.00  0.00     0.189 C 
ENDROOT
BRANCH   1   2
HETATM    2  C           1     -22.014  -4.209  -7.081  0.00  0.00     0.074 C 
BRANCH   2   3
HETATM    3  C           1     -22.443  -4.265  -8.515  0.00  0.00    -0.056 A 
HETATM    4  C           1     -23.796  -4.166  -8.841  0.00  0.00     0.010 A 
HETATM    5  C           1     -24.196  -4.219 -10.176  0.00  0.00     0.038 A 
HETATM    6  C           1     -23.244  -4.370 -11.184  0.00  0.00     0.081 A 
HETATM    7  C           1     -21.892  -4.469 -10.858  0.00  0.00     0.038 A 
HETATM    8  C           1     -21.491  -4.417  -9.523  0.00  0.00     0.010 A 
BRANCH   6   9
HETATM    9  O           1     -23.633  -4.422 -12.482  0.00  0.00    -0.247 OA
BRANCH   9  10
HETATM   10  P           1     -24.032  -3.037 -13.210  0.00  0.00     0.411 P 
HETATM   11  O           1     -25.464  -2.748 -12.971  0.00  0.00    -0.624 OA
HETATM   12  O           1     -23.789  -3.158 -14.665  0.00  0.00    -0.624 OA
BRANCH  10  13
HETATM   13  O           1     -23.134  -1.836 -12.611  0.00  0.00    -0.300 OA
HETATM   14  H           1     -22.836  -1.356 -13.364  0.00  0.00     0.223 HD
ENDBRANCH  10  13
ENDBRANCH   9  10
ENDBRANCH   6   9
ENDBRANCH   2   3
ENDBRANCH   1   2
BRANCH   1  15
HETATM   15  N           1     -22.285  -5.919  -5.380  0.00  0.00    -0.344 N 
HETATM   16  C           1     -21.635  -6.618  -4.399  0.00  0.00     0.249 C 
HETATM   17  O           1     -21.011  -6.027  -3.549  0.00  0.00    -0.271 OA
HETATM   18  H           1     -23.243  -5.624  -5.240  0.00  0.00     0.163 HD
BRANCH  16  19
HETATM   19  C           1     -21.697  -8.126  -4.378  0.00  0.00     0.283 C 
BRANCH  19  20
HETATM   20  C           1     -20.812  -8.656  -3.258  0.00  0.00     0.145 C 
BRANCH  20  21
HETATM   21  C           1     -21.673  -9.295  -2.196  0.00  0.00     0.217 C 
HETATM   22  N           1     -22.342 -10.460  -2.467  0.00  0.00    -0.370 N 
HETATM   23  H           1     -22.920 -10.889  -1.755  0.00  0.00     0.159 HD
HETATM   24  H           1     -22.258 -10.891  -3.378  0.00  0.00     0.159 HD
HETATM   25  O           1     -21.773  -8.781  -1.108  0.00  0.00    -0.274 OA
ENDBRANCH  20  21
ENDBRANCH  19  20
BRANCH  19  26
HETATM   26  N           1     -21.214  -8.662  -5.693  0.00  0.00    -0.066 N 
HETATM   27  H           1     -20.561  -9.461  -5.524  0.00  0.00     0.275 HD
HETATM   28  H           1     -22.031  -8.994  -6.255  0.00  0.00     0.275 HD
HETATM   29  H           1     -20.714  -7.908  -6.215  0.00  0.00     0.275 HD
ENDBRANCH  19  26
ENDBRANCH  16  19
ENDBRANCH   1  15
BRANCH   1  30
HETATM   30  C           1     -20.110  -5.635  -6.393  0.00  0.00     0.197 C 
HETATM   31  O           1     -19.529  -4.643  -5.902  0.00  0.00    -0.646 OA
HETATM   32  O           1     -19.456  -6.655  -6.697  0.00  0.00    -0.646 OA
ENDBRANCH   1  30
TORSDOF 11
ENDMDL
MODEL 3
REMARK VINA RESULT:      -7.4      3.906      8.767
REMARK  11 active torsions:
REMARK  status: ('A' for Active; 'I' for Inactive)
REMARK    1  A    between atoms: C_1  and  C_6 
REMARK       I    between atoms: C_2  and  N_9 
REMARK    2  A    between atoms: C_2  and  C_3 
REMARK    3  A    between atoms: C_3  and  C_4 
REMARK    4  A    between atoms: C_3  and  N_25 
REMARK    5  A    between atoms: C_4  and  C_5 
REMARK       I    between atoms: C_5  and  N_13 
REMARK    6  A    between atoms: C_6  and  C_16 
REMARK    7  A    between atoms: P_7  and  O_8 
REMARK    8  A    between atoms: P_7  and  O_22 
REMARK    9  A    between atoms: O_8  and  C_10 
REMARK   10  A    between atoms: N_9  and  C_16 
REMARK   11  A    between atoms: C_16  and  C_18 
ROOT
HETATM    1  C           1     -21.041  -4.753  -6.546  0.00  0.00     0.189 C 
ENDROOT
BRANCH   1   2
HETATM    2  C           1     -21.951  -5.956  -6.332  0.00  0.00     0.074 C 
BRANCH   2   3
HETATM    3  C           1     -21.672  -6.563  -4.993  0.00  0.00    -0.056 A 
HETATM    4  C           1     -21.314  -5.748  -3.918  0.00  0.00     0.010 A 
HETATM    5  C           1     -21.053  -6.313  -2.671  0.00  0.00     0.038 A 
HETATM    6  C           1     -21.150  -7.694  -2.497  0.00  0.00     0.081 A 
HETATM    7  C           1     -21.507  -8.509  -3.571  0.00  0.00     0.038 A 
HETATM    8  C           1     -21.768  -7.944  -4.818  0.00  0.00     0.010 A 
BRANCH   6   9
HETATM    9  O           1     -20.895  -8.244  -1.285  0.00  0.00    -0.247 OA
BRANCH   9  10
HETATM   10  P           1     -22.112  -8.345  -0.227  0.00  0.00     0.411 P 
HETATM   11  O           1     -22.975  -7.150  -0.351  0.00  0.00    -0.624 OA
HETATM   12  O           1     -21.565  -8.418   1.146  0.00  0.00    -0.624 OA
BRANCH  10  13
HETATM   13  O           1     -22.980  -9.672  -0.533  0.00  0.00    -0.300 OA
HETATM   14  H           1     -23.814  -9.354  -0.832  0.00  0.00     0.223 HD
ENDBRANCH  10  13
ENDBRANCH   9  10
ENDBRANCH   6   9
ENDBRANCH   2   3
ENDBRANCH   1   2
BRANCH   1  15
HETATM   15  N           1     -21.715  -3.781  -7.385  0.00  0.00    -0.344 N 
HETATM   16  C           1     -22.692  -4.187  -8.253  0.00  0.00     0.249 C 
HETATM   17  O           1     -23.845  -4.222  -7.891  0.00  0.00    -0.271 OA
HETATM   18  H           1     -21.462  -2.803  -7.329  0.00  0.00     0.163 HD
BRANCH  16  19
HETATM   19  C           1     -22.332  -4.590  -9.662  0.00  0.00     0.283 C 
BRANCH  19  20
HETATM   20  C           1     -21.679  -3.415 -10.377  0.00  0.00     0.145 C 
BRANCH  20  21
HETATM   21  C           1     -22.338  -3.212 -11.719  0.00  0.00     0.217 C 
HETATM   22  N           1     -21.777  -3.751 -12.846  0.00  0.00    -0.370 N 
HETATM   23  H           1     -22.220  -3.616 -13.746  0.00  0.00     0.159 HD
HETATM   24  H           1     -20.921  -4.286 -12.778  0.00  0.00     0.159 HD
HETATM   25  O           1     -23.361  -2.575 -11.799  0.00  0.00    -0.274 OA
ENDBRANCH  20  21
ENDBRANCH  19  20
BRANCH  19  26
HETATM   26  N           1     -23.575  -4.994 -10.398  0.00  0.00    -0.066 N 
HETATM   27  H           1     -23.547  -4.606 -11.368  0.00  0.00     0.275 HD
HETATM   28  H           1     -23.630  -6.037 -10.441  0.00  0.00     0.275 HD
HETATM   29  H           1     -24.413  -4.621  -9.897  0.00  0.00     0.275 HD
ENDBRANCH  19  26
ENDBRANCH  16  19
ENDBRANCH   1  15
BRANCH   1  30
HETATM   30  C           1     -19.766  -5.200  -7.218  0.00  0.00     0.197 C 
HETATM   31  O           1     -18.780  -4.433  -7.260  0.00  0.00    -0.646 OA
HETATM   32  O           1     -19.696  -6.337  -7.732  0.00  0.00    -0.646 OA
ENDBRANCH   1  30
TORSDOF 11
ENDMDL
MODEL 4
REMARK VINA RESULT:      -7.3      4.854      9.693
REMARK  11 active torsions:
REMARK  status: ('A' for Active; 'I' for Inactive)
REMARK    1  A    between atoms: C_1  and  C_6 
REMARK       I    between atoms: C_2  and  N_9 
REMARK    2  A    between atoms: C_2  and  C_3 
REMARK    3  A    between atoms: C_3  and  C_4 
REMARK    4  A    between atoms: C_3  and  N_25 
REMARK    5  A    between atoms: C_4  and  C_5 
REMARK       I    between atoms: C_5  and  N_13 
REMARK    6  A    between atoms: C_6  and  C_16 
REMARK    7  A    between atoms: P_7  and  O_8 
REMARK    8  A    between atoms: P_7  and  O_22 
REMARK    9  A    between atoms: O_8  and  C_10 
REMARK   10  A    between atoms: N_9  and  C_16 
REMARK   11  A    between atoms: C_16  and  C_18 
ROOT
HETATM    1  C           1     -23.197  -3.791 -10.171  0.00  0.00     0.189 C 
ENDROOT
BRANCH   1   2
HETATM    2  C           1     -22.996  -3.328  -8.734  0.00  0.00     0.074 C 
BRANCH   2   3
HETATM    3  C           1     -22.082  -4.278  -8.025  0.00  0.00    -0.056 A 
HETATM    4  C           1     -22.431  -4.774  -6.768  0.00  0.00     0.010 A 
HETATM    5  C           1     -21.579  -5.658  -6.107  0.00  0.00     0.038 A 
HETATM    6  C           1     -20.379  -6.047  -6.703  0.00  0.00     0.081 A 
HETATM    7  C           1     -20.030  -5.551  -7.958  0.00  0.00     0.038 A 
HETATM    8  C           1     -20.881  -4.666  -8.619  0.00  0.00     0.010 A 
BRANCH   6   9
HETATM    9  O           1     -19.551  -6.906  -6.060  0.00  0.00    -0.247 OA
BRANCH   9  10
HETATM   10  P           1     -20.215  -8.080  -5.171  0.00  0.00     0.411 P 
HETATM   11  O           1     -19.185  -9.086  -4.832  0.00  0.00    -0.624 OA
HETATM   12  O           1     -21.301  -8.726  -5.941  0.00  0.00    -0.624 OA
BRANCH  10  13
HETATM   13  O           1     -20.819  -7.448  -3.813  0.00  0.00    -0.300 OA
HETATM   14  H           1     -21.597  -6.991  -4.082  0.00  0.00     0.223 HD
ENDBRANCH  10  13
ENDBRANCH   9  10
ENDBRANCH   6   9
ENDBRANCH   2   3
ENDBRANCH   1   2
BRANCH   1  15
HETATM   15  N           1     -23.710  -2.692 -10.965  0.00  0.00    -0.344 N 
HETATM   16  C           1     -23.945  -2.864 -12.302  0.00  0.00     0.249 C 
HETATM   17  O           1     -25.028  -3.244 -12.681  0.00  0.00    -0.271 OA
HETATM   18  H           1     -23.895  -1.797 -10.530  0.00  0.00     0.163 HD
BRANCH  16  19
HETATM   19  C           1     -22.853  -2.580 -13.304  0.00  0.00     0.283 C 
BRANCH  19  20
HETATM   20  C           1     -23.434  -2.608 -14.712  0.00  0.00     0.145 C 
BRANCH  20  21
HETATM   21  C           1     -23.735  -1.199 -15.160  0.00  0.00     0.217 C 
HETATM   22  N           1     -22.864  -0.543 -15.989  0.00  0.00    -0.370 N 
HETATM   23  H           1     -23.066   0.402 -16.291  0.00  0.00     0.159 HD
HETATM   24  H           1     -22.019  -1.004 -16.302  0.00  0.00     0.159 HD
HETATM   25  O           1     -24.744  -0.650 -14.789  0.00  0.00    -0.274 OA
ENDBRANCH  20  21
ENDBRANCH  19  20
BRANCH  19  26
HETATM   26  N           1     -21.782  -3.623 -13.184  0.00  0.00    -0.066 N 
HETATM   27  H           1     -21.386  -3.826 -14.130  0.00  0.00     0.275 HD
HETATM   28  H           1     -21.023  -3.272 -12.557  0.00  0.00     0.275 HD
HETATM   29  H           1     -22.191  -4.497 -12.783  0.00  0.00     0.275 HD
ENDBRANCH  19  26
ENDBRANCH  16  19
ENDBRANCH   1  15
BRANCH   1  30
HETATM   30  C           1     -24.182  -4.934 -10.198  0.00  0.00     0.197 C 
HETATM   31  O           1     -23.929  -5.962 -10.863  0.00  0.00    -0.646 OA
HETATM   32  O           1     -25.251  -4.853  -9.555  0.00  0.00    -0.646 OA
ENDBRANCH   1  30
TORSDOF 11
ENDMDL
MODEL 5
REMARK VINA RESULT:      -6.9      1.427      1.708
REMARK  11 active torsions:
REMARK  status: ('A' for Active; 'I' for Inactive)
REMARK    1  A    between atoms: C_1  and  C_6 
REMARK       I    between atoms: C_2  and  N_9 
REMARK    2  A    between atoms: C_2  and  C_3 
REMARK    3  A    between atoms: C_3  and  C_4 
REMARK    4  A    between atoms: C_3  and  N_25 
REMARK    5  A    between atoms: C_4  and  C_5 
REMARK       I    between atoms: C_5  and  N_13 
REMARK    6  A    between atoms: C_6  and  C_16 
REMARK    7  A    between atoms: P_7  and  O_8 
REMARK    8  A    between atoms: P_7  and  O_22 
REMARK    9  A    between atoms: O_8  and  C_10 
REMARK   10  A    between atoms: N_9  and  C_16 
REMARK   11  A    between atoms: C_16  and  C_18 
ROOT
HETATM    1  C           1     -21.130  -7.745  -5.560  0.00  0.00     0.189 C 
ENDROOT
BRANCH   1   2
HETATM    2  C           1     -20.400  -6.409  -5.599  0.00  0.00     0.074 C 
BRANCH   2   3
HETATM    3  C           1     -20.915  -5.590  -6.742  0.00  0.00    -0.056 A 
HETATM    4  C           1     -22.156  -4.960  -6.643  0.00  0.00     0.010 A 
HETATM    5  C           1     -22.638  -4.198  -7.707  0.00  0.00     0.038 A 
HETATM    6  C           1     -21.878  -4.065  -8.869  0.00  0.00     0.081 A 
HETATM    7  C           1     -20.638  -4.695  -8.968  0.00  0.00     0.038 A 
HETATM    8  C           1     -20.156  -5.458  -7.904  0.00  0.00     0.010 A 
BRANCH   6   9
HETATM    9  O           1     -22.345  -3.325  -9.904  0.00  0.00    -0.247 OA
BRANCH   9  10
HETATM   10  P           1     -23.147  -4.086 -11.081  0.00  0.00     0.411 P 
HETATM   11  O           1     -24.183  -3.187 -11.635  0.00  0.00    -0.624 OA
HETATM   12  O           1     -23.789  -5.301 -10.533  0.00  0.00    -0.624 OA
BRANCH  10  13
HETATM   13  O           1     -22.114  -4.503 -12.251  0.00  0.00    -0.300 OA
HETATM   14  H           1     -21.302  -4.088 -12.018  0.00  0.00     0.223 HD
ENDBRANCH  10  13
ENDBRANCH   9  10
ENDBRANCH   6   9
ENDBRANCH   2   3
ENDBRANCH   1   2
BRANCH   1  15
HETATM   15  N           1     -22.102  -7.732  -4.485  0.00  0.00    -0.344 N 
HETATM   16  C           1     -21.779  -7.176  -3.276  0.00  0.00     0.249 C 
HETATM   17  O           1     -21.992  -6.004  -3.074  0.00  0.00    -0.271 OA
HETATM   18  H           1     -23.020  -8.135  -4.627  0.00  0.00     0.163 HD
BRANCH  16  19
HETATM   19  C           1     -21.158  -8.027  -2.195  0.00  0.00     0.283 C 
BRANCH  19  20
HETATM   20  C           1     -21.698  -9.447  -2.291  0.00  0.00     0.145 C 
BRANCH  20  21
HETATM   21  C           1     -20.640 -10.420  -1.831  0.00  0.00     0.217 C 
HETATM   22  N           1     -20.086 -11.300  -2.722  0.00  0.00    -0.370 N 
HETATM   23  H           1     -19.376 -11.952  -2.414  0.00  0.00     0.159 HD
HETATM   24  H           1     -20.384 -11.297  -3.689  0.00  0.00     0.159 HD
HETATM   25  O           1     -20.283 -10.423  -0.677  0.00  0.00    -0.274 OA
ENDBRANCH  20  21
ENDBRANCH  19  20
BRANCH  19  26
HETATM   26  N           1     -21.499  -7.452  -0.852  0.00  0.00    -0.066 N 
HETATM   27  H           1     -21.677  -6.426  -0.948  0.00  0.00     0.275 HD
HETATM   28  H           1     -22.355  -7.920  -0.480  0.00  0.00     0.275 HD
HETATM   29  H           1     -20.702  -7.607  -0.194  0.00  0.00     0.275 HD
ENDBRANCH  19  26
ENDBRANCH  16  19
ENDBRANCH   1  15
BRANCH   1  30
HETATM   30  C           1     -20.135  -8.856  -5.325  0.00  0.00     0.197 C 
HETATM   31  O           1     -20.439 -10.036  -5.604  0.00  0.00    -0.646 OA
HETATM   32  O           1     -19.008  -8.596  -4.853  0.00  0.00    -0.646 OA
ENDBRANCH   1  30
TORSDOF 11
ENDMDL
MODEL 6
REMARK VINA RESULT:      -6.7      3.916      8.881
REMARK  11 active torsions:
REMARK  status: ('A' for Active; 'I' for Inactive)
REMARK    1  A    between atoms: C_1  and  C_6 
REMARK       I    between atoms: C_2  and  N_9 
REMARK    2  A    between atoms: C_2  and  C_3 
REMARK    3  A    between atoms: C_3  and  C_4 
REMARK    4  A    between atoms: C_3  and  N_25 
REMARK    5  A    between atoms: C_4  and  C_5 
REMARK       I    between atoms: C_5  and  N_13 
REMARK    6  A    between atoms: C_6  and  C_16 
REMARK    7  A    between atoms: P_7  and  O_8 
REMARK    8  A    between atoms: P_7  and  O_22 
REMARK    9  A    between atoms: O_8  and  C_10 
REMARK   10  A    between atoms: N_9  and  C_16 
REMARK   11  A    between atoms: C_16  and  C_18 
ROOT
HETATM    1  C           1     -21.108  -7.039  -5.976  0.00  0.00     0.189 C 
ENDROOT
BRANCH   1   2
HETATM    2  C           1     -19.922  -7.703  -5.289  0.00  0.00     0.074 C 
BRANCH   2   3
HETATM    3  C           1     -20.417  -8.717  -4.305  0.00  0.00    -0.056 A 
HETATM    4  C           1     -19.769  -8.872  -3.079  0.00  0.00     0.010 A 
HETATM    5  C           1     -20.229  -9.817  -2.163  0.00  0.00     0.038 A 
HETATM    6  C           1     -21.338 -10.605  -2.471  0.00  0.00     0.081 A 
HETATM    7  C           1     -21.986 -10.450  -3.696  0.00  0.00     0.038 A 
HETATM    8  C           1     -21.525  -9.506  -4.613  0.00  0.00     0.010 A 
BRANCH   6   9
HETATM    9  O           1     -21.786 -11.524  -1.580  0.00  0.00    -0.247 OA
BRANCH   9  10
HETATM   10  P           1     -22.419 -10.991  -0.193  0.00  0.00     0.411 P 
HETATM   11  O           1     -21.350 -10.866   0.822  0.00  0.00    -0.624 OA
HETATM   12  O           1     -23.441 -11.949   0.282  0.00  0.00    -0.624 OA
BRANCH  10  13
HETATM   13  O           1     -23.103  -9.548  -0.435  0.00  0.00    -0.300 OA
HETATM   14  H           1     -23.345  -9.246   0.423  0.00  0.00     0.223 HD
ENDBRANCH  10  13
ENDBRANCH   9  10
ENDBRANCH   6   9
ENDBRANCH   2   3
ENDBRANCH   1   2
BRANCH   1  15
HETATM   15  N           1     -20.633  -6.223  -7.077  0.00  0.00    -0.344 N 
HETATM   16  C           1     -21.219  -5.013  -7.335  0.00  0.00     0.249 C 
HETATM   17  O           1     -20.793  -4.012  -6.809  0.00  0.00    -0.271 OA
HETATM   18  H           1     -19.869  -6.549  -7.655  0.00  0.00     0.163 HD
BRANCH  16  19
HETATM   19  C           1     -22.395  -4.928  -8.277  0.00  0.00     0.283 C 
BRANCH  19  20
HETATM   20  C           1     -21.994  -4.147  -9.522  0.00  0.00     0.145 C 
BRANCH  20  21
HETATM   21  C           1     -22.848  -4.585 -10.687  0.00  0.00     0.217 C 
HETATM   22  N           1     -22.354  -4.512 -11.963  0.00  0.00    -0.370 N 
HETATM   23  H           1     -22.926  -4.807 -12.744  0.00  0.00     0.159 HD
HETATM   24  H           1     -21.417  -4.167 -12.123  0.00  0.00     0.159 HD
HETATM   25  O           1     -23.966  -4.999 -10.495  0.00  0.00    -0.274 OA
ENDBRANCH  20  21
ENDBRANCH  19  20
BRANCH  19  26
HETATM   26  N           1     -23.532  -4.229  -7.593  0.00  0.00    -0.066 N 
HETATM   27  H           1     -24.365  -4.218  -8.225  0.00  0.00     0.275 HD
HETATM   28  H           1     -23.772  -4.736  -6.711  0.00  0.00     0.275 HD
HETATM   29  H           1     -23.252  -3.248  -7.367  0.00  0.00     0.275 HD
ENDBRANCH  19  26
ENDBRANCH  16  19
ENDBRANCH   1  15
BRANCH   1  30
HETATM   30  C           1     -21.841  -6.168  -4.985  0.00  0.00     0.197 C 
HETATM   31  O           1     -23.085  -6.058  -5.051  0.00  0.00    -0.646 OA
HETATM   32  O           1     -21.205  -5.558  -4.099  0.00  0.00    -0.646 OA
ENDBRANCH   1  30
TORSDOF 11
ENDMDL
MODEL 7
REMARK VINA RESULT:      -6.7      2.111      3.115
REMARK  11 active torsions:
REMARK  status: ('A' for Active; 'I' for Inactive)
REMARK    1  A    between atoms: C_1  and  C_6 
REMARK       I    between atoms: C_2  and  N_9 
REMARK    2  A    between atoms: C_2  and  C_3 
REMARK    3  A    between atoms: C_3  and  C_4 
REMARK    4  A    between atoms: C_3  and  N_25 
REMARK    5  A    between atoms: C_4  and  C_5 
REMARK       I    between atoms: C_5  and  N_13 
REMARK    6  A    between atoms: C_6  and  C_16 
REMARK    7  A    between atoms: P_7  and  O_8 
REMARK    8  A    between atoms: P_7  and  O_22 
REMARK    9  A    between atoms: O_8  and  C_10 
REMARK   10  A    between atoms: N_9  and  C_16 
REMARK   11  A    between atoms: C_16  and  C_18 
ROOT
HETATM    1  C           1     -20.953  -7.090  -4.069  0.00  0.00     0.189 C 
ENDROOT
BRANCH   1   2
HETATM    2  C           1     -22.083  -7.037  -5.089  0.00  0.00     0.074 C 
BRANCH   2   3
HETATM    3  C           1     -21.725  -6.083  -6.185  0.00  0.00    -0.056 A 
HETATM    4  C           1     -20.529  -6.244  -6.886  0.00  0.00     0.010 A 
HETATM    5  C           1     -20.193  -5.355  -7.907  0.00  0.00     0.038 A 
HETATM    6  C           1     -21.054  -4.306  -8.228  0.00  0.00     0.081 A 
HETATM    7  C           1     -22.249  -4.144  -7.527  0.00  0.00     0.038 A 
HETATM    8  C           1     -22.584  -5.033  -6.506  0.00  0.00     0.010 A 
BRANCH   6   9
HETATM    9  O           1     -20.729  -3.441  -9.219  0.00  0.00    -0.247 OA
BRANCH   9  10
HETATM   10  P           1     -21.223  -3.784 -10.718  0.00  0.00     0.411 P 
HETATM   11  O           1     -21.828  -2.579 -11.328  0.00  0.00    -0.624 OA
HETATM   12  O           1     -22.227  -4.870 -10.669  0.00  0.00    -0.624 OA
BRANCH  10  13
HETATM   13  O           1     -19.959  -4.259 -11.604  0.00  0.00    -0.300 OA
HETATM   14  H           1     -20.187  -5.118 -11.914  0.00  0.00     0.223 HD
ENDBRANCH  10  13
ENDBRANCH   9  10
ENDBRANCH   6   9
ENDBRANCH   2   3
ENDBRANCH   1   2
BRANCH   1  15
HETATM   15  N           1     -20.389  -8.425  -4.042  0.00  0.00    -0.344 N 
HETATM   16  C           1     -21.045  -9.458  -4.657  0.00  0.00     0.249 C 
HETATM   17  O           1     -20.817  -9.714  -5.815  0.00  0.00    -0.271 OA
HETATM   18  H           1     -19.511  -8.594  -3.569  0.00  0.00     0.163 HD
BRANCH  16  19
HETATM   19  C           1     -22.052 -10.278  -3.888  0.00  0.00     0.283 C 
BRANCH  19  20
HETATM   20  C           1     -21.547 -10.505  -2.469  0.00  0.00     0.145 C 
BRANCH  20  21
HETATM   21  C           1     -22.702 -10.418  -1.503  0.00  0.00     0.217 C 
HETATM   22  N           1     -22.707  -9.458  -0.526  0.00  0.00    -0.370 N 
HETATM   23  H           1     -23.482  -9.399   0.122  0.00  0.00     0.159 HD
HETATM   24  H           1     -21.936  -8.807  -0.453  0.00  0.00     0.159 HD
HETATM   25  O           1     -23.623 -11.194  -1.591  0.00  0.00    -0.274 OA
ENDBRANCH  20  21
ENDBRANCH  19  20
BRANCH  19  26
HETATM   26  N           1     -22.243 -11.600  -4.569  0.00  0.00    -0.066 N 
HETATM   27  H           1     -21.615 -11.655  -5.404  0.00  0.00     0.275 HD
HETATM   28  H           1     -22.006 -12.371  -3.905  0.00  0.00     0.275 HD
HETATM   29  H           1     -23.237 -11.694  -4.875  0.00  0.00     0.275 HD
ENDBRANCH  19  26
ENDBRANCH  16  19
ENDBRANCH   1  15
BRANCH   1  30
HETATM   30  C           1     -21.491  -6.743  -2.702  0.00  0.00     0.197 C 
HETATM   31  O           1     -21.005  -7.282  -1.685  0.00  0.00    -0.646 OA
HETATM   32  O           1     -22.423  -5.918  -2.588  0.00  0.00    -0.646 OA
ENDBRANCH   1  30
TORSDOF 11
ENDMDL
MODEL 8
REMARK VINA RESULT:      -6.5      4.098      7.406
REMARK  11 active torsions:
REMARK  status: ('A' for Active; 'I' for Inactive)
REMARK    1  A    between atoms: C_1  and  C_6 
REMARK       I    between atoms: C_2  and  N_9 
REMARK    2  A    between atoms: C_2  and  C_3 
REMARK    3  A    between atoms: C_3  and  C_4 
REMARK    4  A    between atoms: C_3  and  N_25 
REMARK    5  A    between atoms: C_4  and  C_5 
REMARK       I    between atoms: C_5  and  N_13 
REMARK    6  A    between atoms: C_6  and  C_16 
REMARK    7  A    between atoms: P_7  and  O_8 
REMARK    8  A    between atoms: P_7  and  O_22 
REMARK    9  A    between atoms: O_8  and  C_10 
REMARK   10  A    between atoms: N_9  and  C_16 
REMARK   11  A    between atoms: C_16  and  C_18 
ROOT
HETATM    1  C           1     -21.537  -8.618  -1.346  0.00  0.00     0.189 C 
ENDROOT
BRANCH   1   2
HETATM    2  C           1     -20.478  -9.712  -1.318  0.00  0.00     0.074 C 
BRANCH   2   3
HETATM    3  C           1     -20.020 -10.002  -2.713  0.00  0.00    -0.056 A 
HETATM    4  C           1     -18.698  -9.750  -3.080  0.00  0.00     0.010 A 
HETATM    5  C           1     -18.272 -10.018  -4.380  0.00  0.00     0.038 A 
HETATM    6  C           1     -19.167 -10.542  -5.313  0.00  0.00     0.081 A 
HETATM    7  C           1     -20.489 -10.794  -4.947  0.00  0.00     0.038 A 
HETATM    8  C           1     -20.915 -10.524  -3.647  0.00  0.00     0.010 A 
BRANCH   6   9
HETATM    9  O           1     -18.753 -10.803  -6.577  0.00  0.00    -0.247 OA
BRANCH   9  10
HETATM   10  P           1     -17.928 -12.166  -6.839  0.00  0.00     0.411 P 
HETATM   11  O           1     -16.477 -11.889  -6.754  0.00  0.00    -0.624 OA
HETATM   12  O           1     -18.253 -12.689  -8.184  0.00  0.00    -0.624 OA
BRANCH  10  13
HETATM   13  O           1     -18.332 -13.262  -5.723  0.00  0.00    -0.300 OA
HETATM   14  H           1     -19.222 -13.059  -5.494  0.00  0.00     0.223 HD
ENDBRANCH  10  13
ENDBRANCH   9  10
ENDBRANCH   6   9
ENDBRANCH   2   3
ENDBRANCH   1   2
BRANCH   1  15
HETATM   15  N           1     -21.003  -7.446  -2.010  0.00  0.00    -0.344 N 
HETATM   16  C           1     -21.791  -6.725  -2.866  0.00  0.00     0.249 C 
HETATM   17  O           1     -22.458  -5.808  -2.446  0.00  0.00    -0.271 OA
HETATM   18  H           1     -20.046  -7.161  -1.842  0.00  0.00     0.163 HD
BRANCH  16  19
HETATM   19  C           1     -21.828  -7.073  -4.334  0.00  0.00     0.283 C 
BRANCH  19  20
HETATM   20  C           1     -20.426  -6.967  -4.918  0.00  0.00     0.145 C 
BRANCH  20  21
HETATM   21  C           1     -20.389  -5.860  -5.943  0.00  0.00     0.217 C 
HETATM   22  N           1     -20.378  -6.164  -7.279  0.00  0.00    -0.370 N 
HETATM   23  H           1     -20.354  -5.422  -7.967  0.00  0.00     0.159 HD
HETATM   24  H           1     -20.394  -7.131  -7.578  0.00  0.00     0.159 HD
HETATM   25  O           1     -20.371  -4.707  -5.586  0.00  0.00    -0.274 OA
ENDBRANCH  20  21
ENDBRANCH  19  20
BRANCH  19  26
HETATM   26  N           1     -22.741  -6.120  -5.049  0.00  0.00    -0.066 N 
HETATM   27  H           1     -22.922  -5.290  -4.441  0.00  0.00     0.275 HD
HETATM   28  H           1     -22.290  -5.808  -5.938  0.00  0.00     0.275 HD
HETATM   29  H           1     -23.644  -6.599  -5.264  0.00  0.00     0.275 HD
ENDBRANCH  19  26
ENDBRANCH  16  19
ENDBRANCH   1  15
BRANCH   1  30
HETATM   30  C           1     -21.929  -8.260   0.067  0.00  0.00     0.197 C 
HETATM   31  O           1     -21.111  -8.412   1.000  0.00  0.00    -0.646 OA
HETATM   32  O           1     -23.071  -7.812   0.304  0.00  0.00    -0.646 OA
ENDBRANCH   1  30
TORSDOF 11
ENDMDL
MODEL 9
REMARK VINA RESULT:      -6.5      3.385      5.775
REMARK  11 active torsions:
REMARK  status: ('A' for Active; 'I' for Inactive)
REMARK    1  A    between atoms: C_1  and  C_6 
REMARK       I    between atoms: C_2  and  N_9 
REMARK    2  A    between atoms: C_2  and  C_3 
REMARK    3  A    between atoms: C_3  and  C_4 
REMARK    4  A    between atoms: C_3  and  N_25 
REMARK    5  A    between atoms: C_4  and  C_5 
REMARK       I    between atoms: C_5  and  N_13 
REMARK    6  A    between atoms: C_6  and  C_16 
REMARK    7  A    between atoms: P_7  and  O_8 
REMARK    8  A    between atoms: P_7  and  O_22 
REMARK    9  A    between atoms: O_8  and  C_10 
REMARK   10  A    between atoms: N_9  and  C_16 
REMARK   11  A    between atoms: C_16  and  C_18 
ROOT
HETATM    1  C           1     -20.676  -9.741  -1.666  0.00  0.00     0.189 C 
ENDROOT
BRANCH   1   2
HETATM    2  C           1     -21.814  -9.527  -2.655  0.00  0.00     0.074 C 
BRANCH   2   3
HETATM    3  C           1     -21.505  -8.350  -3.527  0.00  0.00    -0.056 A 
HETATM    4  C           1     -21.239  -8.539  -4.884  0.00  0.00     0.010 A 
HETATM    5  C           1     -20.950  -7.444  -5.697  0.00  0.00     0.038 A 
HETATM    6  C           1     -20.929  -6.159  -5.154  0.00  0.00     0.081 A 
HETATM    7  C           1     -21.195  -5.970  -3.798  0.00  0.00     0.038 A 
HETATM    8  C           1     -21.483  -7.066  -2.985  0.00  0.00     0.010 A 
BRANCH   6   9
HETATM    9  O           1     -20.648  -5.094  -5.943  0.00  0.00    -0.247 OA
BRANCH   9  10
HETATM   10  P           1     -21.785  -4.594  -6.976  0.00  0.00     0.411 P 
HETATM   11  O           1     -23.123  -4.916  -6.432  0.00  0.00    -0.624 OA
HETATM   12  O           1     -21.603  -5.276  -8.276  0.00  0.00    -0.624 OA
BRANCH  10  13
HETATM   13  O           1     -21.658  -2.997  -7.182  0.00  0.00    -0.300 OA
HETATM   14  H           1     -20.817  -2.869  -7.586  0.00  0.00     0.223 HD
ENDBRANCH  10  13
ENDBRANCH   9  10
ENDBRANCH   6   9
ENDBRANCH   2   3
ENDBRANCH   1   2
BRANCH   1  15
HETATM   15  N           1     -20.105 -11.058  -1.865  0.00  0.00    -0.344 N 
HETATM   16  C           1     -18.779 -11.189  -2.178  0.00  0.00     0.249 C 
HETATM   17  O           1     -17.958 -11.300  -1.297  0.00  0.00    -0.271 OA
HETATM   18  H           1     -20.686 -11.881  -1.772  0.00  0.00     0.163 HD
BRANCH  16  19
HETATM   19  C           1     -18.340 -11.197  -3.622  0.00  0.00     0.283 C 
BRANCH  19  20
HETATM   20  C           1     -17.924  -9.791  -4.035  0.00  0.00     0.145 C 
BRANCH  20  21
HETATM   21  C           1     -17.411  -9.815  -5.454  0.00  0.00     0.217 C 
HETATM   22  N           1     -16.078 -10.017  -5.696  0.00  0.00    -0.370 N 
HETATM   23  H           1     -15.733 -10.034  -6.648  0.00  0.00     0.159 HD
HETATM   24  H           1     -15.438 -10.151  -4.924  0.00  0.00     0.159 HD
HETATM   25  O           1     -18.175  -9.657  -6.375  0.00  0.00    -0.274 OA
ENDBRANCH  20  21
ENDBRANCH  19  20
BRANCH  19  26
HETATM   26  N           1     -19.477 -11.656  -4.485  0.00  0.00    -0.066 N 
HETATM   27  H           1     -20.211 -10.913  -4.519  0.00  0.00     0.275 HD
HETATM   28  H           1     -19.127 -11.842  -5.452  0.00  0.00     0.275 HD
HETATM   29  H           1     -19.885 -12.532  -4.087  0.00  0.00     0.275 HD
ENDBRANCH  19  26
ENDBRANCH  16  19
ENDBRANCH   1  15
BRANCH   1  30
HETATM   30  C           1     -21.206  -9.630  -0.257  0.00  0.00     0.197 C 
HETATM   31  O           1     -22.136  -8.835  -0.000  0.00  0.00    -0.646 OA
HETATM   32  O           1     -20.716 -10.333   0.652  0.00  0.00    -0.646 OA
ENDBRANCH   1  30
TORSDOF 11
ENDMDL
