MODEL 1
REMARK VINA RESULT:      -8.2      0.000      0.000
REMARK  6 active torsions:
REMARK  status: ('A' for Active; 'I' for Inactive)
REMARK    1  A    between atoms: C_3  and  C_9 
REMARK    2  A    between atoms: C_3  and  N_20 
REMARK    3  A    between atoms: C_5  and  C_17 
REMARK    4  A    between atoms: C_5  and  C_12 
REMARK    5  A    between atoms: N_11  and  C_17 
REMARK    6  A    between atoms: C_17  and  C_18 
REMARK       I    between atoms: C_18  and  N_20 
ROOT
HETATM    1  C           1     -24.102  -3.473 -10.311  0.00  0.00     0.278 C 
ENDROOT
BRANCH   1   2
HETATM    2  C           1     -23.396  -4.819 -10.420  0.00  0.00     0.083 C 
BRANCH   2   3
HETATM    3  C           1     -21.961  -4.664 -10.028  0.00  0.00    -0.028 A 
HETATM    4  C           1     -20.901  -4.475 -10.885  0.00  0.00     0.096 A 
HETATM    5  N           1     -19.762  -4.381 -10.130  0.00  0.00    -0.365 N 
HETATM    6  H           1     -18.796  -4.234 -10.516  0.00  0.00     0.165 HD
HETATM    7  C           1     -20.066  -4.505  -8.793  0.00  0.00     0.042 A 
HETATM    8  C           1     -19.232  -4.473  -7.669  0.00  0.00     0.030 A 
HETATM    9  C           1     -21.447  -4.685  -8.701  0.00  0.00    -0.002 A 
HETATM   10  C           1     -19.831  -4.628  -6.415  0.00  0.00     0.002 A 
HETATM   11  C           1     -21.208  -4.809  -6.294  0.00  0.00     0.001 A 
HETATM   12  C           1     -22.027  -4.839  -7.428  0.00  0.00     0.014 A 
ENDBRANCH   2   3
ENDBRANCH   1   2
BRANCH   1  13
HETATM   13  N           1     -25.399  -3.648  -9.578  0.00  0.00    -0.066 N 
HETATM   14  H           1     -25.258  -4.293  -8.769  0.00  0.00     0.275 HD
HETATM   15  H           1     -25.729  -2.720  -9.230  0.00  0.00     0.275 HD
HETATM   16  H           1     -26.113  -4.053 -10.225  0.00  0.00     0.275 HD
ENDBRANCH   1  13
BRANCH   1  17
HETATM   17  C           1     -24.375  -2.934 -11.693  0.00  0.00     0.249 C 
HETATM   18  O           1     -25.487  -3.001 -12.159  0.00  0.00    -0.271 OA
HETATM   19  N           1     -23.361  -2.370 -12.420  0.00  0.00    -0.349 N 
HETATM   20  H           1     -22.429  -2.313 -12.031  0.00  0.00     0.163 HD
BRANCH  19  21
HETATM   21  C           1     -23.623  -1.851 -13.749  0.00  0.00     0.235 C 
BRANCH  21  22
HETATM   22  C           1     -23.253  -2.892 -14.777  0.00  0.00     0.191 C 
HETATM   23  O           1     -23.938  -3.932 -14.889  0.00  0.00    -0.647 OA
HETATM   24  O           1     -22.262  -2.714 -15.518  0.00  0.00    -0.647 OA
ENDBRANCH  21  22
ENDBRANCH  19  21
ENDBRANCH   1  17
TORSDOF 6
ENDMDL
MODEL 2
REMARK VINA RESULT:      -7.7      4.541      7.674
REMARK  6 active torsions:
REMARK  status: ('A' for Active; 'I' for Inactive)
REMARK    1  A    between atoms: C_3  and  C_9 
REMARK    2  A    between atoms: C_3  and  N_20 
REMARK    3  A    between atoms: C_5  and  C_17 
REMARK    4  A    between atoms: C_5  and  C_12 
REMARK    5  A    between atoms: N_11  and  C_17 
REMARK    6  A    between atoms: C_17  and  C_18 
REMARK       I    between atoms: C_18  and  N_20 
ROOT
HETATM    1  C           1     -22.084  -4.503  -7.312  0.00  0.00     0.278 C 
ENDROOT
BRANCH   1   2
HETATM    2  C           1     -21.839  -4.745  -8.795  0.00  0.00     0.083 C 
BRANCH   2   3
HETATM    3  C           1     -23.001  -4.229  -9.585  0.00  0.00    -0.028 A 
HETATM    4  C           1     -24.294  -4.098  -9.134  0.00  0.00     0.096 A 
HETATM    5  N           1     -25.046  -3.592 -10.160  0.00  0.00    -0.365 N 
HETATM    6  H           1     -26.075  -3.386 -10.106  0.00  0.00     0.165 HD
HETATM    7  C           1     -24.261  -3.392 -11.273  0.00  0.00     0.042 A 
HETATM    8  C           1     -24.596  -2.897 -12.539  0.00  0.00     0.030 A 
HETATM    9  C           1     -22.966  -3.787 -10.936  0.00  0.00    -0.002 A 
HETATM   10  C           1     -23.571  -2.804 -13.488  0.00  0.00     0.002 A 
HETATM   11  C           1     -22.269  -3.190 -13.179  0.00  0.00     0.001 A 
HETATM   12  C           1     -21.952  -3.683 -11.907  0.00  0.00     0.014 A 
ENDBRANCH   2   3
ENDBRANCH   1   2
BRANCH   1  13
HETATM   13  N           1     -21.411  -3.228  -6.896  0.00  0.00    -0.066 N 
HETATM   14  H           1     -20.950  -3.364  -5.970  0.00  0.00     0.275 HD
HETATM   15  H           1     -20.693  -2.967  -7.608  0.00  0.00     0.275 HD
HETATM   16  H           1     -22.124  -2.467  -6.823  0.00  0.00     0.275 HD
ENDBRANCH   1  13
BRANCH   1  17
HETATM   17  C           1     -21.520  -5.652  -6.514  0.00  0.00     0.249 C 
HETATM   18  O           1     -20.828  -6.482  -7.055  0.00  0.00    -0.271 OA
HETATM   19  N           1     -21.792  -5.755  -5.175  0.00  0.00    -0.349 N 
HETATM   20  H           1     -22.371  -5.061  -4.722  0.00  0.00     0.163 HD
BRANCH  19  21
HETATM   21  C           1     -21.249  -6.860  -4.408  0.00  0.00     0.235 C 
BRANCH  21  22
HETATM   22  C           1     -21.554  -6.654  -2.945  0.00  0.00     0.191 C 
HETATM   23  O           1     -22.505  -5.920  -2.602  0.00  0.00    -0.647 OA
HETATM   24  O           1     -20.855  -7.220  -2.076  0.00  0.00    -0.647 OA
ENDBRANCH  21  22
ENDBRANCH  19  21
ENDBRANCH   1  17
TORSDOF 6
ENDMDL
MODEL 3
REMARK VINA RESULT:      -7.3      4.778      7.518
REMARK  6 active torsions:
REMARK  status: ('A' for Active; 'I' for Inactive)
REMARK    1  A    between atoms: C_3  and  C_9 
REMARK    2  A    between atoms: C_3  and  N_20 
REMARK    3  A    between atoms: C_5  and  C_17 
REMARK    4  A    between atoms: C_5  and  C_12 
REMARK    5  A    between atoms: N_11  and  C_17 
REMARK    6  A    between atoms: C_17  and  C_18 
REMARK       I    between atoms: C_18  and  N_20 
ROOT
HETATM    1  C           1     -22.422  -5.255  -7.018  0.00  0.00     0.278 C 
ENDROOT
BRANCH   1   2
HETATM    2  C           1     -21.654  -4.003  -7.419  0.00  0.00     0.083 C 
BRANCH   2   3
HETATM    3  C           1     -21.389  -4.028  -8.892  0.00  0.00    -0.028 A 
HETATM    4  C           1     -20.184  -4.310  -9.495  0.00  0.00     0.096 A 
HETATM    5  N           1     -20.366  -4.229 -10.850  0.00  0.00    -0.365 N 
HETATM    6  H           1     -19.616  -4.395 -11.567  0.00  0.00     0.165 HD
HETATM    7  C           1     -21.671  -3.899 -11.137  0.00  0.00     0.042 A 
HETATM    8  C           1     -22.305  -3.710 -12.371  0.00  0.00     0.030 A 
HETATM    9  C           1     -22.338  -3.767  -9.919  0.00  0.00    -0.002 A 
HETATM   10  C           1     -23.664  -3.376 -12.354  0.00  0.00     0.002 A 
HETATM   11  C           1     -24.355  -3.237 -11.153  0.00  0.00     0.001 A 
HETATM   12  C           1     -23.704  -3.430  -9.928  0.00  0.00     0.014 A 
ENDBRANCH   2   3
ENDBRANCH   1   2
BRANCH   1  13
HETATM   13  N           1     -23.698  -4.860  -6.335  0.00  0.00    -0.066 N 
HETATM   14  H           1     -24.495  -5.389  -6.755  0.00  0.00     0.275 HD
HETATM   15  H           1     -23.630  -5.083  -5.317  0.00  0.00     0.275 HD
HETATM   16  H           1     -23.856  -3.835  -6.459  0.00  0.00     0.275 HD
ENDBRANCH   1  13
BRANCH   1  17
HETATM   17  C           1     -21.582  -6.080  -6.074  0.00  0.00     0.249 C 
HETATM   18  O           1     -20.581  -6.624  -6.475  0.00  0.00    -0.271 OA
HETATM   19  N           1     -21.956  -6.213  -4.763  0.00  0.00    -0.349 N 
HETATM   20  H           1     -22.794  -5.758  -4.427  0.00  0.00     0.163 HD
BRANCH  19  21
HETATM   21  C           1     -21.149  -7.007  -3.857  0.00  0.00     0.235 C 
BRANCH  21  22
HETATM   22  C           1     -21.612  -6.777  -2.439  0.00  0.00     0.191 C 
HETATM   23  O           1     -21.111  -7.438  -1.503  0.00  0.00    -0.647 OA
HETATM   24  O           1     -22.496  -5.925  -2.200  0.00  0.00    -0.647 OA
ENDBRANCH  21  22
ENDBRANCH  19  21
ENDBRANCH   1  17
TORSDOF 6
ENDMDL
MODEL 4
REMARK VINA RESULT:      -7.3      5.337      8.220
REMARK  6 active torsions:
REMARK  status: ('A' for Active; 'I' for Inactive)
REMARK    1  A    between atoms: C_3  and  C_9 
REMARK    2  A    between atoms: C_3  and  N_20 
REMARK    3  A    between atoms: C_5  and  C_17 
REMARK    4  A    between atoms: C_5  and  C_12 
REMARK    5  A    between atoms: N_11  and  C_17 
REMARK    6  A    between atoms: C_17  and  C_18 
REMARK       I    between atoms: C_18  and  N_20 
ROOT
HETATM    1  C           1     -20.615  -5.942  -5.687  0.00  0.00     0.278 C 
ENDROOT
BRANCH   1   2
HETATM    2  C           1     -20.689  -4.498  -6.165  0.00  0.00     0.083 C 
BRANCH   2   3
HETATM    3  C           1     -21.696  -4.387  -7.266  0.00  0.00    -0.028 A 
HETATM    4  C           1     -23.061  -4.303  -7.111  0.00  0.00     0.096 A 
HETATM    5  N           1     -23.620  -4.215  -8.358  0.00  0.00    -0.365 N 
HETATM    6  H           1     -24.650  -4.139  -8.551  0.00  0.00     0.165 HD
HETATM    7  C           1     -22.638  -4.240  -9.323  0.00  0.00     0.042 A 
HETATM    8  C           1     -22.739  -4.176 -10.718  0.00  0.00     0.030 A 
HETATM    9  C           1     -21.415  -4.348  -8.660  0.00  0.00    -0.002 A 
HETATM   10  C           1     -21.550  -4.223 -11.454  0.00  0.00     0.002 A 
HETATM   11  C           1     -20.315  -4.330 -10.818  0.00  0.00     0.001 A 
HETATM   12  C           1     -20.233  -4.394  -9.422  0.00  0.00     0.014 A 
ENDBRANCH   2   3
ENDBRANCH   1   2
BRANCH   1  13
HETATM   13  N           1     -20.978  -6.861  -6.816  0.00  0.00    -0.066 N 
HETATM   14  H           1     -21.526  -6.334  -7.531  0.00  0.00     0.275 HD
HETATM   15  H           1     -20.106  -7.236  -7.252  0.00  0.00     0.275 HD
HETATM   16  H           1     -21.554  -7.653  -6.449  0.00  0.00     0.275 HD
ENDBRANCH   1  13
BRANCH   1  17
HETATM   17  C           1     -21.579  -6.144  -4.545  0.00  0.00     0.249 C 
HETATM   18  O           1     -22.723  -6.461  -4.769  0.00  0.00    -0.271 OA
HETATM   19  N           1     -21.158  -5.967  -3.253  0.00  0.00    -0.349 N 
HETATM   20  H           1     -20.200  -5.702  -3.065  0.00  0.00     0.163 HD
BRANCH  19  21
HETATM   21  C           1     -22.085  -6.161  -2.155  0.00  0.00     0.235 C 
BRANCH  21  22
HETATM   22  C           1     -21.699  -7.399  -1.383  0.00  0.00     0.191 C 
HETATM   23  O           1     -22.543  -7.974  -0.662  0.00  0.00    -0.647 OA
HETATM   24  O           1     -20.536  -7.850  -1.466  0.00  0.00    -0.647 OA
ENDBRANCH  21  22
ENDBRANCH  19  21
ENDBRANCH   1  17
TORSDOF 6
ENDMDL
MODEL 5
REMARK VINA RESULT:      -7.3      3.985      5.819
REMARK  6 active torsions:
REMARK  status: ('A' for Active; 'I' for Inactive)
REMARK    1  A    between atoms: C_3  and  C_9 
REMARK    2  A    between atoms: C_3  and  N_20 
REMARK    3  A    between atoms: C_5  and  C_17 
REMARK    4  A    between atoms: C_5  and  C_12 
REMARK    5  A    between atoms: N_11  and  C_17 
REMARK    6  A    between atoms: C_17  and  C_18 
REMARK       I    between atoms: C_18  and  N_20 
ROOT
HETATM    1  C           1     -21.223  -5.699  -6.937  0.00  0.00     0.278 C 
ENDROOT
BRANCH   1   2
HETATM    2  C           1     -20.873  -5.407  -5.484  0.00  0.00     0.083 C 
BRANCH   2   3
HETATM    3  C           1     -20.801  -6.691  -4.719  0.00  0.00    -0.028 A 
HETATM    4  C           1     -20.260  -7.874  -5.170  0.00  0.00     0.096 A 
HETATM    5  N           1     -20.391  -8.801  -4.170  0.00  0.00    -0.365 N 
HETATM    6  H           1     -20.066  -9.799  -4.231  0.00  0.00     0.165 HD
HETATM    7  C           1     -21.008  -8.238  -3.076  0.00  0.00     0.042 A 
HETATM    8  C           1     -21.346  -8.802  -1.839  0.00  0.00     0.030 A 
HETATM    9  C           1     -21.278  -6.908  -3.397  0.00  0.00    -0.002 A 
HETATM   10  C           1     -21.977  -7.974  -0.904  0.00  0.00     0.002 A 
HETATM   11  C           1     -22.257  -6.642  -1.197  0.00  0.00     0.001 A 
HETATM   12  C           1     -21.913  -6.095  -2.439  0.00  0.00     0.014 A 
ENDBRANCH   2   3
ENDBRANCH   1   2
BRANCH   1  13
HETATM   13  N           1     -20.050  -5.364  -7.810  0.00  0.00    -0.066 N 
HETATM   14  H           1     -19.166  -5.495  -7.271  0.00  0.00     0.275 HD
HETATM   15  H           1     -20.047  -5.994  -8.643  0.00  0.00     0.275 HD
HETATM   16  H           1     -20.122  -4.370  -8.124  0.00  0.00     0.275 HD
ENDBRANCH   1  13
BRANCH   1  17
HETATM   17  C           1     -22.410  -4.861  -7.347  0.00  0.00     0.249 C 
HETATM   18  O           1     -23.325  -4.692  -6.577  0.00  0.00    -0.271 OA
HETATM   19  N           1     -22.449  -4.294  -8.593  0.00  0.00    -0.349 N 
HETATM   20  H           1     -21.683  -4.436  -9.238  0.00  0.00     0.163 HD
BRANCH  19  21
HETATM   21  C           1     -23.589  -3.490  -8.988  0.00  0.00     0.235 C 
BRANCH  21  22
HETATM   22  C           1     -24.116  -3.979 -10.315  0.00  0.00     0.191 C 
HETATM   23  O           1     -24.977  -3.314 -10.929  0.00  0.00    -0.647 OA
HETATM   24  O           1     -23.689  -5.050 -10.800  0.00  0.00    -0.647 OA
ENDBRANCH  21  22
ENDBRANCH  19  21
ENDBRANCH   1  17
TORSDOF 6
ENDMDL
MODEL 6
REMARK VINA RESULT:      -7.0      5.178      7.684
REMARK  6 active torsions:
REMARK  status: ('A' for Active; 'I' for Inactive)
REMARK    1  A    between atoms: C_3  and  C_9 
REMARK    2  A    between atoms: C_3  and  N_20 
REMARK    3  A    between atoms: C_5  and  C_17 
REMARK    4  A    between atoms: C_5  and  C_12 
REMARK    5  A    between atoms: N_11  and  C_17 
REMARK    6  A    between atoms: C_17  and  C_18 
REMARK       I    between atoms: C_18  and  N_20 
ROOT
HETATM    1  C           1     -21.107  -5.396  -5.788  0.00  0.00     0.278 C 
ENDROOT
BRANCH   1   2
HETATM    2  C           1     -20.915  -5.583  -7.287  0.00  0.00     0.083 C 
BRANCH   2   3
HETATM    3  C           1     -21.974  -4.825  -8.025  0.00  0.00    -0.028 A 
HETATM    4  C           1     -23.203  -4.455  -7.528  0.00  0.00     0.096 A 
HETATM    5  N           1     -23.869  -3.781  -8.516  0.00  0.00    -0.365 N 
HETATM    6  H           1     -24.835  -3.378  -8.423  0.00  0.00     0.165 HD
HETATM    7  C           1     -23.091  -3.708  -9.650  0.00  0.00     0.042 A 
HETATM    8  C           1     -23.357  -3.120 -10.893  0.00  0.00     0.030 A 
HETATM    9  C           1     -21.891  -4.359  -9.366  0.00  0.00    -0.002 A 
HETATM   10  C           1     -22.362  -3.202 -11.872  0.00  0.00     0.002 A 
HETATM   11  C           1     -21.153  -3.846 -11.616  0.00  0.00     0.001 A 
HETATM   12  C           1     -20.904  -4.429 -10.368  0.00  0.00     0.014 A 
ENDBRANCH   2   3
ENDBRANCH   1   2
BRANCH   1  13
HETATM   13  N           1     -20.026  -4.503  -5.254  0.00  0.00    -0.066 N 
HETATM   14  H           1     -19.092  -4.910  -5.485  0.00  0.00     0.275 HD
HETATM   15  H           1     -20.111  -3.557  -5.689  0.00  0.00     0.275 HD
HETATM   16  H           1     -20.123  -4.421  -4.217  0.00  0.00     0.275 HD
ENDBRANCH   1  13
BRANCH   1  17
HETATM   17  C           1     -21.037  -6.736  -5.100  0.00  0.00     0.249 C 
HETATM   18  O           1     -21.080  -6.799  -3.894  0.00  0.00    -0.271 OA
HETATM   19  N           1     -20.923  -7.882  -5.842  0.00  0.00    -0.349 N 
HETATM   20  H           1     -20.887  -7.829  -6.851  0.00  0.00     0.163 HD
BRANCH  19  21
HETATM   21  C           1     -20.856  -9.170  -5.180  0.00  0.00     0.235 C 
BRANCH  21  22
HETATM   22  C           1     -19.427  -9.656  -5.170  0.00  0.00     0.191 C 
HETATM   23  O           1     -19.018 -10.413  -6.077  0.00  0.00    -0.647 OA
HETATM   24  O           1     -18.652  -9.301  -4.255  0.00  0.00    -0.647 OA
ENDBRANCH  21  22
ENDBRANCH  19  21
ENDBRANCH   1  17
TORSDOF 6
ENDMDL
MODEL 7
REMARK VINA RESULT:      -7.0      5.692      7.823
REMARK  6 active torsions:
REMARK  status: ('A' for Active; 'I' for Inactive)
REMARK    1  A    between atoms: C_3  and  C_9 
REMARK    2  A    between atoms: C_3  and  N_20 
REMARK    3  A    between atoms: C_5  and  C_17 
REMARK    4  A    between atoms: C_5  and  C_12 
REMARK    5  A    between atoms: N_11  and  C_17 
REMARK    6  A    between atoms: C_17  and  C_18 
REMARK       I    between atoms: C_18  and  N_20 
ROOT
HETATM    1  C           1     -21.368  -7.707  -5.264  0.00  0.00     0.278 C 
ENDROOT
BRANCH   1   2
HETATM    2  C           1     -20.450  -7.695  -4.049  0.00  0.00     0.083 C 
BRANCH   2   3
HETATM    3  C           1     -21.216  -7.235  -2.848  0.00  0.00    -0.028 A 
HETATM    4  C           1     -21.519  -5.930  -2.530  0.00  0.00     0.096 A 
HETATM    5  N           1     -22.228  -5.939  -1.359  0.00  0.00    -0.365 N 
HETATM    6  H           1     -22.595  -5.083  -0.873  0.00  0.00     0.165 HD
HETATM    7  C           1     -22.391  -7.230  -0.910  0.00  0.00     0.042 A 
HETATM    8  C           1     -23.041  -7.715   0.231  0.00  0.00     0.030 A 
HETATM    9  C           1     -21.761  -8.067  -1.832  0.00  0.00    -0.002 A 
HETATM   10  C           1     -23.046  -9.100   0.432  0.00  0.00     0.002 A 
HETATM   11  C           1     -22.425  -9.959  -0.472  0.00  0.00     0.001 A 
HETATM   12  C           1     -21.779  -9.456  -1.608  0.00  0.00     0.014 A 
ENDBRANCH   2   3
ENDBRANCH   1   2
BRANCH   1  13
HETATM   13  N           1     -21.223  -9.014  -5.986  0.00  0.00    -0.066 N 
HETATM   14  H           1     -20.867  -9.740  -5.324  0.00  0.00     0.275 HD
HETATM   15  H           1     -22.153  -9.309  -6.359  0.00  0.00     0.275 HD
HETATM   16  H           1     -20.549  -8.903  -6.777  0.00  0.00     0.275 HD
ENDBRANCH   1  13
BRANCH   1  17
HETATM   17  C           1     -20.991  -6.577  -6.191  0.00  0.00     0.249 C 
HETATM   18  O           1     -20.044  -6.694  -6.931  0.00  0.00    -0.271 OA
HETATM   19  N           1     -21.723  -5.420  -6.192  0.00  0.00    -0.349 N 
HETATM   20  H           1     -22.516  -5.322  -5.572  0.00  0.00     0.163 HD
BRANCH  19  21
HETATM   21  C           1     -21.361  -4.334  -7.082  0.00  0.00     0.235 C 
BRANCH  21  22
HETATM   22  C           1     -22.254  -4.361  -8.298  0.00  0.00     0.191 C 
HETATM   23  O           1     -23.488  -4.209  -8.171  0.00  0.00    -0.647 OA
HETATM   24  O           1     -21.759  -4.535  -9.433  0.00  0.00    -0.647 OA
ENDBRANCH  21  22
ENDBRANCH  19  21
ENDBRANCH   1  17
TORSDOF 6
ENDMDL
MODEL 8
REMARK VINA RESULT:      -6.8      5.811      8.389
REMARK  6 active torsions:
REMARK  status: ('A' for Active; 'I' for Inactive)
REMARK    1  A    between atoms: C_3  and  C_9 
REMARK    2  A    between atoms: C_3  and  N_20 
REMARK    3  A    between atoms: C_5  and  C_17 
REMARK    4  A    between atoms: C_5  and  C_12 
REMARK    5  A    between atoms: N_11  and  C_17 
REMARK    6  A    between atoms: C_17  and  C_18 
REMARK       I    between atoms: C_18  and  N_20 
ROOT
HETATM    1  C           1     -21.623  -6.379  -5.323  0.00  0.00     0.278 C 
ENDROOT
BRANCH   1   2
HETATM    2  C           1     -20.860  -5.461  -6.269  0.00  0.00     0.083 C 
BRANCH   2   3
HETATM    3  C           1     -21.808  -4.870  -7.264  0.00  0.00    -0.028 A 
HETATM    4  C           1     -23.132  -4.563  -7.042  0.00  0.00     0.096 A 
HETATM    5  N           1     -23.642  -4.044  -8.202  0.00  0.00    -0.365 N 
HETATM    6  H           1     -24.633  -3.720  -8.330  0.00  0.00     0.165 HD
HETATM    7  C           1     -22.669  -4.007  -9.176  0.00  0.00     0.042 A 
HETATM    8  C           1     -22.733  -3.561 -10.501  0.00  0.00     0.030 A 
HETATM    9  C           1     -21.503  -4.523  -8.610  0.00  0.00    -0.002 A 
HETATM   10  C           1     -21.566  -3.646 -11.268  0.00  0.00     0.002 A 
HETATM   11  C           1     -20.387  -4.156 -10.729  0.00  0.00     0.001 A 
HETATM   12  C           1     -20.341  -4.598  -9.401  0.00  0.00     0.014 A 
ENDBRANCH   2   3
ENDBRANCH   1   2
BRANCH   1  13
HETATM   13  N           1     -21.595  -5.804  -3.938  0.00  0.00    -0.066 N 
HETATM   14  H           1     -21.203  -6.509  -3.275  0.00  0.00     0.275 HD
HETATM   15  H           1     -20.997  -4.947  -3.930  0.00  0.00     0.275 HD
HETATM   16  H           1     -22.567  -5.554  -3.646  0.00  0.00     0.275 HD
ENDBRANCH   1  13
BRANCH   1  17
HETATM   17  C           1     -20.976  -7.742  -5.314  0.00  0.00     0.249 C 
HETATM   18  O           1     -21.263  -8.553  -6.162  0.00  0.00    -0.271 OA
HETATM   19  N           1     -20.064  -8.060  -4.342  0.00  0.00    -0.349 N 
HETATM   20  H           1     -19.824  -7.382  -3.632  0.00  0.00     0.163 HD
BRANCH  19  21
HETATM   21  C           1     -19.443  -9.371  -4.333  0.00  0.00     0.235 C 
BRANCH  21  22
HETATM   22  C           1     -19.312  -9.856  -2.910  0.00  0.00     0.191 C 
HETATM   23  O           1     -19.750  -9.158  -1.970  0.00  0.00    -0.647 OA
HETATM   24  O           1     -18.767 -10.956  -2.672  0.00  0.00    -0.647 OA
ENDBRANCH  21  22
ENDBRANCH  19  21
ENDBRANCH   1  17
TORSDOF 6
ENDMDL
MODEL 9
REMARK VINA RESULT:      -6.6      6.350      8.367
REMARK  6 active torsions:
REMARK  status: ('A' for Active; 'I' for Inactive)
REMARK    1  A    between atoms: C_3  and  C_9 
REMARK    2  A    between atoms: C_3  and  N_20 
REMARK    3  A    between atoms: C_5  and  C_17 
REMARK    4  A    between atoms: C_5  and  C_12 
REMARK    5  A    between atoms: N_11  and  C_17 
REMARK    6  A    between atoms: C_17  and  C_18 
REMARK       I    between atoms: C_18  and  N_20 
ROOT
HETATM    1  C           1     -21.237  -8.242  -4.880  0.00  0.00     0.278 C 
ENDROOT
BRANCH   1   2
HETATM    2  C           1     -19.980  -8.154  -4.025  0.00  0.00     0.083 C 
BRANCH   2   3
HETATM    3  C           1     -20.206  -8.862  -2.727  0.00  0.00    -0.028 A 
HETATM    4  C           1     -19.663 -10.072  -2.356  0.00  0.00     0.096 A 
HETATM    5  N           1     -20.118 -10.368  -1.099  0.00  0.00    -0.365 N 
HETATM    6  H           1     -19.868 -11.233  -0.558  0.00  0.00     0.165 HD
HETATM    7  C           1     -20.949  -9.368  -0.646  0.00  0.00     0.042 A 
HETATM    8  C           1     -21.635  -9.244   0.568  0.00  0.00     0.030 A 
HETATM    9  C           1     -21.022  -8.407  -1.654  0.00  0.00    -0.002 A 
HETATM   10  C           1     -22.418  -8.100   0.753  0.00  0.00     0.002 A 
HETATM   11  C           1     -22.509  -7.123  -0.236  0.00  0.00     0.001 A 
HETATM   12  C           1     -21.816  -7.264  -1.445  0.00  0.00     0.014 A 
ENDBRANCH   2   3
ENDBRANCH   1   2
BRANCH   1  13
HETATM   13  N           1     -21.056  -9.301  -5.928  0.00  0.00    -0.066 N 
HETATM   14  H           1     -20.514  -8.908  -6.729  0.00  0.00     0.275 HD
HETATM   15  H           1     -20.536 -10.109  -5.518  0.00  0.00     0.275 HD
HETATM   16  H           1     -21.992  -9.621  -6.263  0.00  0.00     0.275 HD
ENDBRANCH   1  13
BRANCH   1  17
HETATM   17  C           1     -21.487  -6.912  -5.547  0.00  0.00     0.249 C 
HETATM   18  O           1     -22.045  -6.028  -4.942  0.00  0.00    -0.271 OA
HETATM   19  N           1     -21.081  -6.708  -6.839  0.00  0.00    -0.349 N 
HETATM   20  H           1     -20.614  -7.448  -7.346  0.00  0.00     0.163 HD
BRANCH  19  21
HETATM   21  C           1     -21.321  -5.430  -7.481  0.00  0.00     0.235 C 
BRANCH  21  22
HETATM   22  C           1     -20.026  -4.897  -8.042  0.00  0.00     0.191 C 
HETATM   23  O           1     -19.076  -4.630  -7.276  0.00  0.00    -0.647 OA
HETATM   24  O           1     -19.903  -4.726  -9.275  0.00  0.00    -0.647 OA
ENDBRANCH  21  22
ENDBRANCH  19  21
ENDBRANCH   1  17
TORSDOF 6
ENDMDL
