MODEL 1
REMARK VINA RESULT:      -6.1      0.000      0.000
REMARK  8 active torsions:
REMARK  status: ('A' for Active; 'I' for Inactive)
REMARK    1  A    between atoms: N_3  and  C_14 
REMARK    2  A    between atoms: C_7  and  C_8 
REMARK    3  A    between atoms: C_8  and  C_21 
REMARK    4  A    between atoms: N_11  and  C_21 
REMARK       I    between atoms: N_11  and  C_12 
REMARK    5  A    between atoms: C_12  and  C_14 
REMARK    6  A    between atoms: C_14  and  C_15 
REMARK    7  A    between atoms: C_15  and  O_16 
REMARK    8  A    between atoms: C_19  and  C_21 
ROOT
HETATM    1  O           1     -33.469  -2.210 -11.156  0.00  0.00    -0.271 OA
HETATM    2  N           1     -34.994  -1.888 -12.755  0.00  0.00    -0.344 N 
HETATM    3  C           1     -34.095  -2.670 -12.080  0.00  0.00     0.251 C 
HETATM    4  H           1     -35.519  -2.273 -13.530  0.00  0.00     0.163 HD
ENDROOT
BRANCH   3   5
HETATM    5  C           1     -33.887  -4.106 -12.494  0.00  0.00     0.302 C 
BRANCH   5   6
HETATM    6  N           1     -32.476  -4.515 -12.191  0.00  0.00    -0.064 N 
HETATM    7  H           1     -31.827  -3.728 -12.422  0.00  0.00     0.275 HD
HETATM    8  H           1     -32.393  -4.746 -11.175  0.00  0.00     0.275 HD
HETATM    9  H           1     -32.225  -5.353 -12.762  0.00  0.00     0.275 HD
ENDBRANCH   5   6
BRANCH   5  10
HETATM   10  C           1     -34.849  -5.001 -11.722  0.00  0.00     0.153 C 
HETATM   11  C           1     -34.070  -5.825 -10.705  0.00  0.00     0.042 C 
BRANCH  10  12
HETATM   12  O           1     -35.794  -4.208 -11.057  0.00  0.00    -0.393 OA
HETATM   13  H           1     -35.382  -3.378 -10.885  0.00  0.00     0.210 HD
ENDBRANCH  10  12
ENDBRANCH   5  10
ENDBRANCH   3   5
BRANCH   2  14
HETATM   14  C           1     -35.195  -0.507 -12.357  0.00  0.00     0.189 C 
BRANCH  14  15
HETATM   15  C           1     -35.593   0.317 -13.574  0.00  0.00     0.014 C 
HETATM   16  C           1     -34.536   1.383 -13.832  0.00  0.00     0.012 C 
BRANCH  15  17
HETATM   17  C           1     -35.704  -0.594 -14.790  0.00  0.00     0.002 C 
HETATM   18  C           1     -36.879  -0.150 -15.651  0.00  0.00     0.005 C 
ENDBRANCH  15  17
ENDBRANCH  14  15
BRANCH  14  19
HETATM   19  C           1     -36.289  -0.437 -11.320  0.00  0.00     0.197 C 
HETATM   20  O           1     -37.180  -1.312 -11.293  0.00  0.00    -0.646 OA
HETATM   21  O           1     -36.305   0.498 -10.490  0.00  0.00    -0.646 OA
ENDBRANCH  14  19
ENDBRANCH   2  14
TORSDOF 8
ENDMDL
MODEL 2
REMARK VINA RESULT:      -5.7      2.283      5.083
REMARK  8 active torsions:
REMARK  status: ('A' for Active; 'I' for Inactive)
REMARK    1  A    between atoms: N_3  and  C_14 
REMARK    2  A    between atoms: C_7  and  C_8 
REMARK    3  A    between atoms: C_8  and  C_21 
REMARK    4  A    between atoms: N_11  and  C_21 
REMARK       I    between atoms: N_11  and  C_12 
REMARK    5  A    between atoms: C_12  and  C_14 
REMARK    6  A    between atoms: C_14  and  C_15 
REMARK    7  A    between atoms: C_15  and  O_16 
REMARK    8  A    between atoms: C_19  and  C_21 
ROOT
HETATM    1  O           1     -37.355  -0.926 -13.523  0.00  0.00    -0.271 OA
HETATM    2  N           1     -35.468  -0.821 -12.334  0.00  0.00    -0.344 N 
HETATM    3  C           1     -36.195  -0.596 -13.472  0.00  0.00     0.251 C 
HETATM    4  H           1     -34.495  -0.545 -12.290  0.00  0.00     0.163 HD
ENDROOT
BRANCH   3   5
HETATM    5  C           1     -35.544   0.064 -14.663  0.00  0.00     0.302 C 
BRANCH   5   6
HETATM    6  N           1     -34.968  -0.987 -15.564  0.00  0.00    -0.064 N 
HETATM    7  H           1     -34.326  -1.604 -15.016  0.00  0.00     0.275 HD
HETATM    8  H           1     -35.743  -1.562 -15.966  0.00  0.00     0.275 HD
HETATM    9  H           1     -34.435  -0.530 -16.338  0.00  0.00     0.275 HD
ENDBRANCH   5   6
BRANCH   5  10
HETATM   10  C           1     -36.585   0.871 -15.428  0.00  0.00     0.153 C 
HETATM   11  C           1     -35.932   2.117 -16.012  0.00  0.00     0.042 C 
BRANCH  10  12
HETATM   12  O           1     -37.112   0.090 -16.466  0.00  0.00    -0.393 OA
HETATM   13  H           1     -37.130  -0.801 -16.156  0.00  0.00     0.210 HD
ENDBRANCH  10  12
ENDBRANCH   5  10
ENDBRANCH   3   5
BRANCH   2  14
HETATM   14  C           1     -36.093  -1.455 -11.188  0.00  0.00     0.189 C 
BRANCH  14  15
HETATM   15  C           1     -35.112  -2.430 -10.552  0.00  0.00     0.014 C 
HETATM   16  C           1     -35.501  -3.855 -10.923  0.00  0.00     0.012 C 
BRANCH  15  17
HETATM   17  C           1     -33.705  -2.138 -11.058  0.00  0.00     0.002 C 
HETATM   18  C           1     -33.025  -3.443 -11.448  0.00  0.00     0.005 C 
ENDBRANCH  15  17
ENDBRANCH  14  15
BRANCH  14  19
HETATM   19  C           1     -36.482  -0.401 -10.181  0.00  0.00     0.197 C 
HETATM   20  O           1     -37.370   0.433 -10.461  0.00  0.00    -0.646 OA
HETATM   21  O           1     -35.917  -0.362  -9.067  0.00  0.00    -0.646 OA
ENDBRANCH  14  19
ENDBRANCH   2  14
TORSDOF 8
ENDMDL
MODEL 3
REMARK VINA RESULT:      -5.7     12.303     14.038
REMARK  8 active torsions:
REMARK  status: ('A' for Active; 'I' for Inactive)
REMARK    1  A    between atoms: N_3  and  C_14 
REMARK    2  A    between atoms: C_7  and  C_8 
REMARK    3  A    between atoms: C_8  and  C_21 
REMARK    4  A    between atoms: N_11  and  C_21 
REMARK       I    between atoms: N_11  and  C_12 
REMARK    5  A    between atoms: C_12  and  C_14 
REMARK    6  A    between atoms: C_14  and  C_15 
REMARK    7  A    between atoms: C_15  and  O_16 
REMARK    8  A    between atoms: C_19  and  C_21 
ROOT
HETATM    1  O           1     -21.603  -3.477  -7.279  0.00  0.00    -0.271 OA
HETATM    2  N           1     -22.410  -4.815  -8.875  0.00  0.00    -0.344 N 
HETATM    3  C           1     -21.759  -4.602  -7.689  0.00  0.00     0.251 C 
HETATM    4  H           1     -22.540  -5.757  -9.220  0.00  0.00     0.163 HD
ENDROOT
BRANCH   3   5
HETATM    5  C           1     -21.235  -5.775  -6.897  0.00  0.00     0.302 C 
BRANCH   5   6
HETATM    6  N           1     -19.868  -6.143  -7.393  0.00  0.00    -0.064 N 
HETATM    7  H           1     -19.928  -7.017  -7.963  0.00  0.00     0.275 HD
HETATM    8  H           1     -19.494  -5.368  -7.985  0.00  0.00     0.275 HD
HETATM    9  H           1     -19.232  -6.300  -6.580  0.00  0.00     0.275 HD
ENDBRANCH   5   6
BRANCH   5  10
HETATM   10  C           1     -21.152  -5.396  -5.423  0.00  0.00     0.153 C 
HETATM   11  C           1     -21.036  -6.659  -4.581  0.00  0.00     0.042 C 
BRANCH  10  12
HETATM   12  O           1     -20.028  -4.587  -5.211  0.00  0.00    -0.393 OA
HETATM   13  H           1     -19.272  -5.150  -5.259  0.00  0.00     0.210 HD
ENDBRANCH  10  12
ENDBRANCH   5  10
ENDBRANCH   3   5
BRANCH   2  14
HETATM   14  C           1     -22.914  -3.687  -9.637  0.00  0.00     0.189 C 
BRANCH  14  15
HETATM   15  C           1     -22.336  -3.730 -11.045  0.00  0.00     0.014 C 
HETATM   16  C           1     -23.114  -2.775 -11.941  0.00  0.00     0.012 C 
BRANCH  15  17
HETATM   17  C           1     -20.872  -3.313 -11.006  0.00  0.00     0.002 C 
HETATM   18  C           1     -19.993  -4.553 -10.905  0.00  0.00     0.005 C 
ENDBRANCH  15  17
ENDBRANCH  14  15
BRANCH  14  19
HETATM   19  C           1     -24.419  -3.761  -9.707  0.00  0.00     0.197 C 
HETATM   20  O           1     -24.980  -4.849  -9.961  0.00  0.00    -0.646 OA
HETATM   21  O           1     -25.106  -2.735  -9.512  0.00  0.00    -0.646 OA
ENDBRANCH  14  19
ENDBRANCH   2  14
TORSDOF 8
ENDMDL
MODEL 4
REMARK VINA RESULT:      -5.4      1.758      5.296
REMARK  8 active torsions:
REMARK  status: ('A' for Active; 'I' for Inactive)
REMARK    1  A    between atoms: N_3  and  C_14 
REMARK    2  A    between atoms: C_7  and  C_8 
REMARK    3  A    between atoms: C_8  and  C_21 
REMARK    4  A    between atoms: N_11  and  C_21 
REMARK       I    between atoms: N_11  and  C_12 
REMARK    5  A    between atoms: C_12  and  C_14 
REMARK    6  A    between atoms: C_14  and  C_15 
REMARK    7  A    between atoms: C_15  and  O_16 
REMARK    8  A    between atoms: C_19  and  C_21 
ROOT
HETATM    1  O           1     -36.691  -1.071 -13.198  0.00  0.00    -0.271 OA
HETATM    2  N           1     -34.709  -2.098 -13.162  0.00  0.00    -0.344 N 
HETATM    3  C           1     -35.631  -1.267 -13.740  0.00  0.00     0.251 C 
HETATM    4  H           1     -33.820  -2.264 -13.616  0.00  0.00     0.163 HD
ENDROOT
BRANCH   3   5
HETATM    5  C           1     -35.319  -0.597 -15.056  0.00  0.00     0.302 C 
BRANCH   5   6
HETATM    6  N           1     -36.565  -0.527 -15.888  0.00  0.00    -0.064 N 
HETATM    7  H           1     -36.450   0.202 -16.629  0.00  0.00     0.275 HD
HETATM    8  H           1     -36.735  -1.455 -16.337  0.00  0.00     0.275 HD
HETATM    9  H           1     -37.378  -0.279 -15.280  0.00  0.00     0.275 HD
ENDBRANCH   5   6
BRANCH   5  10
HETATM   10  C           1     -34.804   0.814 -14.798  0.00  0.00     0.153 C 
HETATM   11  C           1     -35.725   1.822 -15.472  0.00  0.00     0.042 C 
BRANCH  10  12
HETATM   12  O           1     -34.776   1.057 -13.418  0.00  0.00    -0.393 OA
HETATM   13  H           1     -34.026   0.600 -13.074  0.00  0.00     0.210 HD
ENDBRANCH  10  12
ENDBRANCH   5  10
ENDBRANCH   3   5
BRANCH   2  14
HETATM   14  C           1     -35.008  -2.743 -11.897  0.00  0.00     0.189 C 
BRANCH  14  15
HETATM   15  C           1     -34.357  -4.120 -11.865  0.00  0.00     0.014 C 
HETATM   16  C           1     -32.850  -3.972 -12.026  0.00  0.00     0.012 C 
BRANCH  15  17
HETATM   17  C           1     -34.663  -4.794 -10.534  0.00  0.00     0.002 C 
HETATM   18  C           1     -34.187  -6.240 -10.576  0.00  0.00     0.005 C 
ENDBRANCH  15  17
ENDBRANCH  14  15
BRANCH  14  19
HETATM   19  C           1     -34.467  -1.904 -10.766  0.00  0.00     0.197 C 
HETATM   20  O           1     -35.250  -1.400  -9.932  0.00  0.00    -0.646 OA
HETATM   21  O           1     -33.236  -1.712 -10.662  0.00  0.00    -0.646 OA
ENDBRANCH  14  19
ENDBRANCH   2  14
TORSDOF 8
ENDMDL
MODEL 5
REMARK VINA RESULT:      -5.3      1.996      5.572
REMARK  8 active torsions:
REMARK  status: ('A' for Active; 'I' for Inactive)
REMARK    1  A    between atoms: N_3  and  C_14 
REMARK    2  A    between atoms: C_7  and  C_8 
REMARK    3  A    between atoms: C_8  and  C_21 
REMARK    4  A    between atoms: N_11  and  C_21 
REMARK       I    between atoms: N_11  and  C_12 
REMARK    5  A    between atoms: C_12  and  C_14 
REMARK    6  A    between atoms: C_14  and  C_15 
REMARK    7  A    between atoms: C_15  and  O_16 
REMARK    8  A    between atoms: C_19  and  C_21 
ROOT
HETATM    1  O           1     -34.672  -1.373  -9.968  0.00  0.00    -0.271 OA
HETATM    2  N           1     -35.476  -2.818 -11.469  0.00  0.00    -0.344 N 
HETATM    3  C           1     -35.505  -1.620 -10.808  0.00  0.00     0.251 C 
HETATM    4  H           1     -36.173  -3.026 -12.173  0.00  0.00     0.163 HD
ENDROOT
BRANCH   3   5
HETATM    5  C           1     -36.578  -0.609 -11.128  0.00  0.00     0.302 C 
BRANCH   5   6
HETATM    6  N           1     -36.463   0.557 -10.191  0.00  0.00    -0.064 N 
HETATM    7  H           1     -35.995   1.353 -10.679  0.00  0.00     0.275 HD
HETATM    8  H           1     -37.418   0.850  -9.884  0.00  0.00     0.275 HD
HETATM    9  H           1     -35.898   0.279  -9.357  0.00  0.00     0.275 HD
ENDBRANCH   5   6
BRANCH   5  10
HETATM   10  C           1     -36.406  -0.123 -12.562  0.00  0.00     0.153 C 
HETATM   11  C           1     -34.996   0.424 -12.746  0.00  0.00     0.042 C 
BRANCH  10  12
HETATM   12  O           1     -36.612  -1.191 -13.446  0.00  0.00    -0.393 OA
HETATM   13  H           1     -37.365  -0.972 -13.970  0.00  0.00     0.210 HD
ENDBRANCH  10  12
ENDBRANCH   5  10
ENDBRANCH   3   5
BRANCH   2  14
HETATM   14  C           1     -34.444  -3.791 -11.161  0.00  0.00     0.189 C 
BRANCH  14  15
HETATM   15  C           1     -35.075  -5.169 -11.016  0.00  0.00     0.014 C 
HETATM   16  C           1     -35.082  -5.868 -12.369  0.00  0.00     0.012 C 
BRANCH  15  17
HETATM   17  C           1     -34.268  -5.995 -10.022  0.00  0.00     0.002 C 
HETATM   18  C           1     -34.882  -7.383  -9.899  0.00  0.00     0.005 C 
ENDBRANCH  15  17
ENDBRANCH  14  15
BRANCH  14  19
HETATM   19  C           1     -33.428  -3.817 -12.278  0.00  0.00     0.197 C 
HETATM   20  O           1     -32.265  -4.216 -12.055  0.00  0.00    -0.646 OA
HETATM   21  O           1     -33.750  -3.438 -13.425  0.00  0.00    -0.646 OA
ENDBRANCH  14  19
ENDBRANCH   2  14
TORSDOF 8
ENDMDL
MODEL 6
REMARK VINA RESULT:      -5.2     12.325     14.792
REMARK  8 active torsions:
REMARK  status: ('A' for Active; 'I' for Inactive)
REMARK    1  A    between atoms: N_3  and  C_14 
REMARK    2  A    between atoms: C_7  and  C_8 
REMARK    3  A    between atoms: C_8  and  C_21 
REMARK    4  A    between atoms: N_11  and  C_21 
REMARK       I    between atoms: N_11  and  C_12 
REMARK    5  A    between atoms: C_12  and  C_14 
REMARK    6  A    between atoms: C_14  and  C_15 
REMARK    7  A    between atoms: C_15  and  O_16 
REMARK    8  A    between atoms: C_19  and  C_21 
ROOT
HETATM    1  O           1     -22.797  -2.965  -8.980  0.00  0.00    -0.271 OA
HETATM    2  N           1     -22.173  -5.042  -8.444  0.00  0.00    -0.344 N 
HETATM    3  C           1     -22.983  -4.153  -9.098  0.00  0.00     0.251 C 
HETATM    4  H           1     -22.328  -6.037  -8.543  0.00  0.00     0.163 HD
ENDROOT
BRANCH   3   5
HETATM    5  C           1     -24.108  -4.658  -9.967  0.00  0.00     0.302 C 
BRANCH   5   6
HETATM    6  N           1     -25.315  -3.787  -9.778  0.00  0.00    -0.064 N 
HETATM    7  H           1     -25.870  -3.763 -10.663  0.00  0.00     0.275 HD
HETATM    8  H           1     -25.906  -4.176  -9.009  0.00  0.00     0.275 HD
HETATM    9  H           1     -25.011  -2.819  -9.530  0.00  0.00     0.275 HD
ENDBRANCH   5   6
BRANCH   5  10
HETATM   10  C           1     -23.679  -4.617 -11.429  0.00  0.00     0.153 C 
HETATM   11  C           1     -24.239  -3.363 -12.087  0.00  0.00     0.042 C 
BRANCH  10  12
HETATM   12  O           1     -22.280  -4.600 -11.505  0.00  0.00    -0.393 OA
HETATM   13  H           1     -21.995  -3.779 -11.137  0.00  0.00     0.210 HD
ENDBRANCH  10  12
ENDBRANCH   5  10
ENDBRANCH   3   5
BRANCH   2  14
HETATM   14  C           1     -21.090  -4.557  -7.608  0.00  0.00     0.189 C 
BRANCH  14  15
HETATM   15  C           1     -20.915  -5.487  -6.416  0.00  0.00     0.014 C 
HETATM   16  C           1     -20.202  -4.744  -5.294  0.00  0.00     0.012 C 
BRANCH  15  17
HETATM   17  C           1     -22.281  -5.953  -5.930  0.00  0.00     0.002 C 
HETATM   18  C           1     -22.121  -6.727  -4.629  0.00  0.00     0.005 C 
ENDBRANCH  15  17
ENDBRANCH  14  15
BRANCH  14  19
HETATM   19  C           1     -19.813  -4.520  -8.412  0.00  0.00     0.197 C 
HETATM   20  O           1     -18.749  -4.142  -7.876  0.00  0.00    -0.646 OA
HETATM   21  O           1     -19.820  -4.868  -9.612  0.00  0.00    -0.646 OA
ENDBRANCH  14  19
ENDBRANCH   2  14
TORSDOF 8
ENDMDL
MODEL 7
REMARK VINA RESULT:      -5.0     14.233     16.987
REMARK  8 active torsions:
REMARK  status: ('A' for Active; 'I' for Inactive)
REMARK    1  A    between atoms: N_3  and  C_14 
REMARK    2  A    between atoms: C_7  and  C_8 
REMARK    3  A    between atoms: C_8  and  C_21 
REMARK    4  A    between atoms: N_11  and  C_21 
REMARK       I    between atoms: N_11  and  C_12 
REMARK    5  A    between atoms: C_12  and  C_14 
REMARK    6  A    between atoms: C_14  and  C_15 
REMARK    7  A    between atoms: C_15  and  O_16 
REMARK    8  A    between atoms: C_19  and  C_21 
ROOT
HETATM    1  O           1     -19.884  -5.006  -6.064  0.00  0.00    -0.271 OA
HETATM    2  N           1     -21.509  -6.459  -5.578  0.00  0.00    -0.344 N 
HETATM    3  C           1     -21.030  -5.352  -6.226  0.00  0.00     0.251 C 
HETATM    4  H           1     -22.469  -6.750  -5.713  0.00  0.00     0.163 HD
ENDROOT
BRANCH   3   5
HETATM    5  C           1     -21.935  -4.566  -7.142  0.00  0.00     0.302 C 
BRANCH   5   6
HETATM    6  N           1     -21.611  -3.105  -7.032  0.00  0.00    -0.064 N 
HETATM    7  H           1     -21.062  -2.805  -7.869  0.00  0.00     0.275 HD
HETATM    8  H           1     -22.499  -2.556  -6.983  0.00  0.00     0.275 HD
HETATM    9  H           1     -21.048  -2.937  -6.168  0.00  0.00     0.275 HD
ENDBRANCH   5   6
BRANCH   5  10
HETATM   10  C           1     -21.723  -5.023  -8.580  0.00  0.00     0.153 C 
HETATM   11  C           1     -22.538  -4.143  -9.518  0.00  0.00     0.042 C 
BRANCH  10  12
HETATM   12  O           1     -20.364  -4.922  -8.908  0.00  0.00    -0.393 OA
HETATM   13  H           1     -20.203  -4.021  -9.134  0.00  0.00     0.210 HD
ENDBRANCH  10  12
ENDBRANCH   5  10
ENDBRANCH   3   5
BRANCH   2  14
HETATM   14  C           1     -20.640  -7.216  -4.696  0.00  0.00     0.189 C 
BRANCH  14  15
HETATM   15  C           1     -21.388  -7.553  -3.414  0.00  0.00     0.014 C 
HETATM   16  C           1     -20.448  -8.268  -2.452  0.00  0.00     0.012 C 
BRANCH  15  17
HETATM   17  C           1     -21.895  -6.269  -2.770  0.00  0.00     0.002 C 
HETATM   18  C           1     -22.274  -6.543  -1.320  0.00  0.00     0.005 C 
ENDBRANCH  15  17
ENDBRANCH  14  15
BRANCH  14  19
HETATM   19  C           1     -20.216  -8.491  -5.383  0.00  0.00     0.197 C 
HETATM   20  O           1     -21.072  -9.349  -5.690  0.00  0.00    -0.646 OA
HETATM   21  O           1     -19.010  -8.690  -5.644  0.00  0.00    -0.646 OA
ENDBRANCH  14  19
ENDBRANCH   2  14
TORSDOF 8
ENDMDL
MODEL 8
REMARK VINA RESULT:      -4.9     12.076     14.313
REMARK  8 active torsions:
REMARK  status: ('A' for Active; 'I' for Inactive)
REMARK    1  A    between atoms: N_3  and  C_14 
REMARK    2  A    between atoms: C_7  and  C_8 
REMARK    3  A    between atoms: C_8  and  C_21 
REMARK    4  A    between atoms: N_11  and  C_21 
REMARK       I    between atoms: N_11  and  C_12 
REMARK    5  A    between atoms: C_12  and  C_14 
REMARK    6  A    between atoms: C_14  and  C_15 
REMARK    7  A    between atoms: C_15  and  O_16 
REMARK    8  A    between atoms: C_19  and  C_21 
ROOT
HETATM    1  O           1     -23.713  -4.738 -10.472  0.00  0.00    -0.271 OA
HETATM    2  N           1     -21.702  -4.087  -9.753  0.00  0.00    -0.344 N 
HETATM    3  C           1     -22.729  -4.062 -10.657  0.00  0.00     0.251 C 
HETATM    4  H           1     -20.877  -3.521  -9.906  0.00  0.00     0.163 HD
ENDROOT
BRANCH   3   5
HETATM    5  C           1     -22.631  -3.190 -11.884  0.00  0.00     0.302 C 
BRANCH   5   6
HETATM    6  N           1     -21.531  -3.695 -12.770  0.00  0.00    -0.064 N 
HETATM    7  H           1     -21.850  -4.557 -13.267  0.00  0.00     0.275 HD
HETATM    8  H           1     -21.286  -2.960 -13.471  0.00  0.00     0.275 HD
HETATM    9  H           1     -20.691  -3.918 -12.190  0.00  0.00     0.275 HD
ENDBRANCH   5   6
BRANCH   5  10
HETATM   10  C           1     -23.951  -3.232 -12.644  0.00  0.00     0.153 C 
HETATM   11  C           1     -23.984  -2.104 -13.666  0.00  0.00     0.042 C 
BRANCH  10  12
HETATM   12  O           1     -24.073  -4.463 -13.303  0.00  0.00    -0.393 OA
HETATM   13  H           1     -24.392  -5.084 -12.668  0.00  0.00     0.210 HD
ENDBRANCH  10  12
ENDBRANCH   5  10
ENDBRANCH   3   5
BRANCH   2  14
HETATM   14  C           1     -21.795  -4.926  -8.572  0.00  0.00     0.189 C 
BRANCH  14  15
HETATM   15  C           1     -20.404  -5.407  -8.181  0.00  0.00     0.014 C 
HETATM   16  C           1     -19.435  -4.233  -8.215  0.00  0.00     0.012 C 
BRANCH  15  17
HETATM   17  C           1     -20.446  -5.992  -6.776  0.00  0.00     0.002 C 
HETATM   18  C           1     -19.699  -5.072  -5.819  0.00  0.00     0.005 C 
ENDBRANCH  15  17
ENDBRANCH  14  15
BRANCH  14  19
HETATM   19  C           1     -22.391  -4.129  -7.436  0.00  0.00     0.197 C 
HETATM   20  O           1     -23.350  -4.594  -6.784  0.00  0.00    -0.646 OA
HETATM   21  O           1     -21.926  -3.005  -7.149  0.00  0.00    -0.646 OA
ENDBRANCH  14  19
ENDBRANCH   2  14
TORSDOF 8
ENDMDL
MODEL 9
REMARK VINA RESULT:      -4.8     17.066     19.064
REMARK  8 active torsions:
REMARK  status: ('A' for Active; 'I' for Inactive)
REMARK    1  A    between atoms: N_3  and  C_14 
REMARK    2  A    between atoms: C_7  and  C_8 
REMARK    3  A    between atoms: C_8  and  C_21 
REMARK    4  A    between atoms: N_11  and  C_21 
REMARK       I    between atoms: N_11  and  C_12 
REMARK    5  A    between atoms: C_12  and  C_14 
REMARK    6  A    between atoms: C_14  and  C_15 
REMARK    7  A    between atoms: C_15  and  O_16 
REMARK    8  A    between atoms: C_19  and  C_21 
ROOT
HETATM    1  O           1     -20.861  -6.985  -2.256  0.00  0.00    -0.271 OA
HETATM    2  N           1     -21.620  -9.085  -2.221  0.00  0.00    -0.344 N 
HETATM    3  C           1     -21.399  -7.889  -2.849  0.00  0.00     0.251 C 
HETATM    4  H           1     -22.071  -9.843  -2.717  0.00  0.00     0.163 HD
ENDROOT
BRANCH   3   5
HETATM    5  C           1     -21.829  -7.701  -4.283  0.00  0.00     0.302 C 
BRANCH   5   6
HETATM    6  N           1     -22.325  -6.299  -4.477  0.00  0.00    -0.064 N 
HETATM    7  H           1     -21.523  -5.632  -4.410  0.00  0.00     0.275 HD
HETATM    8  H           1     -22.769  -6.215  -5.420  0.00  0.00     0.275 HD
HETATM    9  H           1     -23.029  -6.073  -3.739  0.00  0.00     0.275 HD
ENDBRANCH   5   6
BRANCH   5  10
HETATM   10  C           1     -20.642  -7.949  -5.206  0.00  0.00     0.153 C 
HETATM   11  C           1     -20.244  -6.644  -5.882  0.00  0.00     0.042 C 
BRANCH  10  12
HETATM   12  O           1     -19.562  -8.437  -4.457  0.00  0.00    -0.393 OA
HETATM   13  H           1     -18.821  -7.888  -4.656  0.00  0.00     0.210 HD
ENDBRANCH  10  12
ENDBRANCH   5  10
ENDBRANCH   3   5
BRANCH   2  14
HETATM   14  C           1     -21.207  -9.266  -0.842  0.00  0.00     0.189 C 
BRANCH  14  15
HETATM   15  C           1     -22.430  -9.555   0.019  0.00  0.00     0.014 C 
HETATM   16  C           1     -23.099  -8.243   0.405  0.00  0.00     0.012 C 
BRANCH  15  17
HETATM   17  C           1     -23.411 -10.416  -0.766  0.00  0.00     0.002 C 
HETATM   18  C           1     -23.767 -11.653   0.049  0.00  0.00     0.005 C 
ENDBRANCH  15  17
ENDBRANCH  14  15
BRANCH  14  19
HETATM   19  C           1     -20.244 -10.425  -0.754  0.00  0.00     0.197 C 
HETATM   20  O           1     -20.119 -11.053   0.319  0.00  0.00    -0.646 OA
HETATM   21  O           1     -19.571 -10.756  -1.754  0.00  0.00    -0.646 OA
ENDBRANCH  14  19
ENDBRANCH   2  14
TORSDOF 8
ENDMDL
