MODEL 1
REMARK VINA RESULT:      -7.3      0.000      0.000
REMARK  8 active torsions:
REMARK  status: ('A' for Active; 'I' for Inactive)
REMARK    1  A    between atoms: C_1  and  C_24 
REMARK       I    between atoms: C_9  and  N_25 
REMARK    2  A    between atoms: C_9  and  C_10 
REMARK    3  A    between atoms: C_10  and  C_11 
REMARK    4  A    between atoms: C_10  and  N_15 
REMARK    5  A    between atoms: C_11  and  C_12 
REMARK    6  A    between atoms: C_18  and  C_20 
REMARK    7  A    between atoms: C_20  and  C_24 
REMARK    8  A    between atoms: C_20  and  N_25 
ROOT
HETATM    1  C           1     -21.125  -5.959  -7.261  0.00  0.00     0.190 C 
ENDROOT
BRANCH   1   2
HETATM    2  C           1     -19.633  -5.934  -7.038  0.00  0.00     0.197 C 
HETATM    3  O           1     -19.021  -6.995  -6.783  0.00  0.00    -0.646 OA
HETATM    4  O           1     -19.009  -4.854  -7.109  0.00  0.00    -0.646 OA
ENDBRANCH   1   2
BRANCH   1   5
HETATM    5  C           1     -21.696  -4.566  -7.036  0.00  0.00     0.077 C 
BRANCH   5   6
HETATM    6  C           1     -22.608  -4.211  -8.169  0.00  0.00    -0.028 A 
HETATM    7  C           1     -23.980  -4.122  -8.109  0.00  0.00     0.096 A 
HETATM    8  N           1     -24.432  -3.773  -9.354  0.00  0.00    -0.365 N 
HETATM    9  C           1     -23.373  -3.633 -10.223  0.00  0.00     0.042 A 
HETATM   10  H           1     -25.441  -3.632  -9.609  0.00  0.00     0.165 HD
HETATM   11  C           1     -23.356  -3.292 -11.581  0.00  0.00     0.030 A 
HETATM   12  C           1     -22.212  -3.904  -9.500  0.00  0.00    -0.002 A 
HETATM   13  C           1     -22.111  -3.227 -12.215  0.00  0.00     0.002 A 
HETATM   14  C           1     -20.935  -3.492 -11.518  0.00  0.00     0.001 A 
HETATM   15  C           1     -20.970  -3.832 -10.160  0.00  0.00     0.014 A 
ENDBRANCH   5   6
ENDBRANCH   1   5
BRANCH   1  16
HETATM   16  N           1     -21.737  -6.888  -6.329  0.00  0.00    -0.344 N 
HETATM   17  H           1     -21.785  -7.873  -6.555  0.00  0.00     0.163 HD
HETATM   18  C           1     -22.250  -6.431  -5.145  0.00  0.00     0.249 C 
HETATM   19  O           1     -23.403  -6.078  -5.082  0.00  0.00    -0.271 OA
BRANCH  18  20
HETATM   20  C           1     -21.374  -6.367  -3.918  0.00  0.00     0.284 C 
BRANCH  20  21
HETATM   21  C           1     -20.656  -7.698  -3.736  0.00  0.00     0.155 C 
BRANCH  21  22
HETATM   22  C           1     -20.951  -8.244  -2.359  0.00  0.00     0.175 C 
HETATM   23  O           1     -20.272  -7.868  -1.380  0.00  0.00    -0.648 OA
HETATM   24  O           1     -21.875  -9.071  -2.200  0.00  0.00    -0.648 OA
ENDBRANCH  21  22
ENDBRANCH  20  21
BRANCH  20  25
HETATM   25  N           1     -22.220  -6.087  -2.712  0.00  0.00    -0.066 N 
HETATM   26  H           1     -23.197  -5.870  -3.014  0.00  0.00     0.275 HD
HETATM   27  H           1     -22.226  -6.925  -2.089  0.00  0.00     0.275 HD
HETATM   28  H           1     -21.827  -5.268  -2.195  0.00  0.00     0.275 HD
ENDBRANCH  20  25
ENDBRANCH  18  20
ENDBRANCH   1  16
TORSDOF 8
ENDMDL
MODEL 2
REMARK VINA RESULT:      -7.2      1.804      2.451
REMARK  8 active torsions:
REMARK  status: ('A' for Active; 'I' for Inactive)
REMARK    1  A    between atoms: C_1  and  C_24 
REMARK       I    between atoms: C_9  and  N_25 
REMARK    2  A    between atoms: C_9  and  C_10 
REMARK    3  A    between atoms: C_10  and  C_11 
REMARK    4  A    between atoms: C_10  and  N_15 
REMARK    5  A    between atoms: C_11  and  C_12 
REMARK    6  A    between atoms: C_18  and  C_20 
REMARK    7  A    between atoms: C_20  and  C_24 
REMARK    8  A    between atoms: C_20  and  N_25 
ROOT
HETATM    1  C           1     -21.906  -6.719  -5.372  0.00  0.00     0.190 C 
ENDROOT
BRANCH   1   2
HETATM    2  C           1     -20.991  -7.899  -5.160  0.00  0.00     0.197 C 
HETATM    3  O           1     -19.758  -7.723  -5.051  0.00  0.00    -0.646 OA
HETATM    4  O           1     -21.466  -9.054  -5.095  0.00  0.00    -0.646 OA
ENDBRANCH   1   2
BRANCH   1   5
HETATM    5  C           1     -21.121  -5.573  -5.996  0.00  0.00     0.077 C 
BRANCH   5   6
HETATM    6  C           1     -21.928  -4.954  -7.095  0.00  0.00    -0.028 A 
HETATM    7  C           1     -23.244  -4.562  -7.013  0.00  0.00     0.096 A 
HETATM    8  N           1     -23.604  -4.046  -8.230  0.00  0.00    -0.365 N 
HETATM    9  C           1     -22.540  -4.098  -9.103  0.00  0.00     0.042 A 
HETATM   10  H           1     -24.554  -3.666  -8.464  0.00  0.00     0.165 HD
HETATM   11  C           1     -22.445  -3.689 -10.439  0.00  0.00     0.030 A 
HETATM   12  C           1     -21.471  -4.667  -8.411  0.00  0.00    -0.002 A 
HETATM   13  C           1     -21.217  -3.869 -11.083  0.00  0.00     0.002 A 
HETATM   14  C           1     -20.131  -4.434 -10.417  0.00  0.00     0.001 A 
HETATM   15  C           1     -20.244  -4.838  -9.081  0.00  0.00     0.014 A 
ENDBRANCH   5   6
ENDBRANCH   1   5
BRANCH   1  16
HETATM   16  N           1     -22.449  -6.293  -4.096  0.00  0.00    -0.344 N 
HETATM   17  H           1     -23.400  -5.951  -4.040  0.00  0.00     0.163 HD
HETATM   18  C           1     -21.675  -6.353  -2.968  0.00  0.00     0.249 C 
HETATM   19  O           1     -20.994  -5.407  -2.652  0.00  0.00    -0.271 OA
BRANCH  18  20
HETATM   20  C           1     -21.672  -7.602  -2.122  0.00  0.00     0.284 C 
BRANCH  20  21
HETATM   21  C           1     -22.387  -7.327  -0.806  0.00  0.00     0.155 C 
BRANCH  21  22
HETATM   22  C           1     -22.054  -8.416   0.186  0.00  0.00     0.175 C 
HETATM   23  O           1     -21.404  -8.143   1.217  0.00  0.00    -0.648 OA
HETATM   24  O           1     -22.427  -9.590  -0.026  0.00  0.00    -0.648 OA
ENDBRANCH  21  22
ENDBRANCH  20  21
BRANCH  20  25
HETATM   25  N           1     -20.257  -8.016  -1.845  0.00  0.00    -0.066 N 
HETATM   26  H           1     -19.744  -7.226  -1.393  0.00  0.00     0.275 HD
HETATM   27  H           1     -20.255  -8.843  -1.206  0.00  0.00     0.275 HD
HETATM   28  H           1     -19.787  -8.267  -2.744  0.00  0.00     0.275 HD
ENDBRANCH  20  25
ENDBRANCH  18  20
ENDBRANCH   1  16
TORSDOF 8
ENDMDL
MODEL 3
REMARK VINA RESULT:      -7.2     13.413     16.316
REMARK  8 active torsions:
REMARK  status: ('A' for Active; 'I' for Inactive)
REMARK    1  A    between atoms: C_1  and  C_24 
REMARK       I    between atoms: C_9  and  N_25 
REMARK    2  A    between atoms: C_9  and  C_10 
REMARK    3  A    between atoms: C_10  and  C_11 
REMARK    4  A    between atoms: C_10  and  N_15 
REMARK    5  A    between atoms: C_11  and  C_12 
REMARK    6  A    between atoms: C_18  and  C_20 
REMARK    7  A    between atoms: C_20  and  C_24 
REMARK    8  A    between atoms: C_20  and  N_25 
ROOT
HETATM    1  C           1     -35.426  -2.125 -11.344  0.00  0.00     0.190 C 
ENDROOT
BRANCH   1   2
HETATM    2  C           1     -36.432  -1.246 -10.642  0.00  0.00     0.197 C 
HETATM    3  O           1     -36.065  -0.499  -9.708  0.00  0.00    -0.646 OA
HETATM    4  O           1     -37.631  -1.264 -10.995  0.00  0.00    -0.646 OA
ENDBRANCH   1   2
BRANCH   1   5
HETATM    5  C           1     -34.342  -2.542 -10.359  0.00  0.00     0.077 C 
BRANCH   5   6
HETATM    6  C           1     -33.700  -3.809 -10.831  0.00  0.00    -0.028 A 
HETATM    7  C           1     -32.631  -3.906 -11.691  0.00  0.00     0.096 A 
HETATM    8  N           1     -32.352  -5.236 -11.866  0.00  0.00    -0.365 N 
HETATM    9  C           1     -33.225  -6.006 -11.130  0.00  0.00     0.042 A 
HETATM   10  H           1     -31.584  -5.614 -12.473  0.00  0.00     0.165 HD
HETATM   11  C           1     -33.318  -7.397 -11.003  0.00  0.00     0.030 A 
HETATM   12  C           1     -34.085  -5.130 -10.468  0.00  0.00    -0.002 A 
HETATM   13  C           1     -34.323  -7.904 -10.171  0.00  0.00     0.002 A 
HETATM   14  C           1     -35.196  -7.053  -9.497  0.00  0.00     0.001 A 
HETATM   15  C           1     -35.089  -5.664  -9.637  0.00  0.00     0.014 A 
ENDBRANCH   5   6
ENDBRANCH   1   5
BRANCH   1  16
HETATM   16  N           1     -34.825  -1.390 -12.441  0.00  0.00    -0.344 N 
HETATM   17  H           1     -33.953  -1.709 -12.844  0.00  0.00     0.163 HD
HETATM   18  C           1     -35.436  -0.267 -12.930  0.00  0.00     0.249 C 
HETATM   19  O           1     -35.176   0.815 -12.462  0.00  0.00    -0.271 OA
BRANCH  18  20
HETATM   20  C           1     -36.437  -0.383 -14.054  0.00  0.00     0.284 C 
BRANCH  20  21
HETATM   21  C           1     -35.865   0.258 -15.312  0.00  0.00     0.155 C 
BRANCH  21  22
HETATM   22  C           1     -35.840  -0.759 -16.428  0.00  0.00     0.175 C 
HETATM   23  O           1     -36.803  -0.840 -17.219  0.00  0.00    -0.648 OA
HETATM   24  O           1     -34.857  -1.519 -16.559  0.00  0.00    -0.648 OA
ENDBRANCH  21  22
ENDBRANCH  20  21
BRANCH  20  25
HETATM   25  N           1     -37.706   0.318 -13.668  0.00  0.00    -0.066 N 
HETATM   26  H           1     -38.327  -0.343 -13.151  0.00  0.00     0.275 HD
HETATM   27  H           1     -37.479   1.135 -13.057  0.00  0.00     0.275 HD
HETATM   28  H           1     -38.193   0.652 -14.530  0.00  0.00     0.275 HD
ENDBRANCH  20  25
ENDBRANCH  18  20
ENDBRANCH   1  16
TORSDOF 8
ENDMDL
MODEL 4
REMARK VINA RESULT:      -7.1     13.716     16.696
REMARK  8 active torsions:
REMARK  status: ('A' for Active; 'I' for Inactive)
REMARK    1  A    between atoms: C_1  and  C_24 
REMARK       I    between atoms: C_9  and  N_25 
REMARK    2  A    between atoms: C_9  and  C_10 
REMARK    3  A    between atoms: C_10  and  C_11 
REMARK    4  A    between atoms: C_10  and  N_15 
REMARK    5  A    between atoms: C_11  and  C_12 
REMARK    6  A    between atoms: C_18  and  C_20 
REMARK    7  A    between atoms: C_20  and  C_24 
REMARK    8  A    between atoms: C_20  and  N_25 
ROOT
HETATM    1  C           1     -36.809  -0.397 -10.961  0.00  0.00     0.190 C 
ENDROOT
BRANCH   1   2
HETATM    2  C           1     -37.074   0.520  -9.792  0.00  0.00     0.197 C 
HETATM    3  O           1     -36.308   0.510  -8.803  0.00  0.00    -0.646 OA
HETATM    4  O           1     -38.059   1.289  -9.812  0.00  0.00    -0.646 OA
ENDBRANCH   1   2
BRANCH   1   5
HETATM    5  C           1     -35.394  -0.950 -10.862  0.00  0.00     0.077 C 
BRANCH   5   6
HETATM    6  C           1     -35.446  -2.444 -10.785  0.00  0.00    -0.028 A 
HETATM    7  C           1     -36.528  -3.200 -10.399  0.00  0.00     0.096 A 
HETATM    8  N           1     -36.165  -4.519 -10.466  0.00  0.00    -0.365 N 
HETATM    9  C           1     -34.861  -4.632 -10.892  0.00  0.00     0.042 A 
HETATM   10  H           1     -36.791  -5.327 -10.228  0.00  0.00     0.165 HD
HETATM   11  C           1     -34.074  -5.770 -11.106  0.00  0.00     0.030 A 
HETATM   12  C           1     -34.384  -3.337 -11.101  0.00  0.00    -0.002 A 
HETATM   13  C           1     -32.761  -5.575 -11.547  0.00  0.00     0.002 A 
HETATM   14  C           1     -32.259  -4.293 -11.763  0.00  0.00     0.001 A 
HETATM   15  C           1     -33.059  -3.166 -11.544  0.00  0.00     0.014 A 
ENDBRANCH   5   6
ENDBRANCH   1   5
BRANCH   1  16
HETATM   16  N           1     -36.952   0.345 -12.199  0.00  0.00    -0.344 N 
HETATM   17  H           1     -37.141   1.339 -12.174  0.00  0.00     0.163 HD
HETATM   18  C           1     -36.832  -0.299 -13.401  0.00  0.00     0.249 C 
HETATM   19  O           1     -37.806  -0.779 -13.929  0.00  0.00    -0.271 OA
BRANCH  18  20
HETATM   20  C           1     -35.482  -0.410 -14.065  0.00  0.00     0.284 C 
BRANCH  20  21
HETATM   21  C           1     -35.529   0.262 -15.431  0.00  0.00     0.155 C 
BRANCH  21  22
HETATM   22  C           1     -35.759  -0.782 -16.497  0.00  0.00     0.175 C 
HETATM   23  O           1     -34.817  -1.517 -16.864  0.00  0.00    -0.648 OA
HETATM   24  O           1     -36.890  -0.911 -17.012  0.00  0.00    -0.648 OA
ENDBRANCH  21  22
ENDBRANCH  20  21
BRANCH  20  25
HETATM   25  N           1     -35.123  -1.857 -14.232  0.00  0.00    -0.066 N 
HETATM   26  H           1     -34.169  -1.935 -14.649  0.00  0.00     0.275 HD
HETATM   27  H           1     -35.136  -2.328 -13.300  0.00  0.00     0.275 HD
HETATM   28  H           1     -35.818  -2.315 -14.865  0.00  0.00     0.275 HD
ENDBRANCH  20  25
ENDBRANCH  18  20
ENDBRANCH   1  16
TORSDOF 8
ENDMDL
MODEL 5
REMARK VINA RESULT:      -7.1      2.481      7.180
REMARK  8 active torsions:
REMARK  status: ('A' for Active; 'I' for Inactive)
REMARK    1  A    between atoms: C_1  and  C_24 
REMARK       I    between atoms: C_9  and  N_25 
REMARK    2  A    between atoms: C_9  and  C_10 
REMARK    3  A    between atoms: C_10  and  C_11 
REMARK    4  A    between atoms: C_10  and  N_15 
REMARK    5  A    between atoms: C_11  and  C_12 
REMARK    6  A    between atoms: C_18  and  C_20 
REMARK    7  A    between atoms: C_20  and  C_24 
REMARK    8  A    between atoms: C_20  and  N_25 
ROOT
HETATM    1  C           1     -20.606  -5.236  -6.169  0.00  0.00     0.190 C 
ENDROOT
BRANCH   1   2
HETATM    2  C           1     -19.519  -5.344  -7.210  0.00  0.00     0.197 C 
HETATM    3  O           1     -18.658  -4.442  -7.311  0.00  0.00    -0.646 OA
HETATM    4  O           1     -19.478  -6.335  -7.970  0.00  0.00    -0.646 OA
ENDBRANCH   1   2
BRANCH   1   5
HETATM    5  C           1     -21.354  -6.559  -6.076  0.00  0.00     0.077 C 
BRANCH   5   6
HETATM    6  C           1     -20.821  -7.355  -4.926  0.00  0.00    -0.028 A 
HETATM    7  C           1     -19.862  -8.339  -4.995  0.00  0.00     0.096 A 
HETATM    8  N           1     -19.658  -8.816  -3.728  0.00  0.00    -0.365 N 
HETATM    9  C           1     -20.471  -8.155  -2.834  0.00  0.00     0.042 A 
HETATM   10  H           1     -18.979  -9.575  -3.474  0.00  0.00     0.165 HD
HETATM   11  C           1     -20.604  -8.307  -1.448  0.00  0.00     0.030 A 
HETATM   12  C           1     -21.215  -7.228  -3.565  0.00  0.00    -0.002 A 
HETATM   13  C           1     -21.526  -7.483  -0.794  0.00  0.00     0.002 A 
HETATM   14  C           1     -22.282  -6.549  -1.498  0.00  0.00     0.001 A 
HETATM   15  C           1     -22.137  -6.411  -2.884  0.00  0.00     0.014 A 
ENDBRANCH   5   6
ENDBRANCH   1   5
BRANCH   1  16
HETATM   16  N           1     -21.531  -4.184  -6.545  0.00  0.00    -0.344 N 
HETATM   17  H           1     -21.295  -3.216  -6.368  0.00  0.00     0.163 HD
HETATM   18  C           1     -22.724  -4.500  -7.139  0.00  0.00     0.249 C 
HETATM   19  O           1     -23.701  -4.702  -6.460  0.00  0.00    -0.271 OA
BRANCH  18  20
HETATM   20  C           1     -22.814  -4.597  -8.642  0.00  0.00     0.284 C 
BRANCH  20  21
HETATM   21  C           1     -21.771  -3.687  -9.275  0.00  0.00     0.155 C 
BRANCH  21  22
HETATM   22  C           1     -21.318  -4.279 -10.589  0.00  0.00     0.175 C 
HETATM   23  O           1     -20.099  -4.431 -10.817  0.00  0.00    -0.648 OA
HETATM   24  O           1     -22.162  -4.615 -11.448  0.00  0.00    -0.648 OA
ENDBRANCH  21  22
ENDBRANCH  20  21
BRANCH  20  25
HETATM   25  N           1     -24.183  -4.175  -9.089  0.00  0.00    -0.066 N 
HETATM   26  H           1     -24.140  -3.206  -9.478  0.00  0.00     0.275 HD
HETATM   27  H           1     -24.526  -4.831  -9.826  0.00  0.00     0.275 HD
HETATM   28  H           1     -24.835  -4.193  -8.273  0.00  0.00     0.275 HD
ENDBRANCH  20  25
ENDBRANCH  18  20
ENDBRANCH   1  16
TORSDOF 8
ENDMDL
MODEL 6
REMARK VINA RESULT:      -7.0      2.231      7.497
REMARK  8 active torsions:
REMARK  status: ('A' for Active; 'I' for Inactive)
REMARK    1  A    between atoms: C_1  and  C_24 
REMARK       I    between atoms: C_9  and  N_25 
REMARK    2  A    between atoms: C_9  and  C_10 
REMARK    3  A    between atoms: C_10  and  C_11 
REMARK    4  A    between atoms: C_10  and  N_15 
REMARK    5  A    between atoms: C_11  and  C_12 
REMARK    6  A    between atoms: C_18  and  C_20 
REMARK    7  A    between atoms: C_20  and  C_24 
REMARK    8  A    between atoms: C_20  and  N_25 
ROOT
HETATM    1  C           1     -19.997  -7.409  -5.310  0.00  0.00     0.190 C 
ENDROOT
BRANCH   1   2
HETATM    2  C           1     -19.053  -8.584  -5.261  0.00  0.00     0.197 C 
HETATM    3  O           1     -18.803  -9.141  -4.169  0.00  0.00    -0.646 OA
HETATM    4  O           1     -18.519  -9.002  -6.311  0.00  0.00    -0.646 OA
ENDBRANCH   1   2
BRANCH   1   5
HETATM    5  C           1     -21.391  -7.859  -4.892  0.00  0.00     0.077 C 
BRANCH   5   6
HETATM    6  C           1     -21.709  -7.306  -3.538  0.00  0.00    -0.028 A 
HETATM    7  C           1     -21.976  -5.990  -3.240  0.00  0.00     0.096 A 
HETATM    8  N           1     -22.215  -5.904  -1.894  0.00  0.00    -0.365 N 
HETATM    9  C           1     -22.109  -7.147  -1.312  0.00  0.00     0.042 A 
HETATM   10  H           1     -22.448  -5.019  -1.381  0.00  0.00     0.165 HD
HETATM   11  C           1     -22.267  -7.537   0.024  0.00  0.00     0.030 A 
HETATM   12  C           1     -21.789  -8.049  -2.327  0.00  0.00    -0.002 A 
HETATM   13  C           1     -22.094  -8.892   0.326  0.00  0.00     0.002 A 
HETATM   14  C           1     -21.775  -9.815  -0.667  0.00  0.00     0.001 A 
HETATM   15  C           1     -21.620  -9.408  -1.998  0.00  0.00     0.014 A 
ENDBRANCH   5   6
ENDBRANCH   1   5
BRANCH   1  16
HETATM   16  N           1     -20.045  -6.884  -6.661  0.00  0.00    -0.344 N 
HETATM   17  H           1     -19.993  -7.515  -7.451  0.00  0.00     0.163 HD
HETATM   18  C           1     -20.160  -5.536  -6.869  0.00  0.00     0.249 C 
HETATM   19  O           1     -19.169  -4.852  -6.962  0.00  0.00    -0.271 OA
BRANCH  18  20
HETATM   20  C           1     -21.526  -4.904  -6.980  0.00  0.00     0.284 C 
BRANCH  20  21
HETATM   21  C           1     -22.193  -5.356  -8.272  0.00  0.00     0.155 C 
BRANCH  21  22
HETATM   22  C           1     -22.633  -4.147  -9.061  0.00  0.00     0.175 C 
HETATM   23  O           1     -23.773  -3.667  -8.883  0.00  0.00    -0.648 OA
HETATM   24  O           1     -21.859  -3.627  -9.893  0.00  0.00    -0.648 OA
ENDBRANCH  21  22
ENDBRANCH  20  21
BRANCH  20  25
HETATM   25  N           1     -21.387  -3.410  -6.986  0.00  0.00    -0.066 N 
HETATM   26  H           1     -20.774  -3.113  -6.195  0.00  0.00     0.275 HD
HETATM   27  H           1     -20.962  -3.104  -7.890  0.00  0.00     0.275 HD
HETATM   28  H           1     -22.331  -2.973  -6.878  0.00  0.00     0.275 HD
ENDBRANCH  20  25
ENDBRANCH  18  20
ENDBRANCH   1  16
TORSDOF 8
ENDMDL
MODEL 7
REMARK VINA RESULT:      -7.0      3.000      4.552
REMARK  8 active torsions:
REMARK  status: ('A' for Active; 'I' for Inactive)
REMARK    1  A    between atoms: C_1  and  C_24 
REMARK       I    between atoms: C_9  and  N_25 
REMARK    2  A    between atoms: C_9  and  C_10 
REMARK    3  A    between atoms: C_10  and  C_11 
REMARK    4  A    between atoms: C_10  and  N_15 
REMARK    5  A    between atoms: C_11  and  C_12 
REMARK    6  A    between atoms: C_18  and  C_20 
REMARK    7  A    between atoms: C_20  and  C_24 
REMARK    8  A    between atoms: C_20  and  N_25 
ROOT
HETATM    1  C           1     -20.353  -9.519  -4.495  0.00  0.00     0.190 C 
ENDROOT
BRANCH   1   2
HETATM    2  C           1     -19.846 -10.678  -5.318  0.00  0.00     0.197 C 
HETATM    3  O           1     -20.390 -10.953  -6.410  0.00  0.00    -0.646 OA
HETATM    4  O           1     -18.884 -11.362  -4.909  0.00  0.00    -0.646 OA
ENDBRANCH   1   2
BRANCH   1   5
HETATM    5  C           1     -19.684  -8.233  -4.962  0.00  0.00     0.077 C 
BRANCH   5   6
HETATM    6  C           1     -20.733  -7.217  -5.294  0.00  0.00    -0.028 A 
HETATM    7  C           1     -21.982  -7.125  -4.726  0.00  0.00     0.096 A 
HETATM    8  N           1     -22.629  -6.065  -5.304  0.00  0.00    -0.365 N 
HETATM    9  C           1     -21.817  -5.465  -6.240  0.00  0.00     0.042 A 
HETATM   10  H           1     -23.603  -5.754  -5.067  0.00  0.00     0.165 HD
HETATM   11  C           1     -22.053  -4.362  -7.069  0.00  0.00     0.030 A 
HETATM   12  C           1     -20.615  -6.173  -6.253  0.00  0.00    -0.002 A 
HETATM   13  C           1     -21.026  -3.973  -7.936  0.00  0.00     0.002 A 
HETATM   14  C           1     -19.816  -4.661  -7.970  0.00  0.00     0.001 A 
HETATM   15  C           1     -19.596  -5.764  -7.135  0.00  0.00     0.014 A 
ENDBRANCH   5   6
ENDBRANCH   1   5
BRANCH   1  16
HETATM   16  N           1     -20.038  -9.746  -3.097  0.00  0.00    -0.344 N 
HETATM   17  H           1     -19.135  -9.470  -2.731  0.00  0.00     0.163 HD
HETATM   18  C           1     -20.961 -10.333  -2.273  0.00  0.00     0.249 C 
HETATM   19  O           1     -20.983 -11.534  -2.151  0.00  0.00    -0.271 OA
BRANCH  18  20
HETATM   20  C           1     -21.951  -9.478  -1.521  0.00  0.00     0.284 C 
BRANCH  20  21
HETATM   21  C           1     -21.302  -8.151  -1.154  0.00  0.00     0.155 C 
BRANCH  21  22
HETATM   22  C           1     -22.375  -7.142  -0.820  0.00  0.00     0.175 C 
HETATM   23  O           1     -22.434  -6.063  -1.448  0.00  0.00    -0.648 OA
HETATM   24  O           1     -23.202  -7.385   0.084  0.00  0.00    -0.648 OA
ENDBRANCH  21  22
ENDBRANCH  20  21
BRANCH  20  25
HETATM   25  N           1     -22.375 -10.189  -0.270  0.00  0.00    -0.066 N 
HETATM   26  H           1     -23.397 -10.040  -0.113  0.00  0.00     0.275 HD
HETATM   27  H           1     -22.184 -11.211  -0.369  0.00  0.00     0.275 HD
HETATM   28  H           1     -21.839  -9.810   0.544  0.00  0.00     0.275 HD
ENDBRANCH  20  25
ENDBRANCH  18  20
ENDBRANCH   1  16
TORSDOF 8
ENDMDL
MODEL 8
REMARK VINA RESULT:      -6.9      2.941      7.428
REMARK  8 active torsions:
REMARK  status: ('A' for Active; 'I' for Inactive)
REMARK    1  A    between atoms: C_1  and  C_24 
REMARK       I    between atoms: C_9  and  N_25 
REMARK    2  A    between atoms: C_9  and  C_10 
REMARK    3  A    between atoms: C_10  and  C_11 
REMARK    4  A    between atoms: C_10  and  N_15 
REMARK    5  A    between atoms: C_11  and  C_12 
REMARK    6  A    between atoms: C_18  and  C_20 
REMARK    7  A    between atoms: C_20  and  C_24 
REMARK    8  A    between atoms: C_20  and  N_25 
ROOT
HETATM    1  C           1     -21.287  -8.085  -2.793  0.00  0.00     0.190 C 
ENDROOT
BRANCH   1   2
HETATM    2  C           1     -22.017  -8.289  -1.489  0.00  0.00     0.197 C 
HETATM    3  O           1     -22.356  -7.300  -0.801  0.00  0.00    -0.646 OA
HETATM    4  O           1     -22.282  -9.445  -1.095  0.00  0.00    -0.646 OA
ENDBRANCH   1   2
BRANCH   1   5
HETATM    5  C           1     -19.839  -8.532  -2.641  0.00  0.00     0.077 C 
BRANCH   5   6
HETATM    6  C           1     -19.419  -9.290  -3.861  0.00  0.00    -0.028 A 
HETATM    7  C           1     -20.245  -9.723  -4.872  0.00  0.00     0.096 A 
HETATM    8  N           1     -19.471 -10.373  -5.797  0.00  0.00    -0.365 N 
HETATM    9  C           1     -18.153 -10.369  -5.401  0.00  0.00     0.042 A 
HETATM   10  H           1     -19.831 -10.811  -6.680  0.00  0.00     0.165 HD
HETATM   11  C           1     -17.020 -10.910  -6.022  0.00  0.00     0.030 A 
HETATM   12  C           1     -18.092  -9.693  -4.183  0.00  0.00    -0.002 A 
HETATM   13  C           1     -15.790 -10.750  -5.375  0.00  0.00     0.002 A 
HETATM   14  C           1     -15.700 -10.078  -4.158  0.00  0.00     0.001 A 
HETATM   15  C           1     -16.843  -9.545  -3.550  0.00  0.00     0.014 A 
ENDBRANCH   5   6
ENDBRANCH   1   5
BRANCH   1  16
HETATM   16  N           1     -21.323  -6.681  -3.153  0.00  0.00    -0.344 N 
HETATM   17  H           1     -21.133  -5.974  -2.454  0.00  0.00     0.163 HD
HETATM   18  C           1     -21.617  -6.310  -4.438  0.00  0.00     0.249 C 
HETATM   19  O           1     -22.763  -6.112  -4.763  0.00  0.00    -0.271 OA
BRANCH  18  20
HETATM   20  C           1     -20.507  -6.150  -5.448  0.00  0.00     0.284 C 
BRANCH  20  21
HETATM   21  C           1     -20.170  -4.674  -5.605  0.00  0.00     0.155 C 
BRANCH  21  22
HETATM   22  C           1     -20.594  -4.203  -6.976  0.00  0.00     0.175 C 
HETATM   23  O           1     -19.759  -4.153  -7.904  0.00  0.00    -0.648 OA
HETATM   24  O           1     -21.779  -3.864  -7.182  0.00  0.00    -0.648 OA
ENDBRANCH  21  22
ENDBRANCH  20  21
BRANCH  20  25
HETATM   25  N           1     -20.951  -6.704  -6.770  0.00  0.00    -0.066 N 
HETATM   26  H           1     -20.530  -7.650  -6.911  0.00  0.00     0.275 HD
HETATM   27  H           1     -21.993  -6.781  -6.783  0.00  0.00     0.275 HD
HETATM   28  H           1     -20.638  -6.066  -7.536  0.00  0.00     0.275 HD
ENDBRANCH  20  25
ENDBRANCH  18  20
ENDBRANCH   1  16
TORSDOF 8
ENDMDL
MODEL 9
REMARK VINA RESULT:      -6.8      2.437      7.948
REMARK  8 active torsions:
REMARK  status: ('A' for Active; 'I' for Inactive)
REMARK    1  A    between atoms: C_1  and  C_24 
REMARK       I    between atoms: C_9  and  N_25 
REMARK    2  A    between atoms: C_9  and  C_10 
REMARK    3  A    between atoms: C_10  and  C_11 
REMARK    4  A    between atoms: C_10  and  N_15 
REMARK    5  A    between atoms: C_11  and  C_12 
REMARK    6  A    between atoms: C_18  and  C_20 
REMARK    7  A    between atoms: C_20  and  C_24 
REMARK    8  A    between atoms: C_20  and  N_25 
ROOT
HETATM    1  C           1     -21.173  -7.361  -5.603  0.00  0.00     0.190 C 
ENDROOT
BRANCH   1   2
HETATM    2  C           1     -21.942  -6.298  -4.858  0.00  0.00     0.197 C 
HETATM    3  O           1     -21.389  -5.656  -3.937  0.00  0.00    -0.646 OA
HETATM    4  O           1     -23.130  -6.059  -5.161  0.00  0.00    -0.646 OA
ENDBRANCH   1   2
BRANCH   1   5
HETATM    5  C           1     -20.279  -8.118  -4.629  0.00  0.00     0.077 C 
BRANCH   5   6
HETATM    6  C           1     -21.114  -9.049  -3.805  0.00  0.00    -0.028 A 
HETATM    7  C           1     -21.714 -10.206  -4.245  0.00  0.00     0.096 A 
HETATM    8  N           1     -22.381 -10.761  -3.186  0.00  0.00    -0.365 N 
HETATM    9  C           1     -22.223  -9.981  -2.062  0.00  0.00     0.042 A 
HETATM   10  H           1     -22.933 -11.653  -3.224  0.00  0.00     0.165 HD
HETATM   11  C           1     -22.720 -10.152  -0.764  0.00  0.00     0.030 A 
HETATM   12  C           1     -21.428  -8.894  -2.426  0.00  0.00    -0.002 A 
HETATM   13  C           1     -22.391  -9.181   0.187  0.00  0.00     0.002 A 
HETATM   14  C           1     -21.598  -8.086  -0.148  0.00  0.00     0.001 A 
HETATM   15  C           1     -21.110  -7.929  -1.451  0.00  0.00     0.014 A 
ENDBRANCH   5   6
ENDBRANCH   1   5
BRANCH   1  16
HETATM   16  N           1     -20.354  -6.738  -6.625  0.00  0.00    -0.344 N 
HETATM   17  H           1     -19.634  -7.275  -7.092  0.00  0.00     0.163 HD
HETATM   18  C           1     -20.553  -5.425  -6.957  0.00  0.00     0.249 C 
HETATM   19  O           1     -19.952  -4.556  -6.372  0.00  0.00    -0.271 OA
BRANCH  18  20
HETATM   20  C           1     -21.526  -5.064  -8.052  0.00  0.00     0.284 C 
BRANCH  20  21
HETATM   21  C           1     -20.768  -4.469  -9.231  0.00  0.00     0.155 C 
BRANCH  21  22
HETATM   22  C           1     -21.743  -4.107 -10.325  0.00  0.00     0.175 C 
HETATM   23  O           1     -22.781  -4.785 -10.486  0.00  0.00    -0.648 OA
HETATM   24  O           1     -21.513  -3.130 -11.070  0.00  0.00    -0.648 OA
ENDBRANCH  21  22
ENDBRANCH  20  21
BRANCH  20  25
HETATM   25  N           1     -22.512  -4.058  -7.533  0.00  0.00    -0.066 N 
HETATM   26  H           1     -23.468  -4.297  -7.879  0.00  0.00     0.275 HD
HETATM   27  H           1     -22.505  -4.072  -6.489  0.00  0.00     0.275 HD
HETATM   28  H           1     -22.247  -3.106  -7.873  0.00  0.00     0.275 HD
ENDBRANCH  20  25
ENDBRANCH  18  20
ENDBRANCH   1  16
TORSDOF 8
ENDMDL
