MODEL 1
REMARK VINA RESULT:      -5.5      0.000      0.000
REMARK  7 active torsions:
REMARK  status: ('A' for Active; 'I' for Inactive)
REMARK    1  A    between atoms: C_3  and  C_24 
REMARK    2  A    between atoms: C_8  and  C_9 
REMARK    3  A    between atoms: C_8  and  C_22 
REMARK    4  A    between atoms: C_9  and  C_18 
REMARK    5  A    between atoms: C_12  and  C_22 
REMARK    6  A    between atoms: N_17  and  C_18 
REMARK    7  A    between atoms: C_22  and  N_23 
REMARK       I    between atoms: N_23  and  C_24 
ROOT
HETATM    1  O           1     -22.926  -2.855  -8.917  0.00  0.00    -0.271 OA
HETATM    2  H           1     -22.353  -5.826  -8.088  0.00  0.00     0.163 HD
HETATM    3  N           1     -22.209  -4.826  -8.150  0.00  0.00    -0.345 N 
HETATM    4  C           1     -23.098  -4.049  -8.841  0.00  0.00     0.249 C 
ENDROOT
BRANCH   3   5
HETATM    5  C           1     -21.059  -4.218  -7.510  0.00  0.00     0.185 C 
BRANCH   5   6
HETATM    6  C           1     -20.836  -4.864  -6.149  0.00  0.00     0.038 C 
BRANCH   6   7
HETATM    7  C           1     -20.864  -6.381  -6.295  0.00  0.00     0.030 C 
BRANCH   7   8
HETATM    8  C           1     -21.643  -6.989  -5.137  0.00  0.00     0.230 C 
BRANCH   8   9
HETATM    9  N           1     -22.903  -6.206  -4.916  0.00  0.00    -0.079 N 
HETATM   10  H           1     -23.446  -6.633  -4.133  0.00  0.00     0.274 HD
HETATM   11  H           1     -23.479  -6.219  -5.789  0.00  0.00     0.274 HD
HETATM   12  H           1     -22.663  -5.218  -4.674  0.00  0.00     0.274 HD
ENDBRANCH   8   9
ENDBRANCH   7   8
ENDBRANCH   6   7
ENDBRANCH   5   6
BRANCH   5  13
HETATM   13  C           1     -19.837  -4.421  -8.371  0.00  0.00     0.196 C 
HETATM   14  O           1     -19.961  -4.824  -9.548  0.00  0.00    -0.646 OA
HETATM   15  O           1     -18.700  -4.187  -7.908  0.00  0.00    -0.646 OA
ENDBRANCH   5  13
ENDBRANCH   3   5
BRANCH   4  16
HETATM   16  C           1     -24.295  -4.682  -9.508  0.00  0.00     0.274 C 
HETATM   17  C           1     -23.835  -5.487 -10.717  0.00  0.00     0.042 C 
HETATM   18  C           1     -23.133  -4.564 -11.704  0.00  0.00     0.003 C 
HETATM   19 Se           1     -24.366  -3.170 -12.284  0.00  0.00     0.000 Se
HETATM   20  C           1     -23.084  -2.298 -13.464  0.00  0.00     0.000 C 
HETATM   21  H           1     -24.761  -2.977 -10.631  0.00  0.00     0.275 HD
HETATM   22  N           1     -25.244  -3.609  -9.954  0.00  0.00    -0.067 N 
HETATM   23  H           1     -25.559  -3.058  -9.124  0.00  0.00     0.275 HD
HETATM   24  H           1     -26.072  -4.047 -10.416  0.00  0.00     0.275 HD
ENDBRANCH   4  16
TORSDOF 7
ENDMDL
MODEL 2
REMARK VINA RESULT:      -5.1      3.300      4.804
REMARK  7 active torsions:
REMARK  status: ('A' for Active; 'I' for Inactive)
REMARK    1  A    between atoms: C_3  and  C_24 
REMARK    2  A    between atoms: C_8  and  C_9 
REMARK    3  A    between atoms: C_8  and  C_22 
REMARK    4  A    between atoms: C_9  and  C_18 
REMARK    5  A    between atoms: C_12  and  C_22 
REMARK    6  A    between atoms: N_17  and  C_18 
REMARK    7  A    between atoms: C_22  and  N_23 
REMARK       I    between atoms: N_23  and  C_24 
ROOT
HETATM    1  O           1     -21.036  -6.693  -7.150  0.00  0.00    -0.271 OA
HETATM    2  H           1     -20.519  -4.993  -4.565  0.00  0.00     0.163 HD
HETATM    3  N           1     -20.795  -5.792  -5.121  0.00  0.00    -0.345 N 
HETATM    4  C           1     -20.705  -5.740  -6.486  0.00  0.00     0.249 C 
ENDROOT
BRANCH   3   5
HETATM    5  C           1     -21.287  -6.992  -4.473  0.00  0.00     0.185 C 
BRANCH   5   6
HETATM    6  C           1     -20.230  -8.086  -4.562  0.00  0.00     0.038 C 
BRANCH   6   7
HETATM    7  C           1     -20.898  -9.412  -4.903  0.00  0.00     0.030 C 
BRANCH   7   8
HETATM    8  C           1     -20.467 -10.471  -3.899  0.00  0.00     0.230 C 
BRANCH   8   9
HETATM    9  N           1     -21.134 -10.214  -2.581  0.00  0.00    -0.079 N 
HETATM   10  H           1     -21.082  -9.195  -2.357  0.00  0.00     0.274 HD
HETATM   11  H           1     -20.651 -10.761  -1.833  0.00  0.00     0.274 HD
HETATM   12  H           1     -22.136 -10.507  -2.634  0.00  0.00     0.274 HD
ENDBRANCH   8   9
ENDBRANCH   7   8
ENDBRANCH   6   7
ENDBRANCH   5   6
BRANCH   5  13
HETATM   13  C           1     -21.584  -6.695  -3.024  0.00  0.00     0.196 C 
HETATM   14  O           1     -22.551  -5.963  -2.721  0.00  0.00    -0.646 OA
HETATM   15  O           1     -20.863  -7.182  -2.126  0.00  0.00    -0.646 OA
ENDBRANCH   5  13
ENDBRANCH   3   5
BRANCH   4  16
HETATM   16  C           1     -20.194  -4.490  -7.161  0.00  0.00     0.274 C 
HETATM   17  C           1     -21.282  -3.425  -7.149  0.00  0.00     0.042 C 
HETATM   18  C           1     -22.506  -3.939  -7.895  0.00  0.00     0.003 C 
HETATM   19 Se           1     -22.021  -4.350  -9.737  0.00  0.00     0.000 Se
HETATM   20  C           1     -23.808  -4.935 -10.250  0.00  0.00     0.000 C 
HETATM   21  H           1     -20.661  -5.160  -9.090  0.00  0.00     0.275 HD
HETATM   22  N           1     -19.820  -4.806  -8.580  0.00  0.00    -0.067 N 
HETATM   23  H           1     -19.074  -5.537  -8.587  0.00  0.00     0.275 HD
HETATM   24  H           1     -19.467  -3.942  -9.047  0.00  0.00     0.275 HD
ENDBRANCH   4  16
TORSDOF 7
ENDMDL
MODEL 3
REMARK VINA RESULT:      -5.0     18.099     20.168
REMARK  7 active torsions:
REMARK  status: ('A' for Active; 'I' for Inactive)
REMARK    1  A    between atoms: C_3  and  C_24 
REMARK    2  A    between atoms: C_8  and  C_9 
REMARK    3  A    between atoms: C_8  and  C_22 
REMARK    4  A    between atoms: C_9  and  C_18 
REMARK    5  A    between atoms: C_12  and  C_22 
REMARK    6  A    between atoms: N_17  and  C_18 
REMARK    7  A    between atoms: C_22  and  N_23 
REMARK       I    between atoms: N_23  and  C_24 
ROOT
HETATM    1  O           1     -11.625   5.370 -18.878  0.00  0.00    -0.271 OA
HETATM    2  H           1     -10.246   6.842 -21.281  0.00  0.00     0.163 HD
HETATM    3  N           1     -10.711   6.739 -20.388  0.00  0.00    -0.345 N 
HETATM    4  C           1     -11.069   5.494 -19.944  0.00  0.00     0.249 C 
ENDROOT
BRANCH   3   5
HETATM    5  C           1     -10.999   7.907 -19.580  0.00  0.00     0.185 C 
BRANCH   5   6
HETATM    6  C           1     -10.012   9.016 -19.923  0.00  0.00     0.038 C 
BRANCH   6   7
HETATM    7  C           1      -9.142   8.579 -21.094  0.00  0.00     0.030 C 
BRANCH   7   8
HETATM    8  C           1      -9.306   9.563 -22.244  0.00  0.00     0.230 C 
BRANCH   8   9
HETATM    9  N           1     -10.642   9.355 -22.894  0.00  0.00    -0.079 N 
HETATM   10  H           1     -10.860  10.171 -23.509  0.00  0.00     0.274 HD
HETATM   11  H           1     -11.378   9.267 -22.156  0.00  0.00     0.274 HD
HETATM   12  H           1     -10.619   8.483 -23.468  0.00  0.00     0.274 HD
ENDBRANCH   8   9
ENDBRANCH   7   8
ENDBRANCH   6   7
ENDBRANCH   5   6
BRANCH   5  13
HETATM   13  C           1     -12.404   8.379 -19.862  0.00  0.00     0.196 C 
HETATM   14  O           1     -12.832   8.405 -21.036  0.00  0.00    -0.646 OA
HETATM   15  O           1     -13.142   8.744 -18.920  0.00  0.00    -0.646 OA
ENDBRANCH   5  13
ENDBRANCH   3   5
BRANCH   4  16
HETATM   16  C           1     -10.769   4.278 -20.785  0.00  0.00     0.274 C 
HETATM   17  C           1     -10.927   4.628 -22.259  0.00  0.00     0.042 C 
HETATM   18  C           1     -12.354   5.088 -22.523  0.00  0.00     0.003 C 
HETATM   19 Se           1     -13.595   3.658 -22.060  0.00  0.00     0.000 Se
HETATM   20  C           1     -15.192   4.665 -22.542  0.00  0.00     0.000 C 
HETATM   21  H           1     -12.704   3.494 -20.610  0.00  0.00     0.275 HD
HETATM   22  N           1     -11.725   3.177 -20.429  0.00  0.00    -0.067 N 
HETATM   23  H           1     -11.616   2.937 -19.418  0.00  0.00     0.275 HD
HETATM   24  H           1     -11.518   2.334 -21.011  0.00  0.00     0.275 HD
ENDBRANCH   4  16
TORSDOF 7
ENDMDL
MODEL 4
REMARK VINA RESULT:      -5.0      4.966      7.906
REMARK  7 active torsions:
REMARK  status: ('A' for Active; 'I' for Inactive)
REMARK    1  A    between atoms: C_3  and  C_24 
REMARK    2  A    between atoms: C_8  and  C_9 
REMARK    3  A    between atoms: C_8  and  C_22 
REMARK    4  A    between atoms: C_9  and  C_18 
REMARK    5  A    between atoms: C_12  and  C_22 
REMARK    6  A    between atoms: N_17  and  C_18 
REMARK    7  A    between atoms: C_22  and  N_23 
REMARK       I    between atoms: N_23  and  C_24 
ROOT
HETATM    1  O           1     -19.352  -8.618  -3.970  0.00  0.00    -0.271 OA
HETATM    2  H           1     -21.356  -8.472  -6.378  0.00  0.00     0.163 HD
HETATM    3  N           1     -20.766  -8.134  -5.629  0.00  0.00    -0.345 N 
HETATM    4  C           1     -20.056  -9.021  -4.865  0.00  0.00     0.249 C 
ENDROOT
BRANCH   3   5
HETATM    5  C           1     -20.672  -6.712  -5.364  0.00  0.00     0.185 C 
BRANCH   5   6
HETATM    6  C           1     -20.642  -5.951  -6.684  0.00  0.00     0.038 C 
BRANCH   6   7
HETATM    7  C           1     -20.400  -4.472  -6.413  0.00  0.00     0.030 C 
BRANCH   7   8
HETATM    8  C           1     -21.227  -3.636  -7.380  0.00  0.00     0.230 C 
BRANCH   8   9
HETATM    9  N           1     -22.652  -4.104  -7.354  0.00  0.00    -0.079 N 
HETATM   10  H           1     -23.067  -3.904  -6.417  0.00  0.00     0.274 HD
HETATM   11  H           1     -22.683  -5.133  -7.538  0.00  0.00     0.274 HD
HETATM   12  H           1     -23.197  -3.603  -8.090  0.00  0.00     0.274 HD
ENDBRANCH   8   9
ENDBRANCH   7   8
ENDBRANCH   6   7
ENDBRANCH   5   6
BRANCH   5  13
HETATM   13  C           1     -21.867  -6.271  -4.556  0.00  0.00     0.196 C 
HETATM   14  O           1     -22.991  -6.186  -5.097  0.00  0.00    -0.646 OA
HETATM   15  O           1     -21.734  -5.991  -3.345  0.00  0.00    -0.646 OA
ENDBRANCH   5  13
ENDBRANCH   3   5
BRANCH   4  16
HETATM   16  C           1     -20.154 -10.501  -5.140  0.00  0.00     0.274 C 
HETATM   17  C           1     -21.599 -10.954  -4.973  0.00  0.00     0.042 C 
HETATM   18  C           1     -22.059 -10.672  -3.549  0.00  0.00     0.003 C 
HETATM   19 Se           1     -20.925 -11.641  -2.294  0.00  0.00     0.000 Se
HETATM   20  C           1     -21.854 -10.998  -0.706  0.00  0.00     0.000 C 
HETATM   21  H           1     -19.598 -11.053  -3.198  0.00  0.00     0.275 HD
HETATM   22  N           1     -19.282 -11.248  -4.174  0.00  0.00    -0.067 N 
HETATM   23  H           1     -18.291 -10.937  -4.289  0.00  0.00     0.275 HD
HETATM   24  H           1     -19.349 -12.273  -4.364  0.00  0.00     0.275 HD
ENDBRANCH   4  16
TORSDOF 7
ENDMDL
MODEL 5
REMARK VINA RESULT:      -4.9      5.891      8.092
REMARK  7 active torsions:
REMARK  status: ('A' for Active; 'I' for Inactive)
REMARK    1  A    between atoms: C_3  and  C_24 
REMARK    2  A    between atoms: C_8  and  C_9 
REMARK    3  A    between atoms: C_8  and  C_22 
REMARK    4  A    between atoms: C_9  and  C_18 
REMARK    5  A    between atoms: C_12  and  C_22 
REMARK    6  A    between atoms: N_17  and  C_18 
REMARK    7  A    between atoms: C_22  and  N_23 
REMARK       I    between atoms: N_23  and  C_24 
ROOT
HETATM    1  O           1     -21.436 -10.865  -4.658  0.00  0.00    -0.271 OA
HETATM    2  H           1     -19.572  -8.606  -5.782  0.00  0.00     0.163 HD
HETATM    3  N           1     -20.354  -9.015  -5.288  0.00  0.00    -0.345 N 
HETATM    4  C           1     -20.501 -10.376  -5.247  0.00  0.00     0.249 C 
ENDROOT
BRANCH   3   5
HETATM    5  C           1     -21.322  -8.162  -4.627  0.00  0.00     0.185 C 
BRANCH   5   6
HETATM    6  C           1     -20.778  -7.736  -3.269  0.00  0.00     0.038 C 
BRANCH   6   7
HETATM    7  C           1     -21.698  -8.249  -2.169  0.00  0.00     0.030 C 
BRANCH   7   8
HETATM    8  C           1     -22.061  -7.103  -1.235  0.00  0.00     0.230 C 
BRANCH   8   9
HETATM    9  N           1     -22.361  -5.875  -2.042  0.00  0.00    -0.079 N 
HETATM   10  H           1     -21.481  -5.524  -2.482  0.00  0.00     0.274 HD
HETATM   11  H           1     -22.758  -5.137  -1.418  0.00  0.00     0.274 HD
HETATM   12  H           1     -23.054  -6.108  -2.788  0.00  0.00     0.274 HD
ENDBRANCH   8   9
ENDBRANCH   7   8
ENDBRANCH   6   7
ENDBRANCH   5   6
BRANCH   5  13
HETATM   13  C           1     -21.576  -6.940  -5.473  0.00  0.00     0.196 C 
HETATM   14  O           1     -21.123  -6.879  -6.637  0.00  0.00    -0.646 OA
HETATM   15  O           1     -22.241  -5.987  -5.012  0.00  0.00    -0.646 OA
ENDBRANCH   5  13
ENDBRANCH   3   5
BRANCH   4  16
HETATM   16  C           1     -19.494 -11.264  -5.936  0.00  0.00     0.274 C 
HETATM   17  C           1     -18.875 -12.215  -4.919  0.00  0.00     0.042 C 
HETATM   18  C           1     -18.180 -11.410  -3.829  0.00  0.00     0.003 C 
HETATM   19 Se           1     -16.781 -10.310  -4.624  0.00  0.00     0.000 Se
HETATM   20  C           1     -16.216  -9.519  -2.935  0.00  0.00     0.000 C 
HETATM   21  H           1     -17.941  -9.866  -5.799  0.00  0.00     0.275 HD
HETATM   22  N           1     -18.417 -10.417  -6.548  0.00  0.00    -0.067 N 
HETATM   23  H           1     -18.842  -9.766  -7.245  0.00  0.00     0.275 HD
HETATM   24  H           1     -17.720 -11.032  -7.025  0.00  0.00     0.275 HD
ENDBRANCH   4  16
TORSDOF 7
ENDMDL
MODEL 6
REMARK VINA RESULT:      -4.9      7.257      8.549
REMARK  7 active torsions:
REMARK  status: ('A' for Active; 'I' for Inactive)
REMARK    1  A    between atoms: C_3  and  C_24 
REMARK    2  A    between atoms: C_8  and  C_9 
REMARK    3  A    between atoms: C_8  and  C_22 
REMARK    4  A    between atoms: C_9  and  C_18 
REMARK    5  A    between atoms: C_12  and  C_22 
REMARK    6  A    between atoms: N_17  and  C_18 
REMARK    7  A    between atoms: C_22  and  N_23 
REMARK       I    between atoms: N_23  and  C_24 
ROOT
HETATM    1  O           1     -22.279 -10.318  -3.578  0.00  0.00    -0.271 OA
HETATM    2  H           1     -20.210  -7.969  -3.782  0.00  0.00     0.163 HD
HETATM    3  N           1     -20.982  -8.509  -3.410  0.00  0.00    -0.345 N 
HETATM    4  C           1     -21.357  -9.675  -4.021  0.00  0.00     0.249 C 
ENDROOT
BRANCH   3   5
HETATM    5  C           1     -21.691  -8.045  -2.234  0.00  0.00     0.185 C 
BRANCH   5   6
HETATM    6  C           1     -20.814  -8.243  -1.003  0.00  0.00     0.038 C 
BRANCH   6   7
HETATM    7  C           1     -21.429  -9.311  -0.107  0.00  0.00     0.030 C 
BRANCH   7   8
HETATM    8  C           1     -22.947  -9.219  -0.175  0.00  0.00     0.230 C 
BRANCH   8   9
HETATM    9  N           1     -23.418  -8.077   0.677  0.00  0.00    -0.079 N 
HETATM   10  H           1     -23.558  -7.232   0.080  0.00  0.00     0.274 HD
HETATM   11  H           1     -22.702  -7.873   1.411  0.00  0.00     0.274 HD
HETATM   12  H           1     -24.322  -8.333   1.135  0.00  0.00     0.274 HD
ENDBRANCH   8   9
ENDBRANCH   7   8
ENDBRANCH   6   7
ENDBRANCH   5   6
BRANCH   5  13
HETATM   13  C           1     -22.019  -6.581  -2.388  0.00  0.00     0.196 C 
HETATM   14  O           1     -21.912  -6.030  -3.505  0.00  0.00    -0.646 OA
HETATM   15  O           1     -22.400  -5.918  -1.399  0.00  0.00    -0.646 OA
ENDBRANCH   5  13
ENDBRANCH   3   5
BRANCH   4  16
HETATM   16  C           1     -20.620 -10.156  -5.246  0.00  0.00     0.274 C 
HETATM   17  C           1     -19.898 -11.459  -4.925  0.00  0.00     0.042 C 
HETATM   18  C           1     -18.905 -11.224  -3.795  0.00  0.00     0.003 C 
HETATM   19 Se           1     -17.604  -9.879  -4.340  0.00  0.00     0.000 Se
HETATM   20  C           1     -16.610  -9.925  -2.664  0.00  0.00     0.000 C 
HETATM   21  H           1     -18.938  -8.960  -4.889  0.00  0.00     0.275 HD
HETATM   22  N           1     -19.618  -9.120  -5.665  0.00  0.00    -0.067 N 
HETATM   23  H           1     -20.114  -8.227  -5.885  0.00  0.00     0.275 HD
HETATM   24  H           1     -19.108  -9.453  -6.514  0.00  0.00     0.275 HD
ENDBRANCH   4  16
TORSDOF 7
ENDMDL
MODEL 7
REMARK VINA RESULT:      -4.7      6.933      9.321
REMARK  7 active torsions:
REMARK  status: ('A' for Active; 'I' for Inactive)
REMARK    1  A    between atoms: C_3  and  C_24 
REMARK    2  A    between atoms: C_8  and  C_9 
REMARK    3  A    between atoms: C_8  and  C_22 
REMARK    4  A    between atoms: C_9  and  C_18 
REMARK    5  A    between atoms: C_12  and  C_22 
REMARK    6  A    between atoms: N_17  and  C_18 
REMARK    7  A    between atoms: C_22  and  N_23 
REMARK       I    between atoms: N_23  and  C_24 
ROOT
HETATM    1  O           1     -18.975 -11.429  -3.475  0.00  0.00    -0.271 OA
HETATM    2  H           1     -18.848  -8.415  -2.612  0.00  0.00     0.163 HD
HETATM    3  N           1     -19.228  -9.255  -3.029  0.00  0.00    -0.345 N 
HETATM    4  C           1     -18.522 -10.426  -2.976  0.00  0.00     0.249 C 
ENDROOT
BRANCH   3   5
HETATM    5  C           1     -20.521  -9.217  -3.684  0.00  0.00     0.185 C 
BRANCH   5   6
HETATM    6  C           1     -21.595  -8.857  -2.666  0.00  0.00     0.038 C 
BRANCH   6   7
HETATM    7  C           1     -21.013  -7.906  -1.628  0.00  0.00     0.030 C 
BRANCH   7   8
HETATM    8  C           1     -22.090  -6.933  -1.170  0.00  0.00     0.230 C 
BRANCH   8   9
HETATM    9  N           1     -22.389  -5.962  -2.274  0.00  0.00    -0.079 N 
HETATM   10  H           1     -23.216  -6.296  -2.817  0.00  0.00     0.274 HD
HETATM   11  H           1     -21.561  -5.889  -2.907  0.00  0.00     0.274 HD
HETATM   12  H           1     -22.598  -5.023  -1.865  0.00  0.00     0.274 HD
ENDBRANCH   8   9
ENDBRANCH   7   8
ENDBRANCH   6   7
ENDBRANCH   5   6
BRANCH   5  13
HETATM   13  C           1     -20.499  -8.183  -4.781  0.00  0.00     0.196 C 
HETATM   14  O           1     -21.441  -7.368  -4.892  0.00  0.00    -0.646 OA
HETATM   15  O           1     -19.538  -8.138  -5.580  0.00  0.00    -0.646 OA
ENDBRANCH   5  13
ENDBRANCH   3   5
BRANCH   4  16
HETATM   16  C           1     -17.175 -10.465  -2.295  0.00  0.00     0.274 C 
HETATM   17  C           1     -16.230  -9.489  -2.983  0.00  0.00     0.042 C 
HETATM   18  C           1     -16.069  -9.883  -4.445  0.00  0.00     0.003 C 
HETATM   19 Se           1     -15.337 -11.686  -4.558  0.00  0.00     0.000 Se
HETATM   20  C           1     -15.317 -11.732  -6.506  0.00  0.00     0.000 C 
HETATM   21  H           1     -16.502 -12.121  -3.385  0.00  0.00     0.275 HD
HETATM   22  N           1     -16.611 -11.853  -2.381  0.00  0.00    -0.067 N 
HETATM   23  H           1     -17.261 -12.521  -1.909  0.00  0.00     0.275 HD
HETATM   24  H           1     -15.680 -11.880  -1.910  0.00  0.00     0.275 HD
ENDBRANCH   4  16
TORSDOF 7
ENDMDL
MODEL 8
REMARK VINA RESULT:      -4.7      8.202     11.067
REMARK  7 active torsions:
REMARK  status: ('A' for Active; 'I' for Inactive)
REMARK    1  A    between atoms: C_3  and  C_24 
REMARK    2  A    between atoms: C_8  and  C_9 
REMARK    3  A    between atoms: C_8  and  C_22 
REMARK    4  A    between atoms: C_9  and  C_18 
REMARK    5  A    between atoms: C_12  and  C_22 
REMARK    6  A    between atoms: N_17  and  C_18 
REMARK    7  A    between atoms: C_22  and  N_23 
REMARK       I    between atoms: N_23  and  C_24 
ROOT
HETATM    1  O           1     -20.537 -11.625  -0.814  0.00  0.00    -0.271 OA
HETATM    2  H           1     -22.619  -9.494  -1.796  0.00  0.00     0.163 HD
HETATM    3  N           1     -21.779  -9.851  -1.358  0.00  0.00    -0.345 N 
HETATM    4  C           1     -21.539 -11.198  -1.337  0.00  0.00     0.249 C 
ENDROOT
BRANCH   3   5
HETATM    5  C           1     -20.832  -8.936  -0.751  0.00  0.00     0.185 C 
BRANCH   5   6
HETATM    6  C           1     -20.457  -7.854  -1.756  0.00  0.00     0.038 C 
BRANCH   6   7
HETATM    7  C           1     -21.384  -7.938  -2.962  0.00  0.00     0.030 C 
BRANCH   7   8
HETATM    8  C           1     -21.852  -6.539  -3.341  0.00  0.00     0.230 C 
BRANCH   8   9
HETATM    9  N           1     -22.299  -5.811  -2.108  0.00  0.00    -0.079 N 
HETATM   10  H           1     -21.473  -5.622  -1.497  0.00  0.00     0.274 HD
HETATM   11  H           1     -22.991  -6.396  -1.589  0.00  0.00     0.274 HD
HETATM   12  H           1     -22.744  -4.905  -2.380  0.00  0.00     0.274 HD
ENDBRANCH   8   9
ENDBRANCH   7   8
ENDBRANCH   6   7
ENDBRANCH   5   6
BRANCH   5  13
HETATM   13  C           1     -21.457  -8.300   0.465  0.00  0.00     0.196 C 
HETATM   14  O           1     -20.955  -8.485   1.596  0.00  0.00    -0.646 OA
HETATM   15  O           1     -22.476  -7.586   0.344  0.00  0.00    -0.646 OA
ENDBRANCH   5  13
ENDBRANCH   3   5
BRANCH   4  16
HETATM   16  C           1     -22.525 -12.151  -1.968  0.00  0.00     0.274 C 
HETATM   17  C           1     -23.866 -12.041  -1.253  0.00  0.00     0.042 C 
HETATM   18  C           1     -23.688 -12.396   0.217  0.00  0.00     0.003 C 
HETATM   19 Se           1     -23.018 -14.219   0.371  0.00  0.00     0.000 Se
HETATM   20  C           1     -22.958 -14.208   2.319  0.00  0.00     0.000 C 
HETATM   21  H           1     -21.887 -13.797  -0.841  0.00  0.00     0.275 HD
HETATM   22  N           1     -22.009 -13.555  -1.850  0.00  0.00    -0.067 N 
HETATM   23  H           1     -21.090 -13.629  -2.341  0.00  0.00     0.275 HD
HETATM   24  H           1     -22.692 -14.214  -2.286  0.00  0.00     0.275 HD
ENDBRANCH   4  16
TORSDOF 7
ENDMDL
MODEL 9
REMARK VINA RESULT:      -4.6     18.211     19.750
REMARK  7 active torsions:
REMARK  status: ('A' for Active; 'I' for Inactive)
REMARK    1  A    between atoms: C_3  and  C_24 
REMARK    2  A    between atoms: C_8  and  C_9 
REMARK    3  A    between atoms: C_8  and  C_22 
REMARK    4  A    between atoms: C_9  and  C_18 
REMARK    5  A    between atoms: C_12  and  C_22 
REMARK    6  A    between atoms: N_17  and  C_18 
REMARK    7  A    between atoms: C_22  and  N_23 
REMARK       I    between atoms: N_23  and  C_24 
ROOT
HETATM    1  O           1     -11.540   6.519 -22.390  0.00  0.00    -0.271 OA
HETATM    2  H           1     -13.243   7.886 -20.137  0.00  0.00     0.163 HD
HETATM    3  N           1     -12.444   7.716 -20.735  0.00  0.00    -0.345 N 
HETATM    4  C           1     -12.494   6.723 -21.676  0.00  0.00     0.249 C 
ENDROOT
BRANCH   3   5
HETATM    5  C           1     -11.247   8.521 -20.593  0.00  0.00     0.185 C 
BRANCH   5   6
HETATM    6  C           1     -11.624   9.997 -20.608  0.00  0.00     0.038 C 
BRANCH   6   7
HETATM    7  C           1     -13.141  10.134 -20.576  0.00  0.00     0.030 C 
BRANCH   7   8
HETATM    8  C           1     -13.558  10.879 -19.316  0.00  0.00     0.230 C 
BRANCH   8   9
HETATM    9  N           1     -13.592   9.925 -18.159  0.00  0.00    -0.079 N 
HETATM   10  H           1     -13.502  10.459 -17.265  0.00  0.00     0.274 HD
HETATM   11  H           1     -12.800   9.248 -18.243  0.00  0.00     0.274 HD
HETATM   12  H           1     -14.498   9.404 -18.163  0.00  0.00     0.274 HD
ENDBRANCH   8   9
ENDBRANCH   7   8
ENDBRANCH   6   7
ENDBRANCH   5   6
BRANCH   5  13
HETATM   13  C           1     -10.568   8.188 -19.288  0.00  0.00     0.196 C 
HETATM   14  O           1     -10.438   9.066 -18.408  0.00  0.00    -0.646 OA
HETATM   15  O           1     -10.136   7.032 -19.085  0.00  0.00    -0.646 OA
ENDBRANCH   5  13
ENDBRANCH   3   5
BRANCH   4  16
HETATM   16  C           1     -13.740   5.884 -21.823  0.00  0.00     0.274 C 
HETATM   17  C           1     -14.038   5.182 -20.505  0.00  0.00     0.042 C 
HETATM   18  C           1     -12.865   4.287 -20.130  0.00  0.00     0.003 C 
HETATM   19 Se           1     -12.589   2.955 -21.526  0.00  0.00     0.000 Se
HETATM   20  C           1     -11.076   2.102 -20.642  0.00  0.00     0.000 C 
HETATM   21  H           1     -12.723   4.246 -22.640  0.00  0.00     0.275 HD
HETATM   22  N           1     -13.528   4.859 -22.899  0.00  0.00    -0.067 N 
HETATM   23  H           1     -13.323   5.342 -23.803  0.00  0.00     0.275 HD
HETATM   24  H           1     -14.390   4.278 -23.001  0.00  0.00     0.275 HD
ENDBRANCH   4  16
TORSDOF 7
ENDMDL
