MODEL 1
REMARK VINA RESULT:      -8.0      0.000      0.000
REMARK  6 active torsions:
REMARK  status: ('A' for Active; 'I' for Inactive)
REMARK    1  A    between atoms: C_1  and  C_21 
REMARK    2  A    between atoms: C_4  and  C_5 
REMARK    3  A    between atoms: C_5  and  C_23 
REMARK    4  A    between atoms: N_9  and  C_23 
REMARK    5  A    between atoms: C_21  and  N_22 
REMARK       I    between atoms: N_22  and  C_24 
REMARK    6  A    between atoms: C_23  and  C_24 
ROOT
HETATM    1  C           1     -21.163  -5.896  -6.923  0.00  0.00     0.278 C 
ENDROOT
BRANCH   1   2
HETATM    2  C           1     -21.093  -5.620  -5.427  0.00  0.00     0.083 C 
BRANCH   2   3
HETATM    3  C           1     -21.166  -6.913  -4.677  0.00  0.00    -0.028 A 
HETATM    4  C           1     -20.883  -8.161  -5.181  0.00  0.00     0.096 A 
HETATM    5  N           1     -21.073  -9.073  -4.176  0.00  0.00    -0.365 N 
HETATM    6  H           1     -20.931 -10.108  -4.270  0.00  0.00     0.165 HD
HETATM    7  C           1     -21.475  -8.434  -3.025  0.00  0.00     0.042 A 
HETATM    8  C           1     -21.542  -7.071  -3.314  0.00  0.00    -0.002 A 
HETATM    9  C           1     -21.783  -8.955  -1.761  0.00  0.00     0.030 A 
HETATM   10  C           1     -21.935  -6.181  -2.296  0.00  0.00     0.014 A 
HETATM   11  C           1     -22.246  -6.684  -1.027  0.00  0.00     0.001 A 
HETATM   12  C           1     -22.170  -8.050  -0.767  0.00  0.00     0.002 A 
ENDBRANCH   2   3
ENDBRANCH   1   2
BRANCH   1  13
HETATM   13  N           1     -19.782  -6.158  -7.448  0.00  0.00    -0.066 N 
HETATM   14  H           1     -19.667  -5.691  -8.377  0.00  0.00     0.275 HD
HETATM   15  H           1     -19.077  -5.776  -6.778  0.00  0.00     0.275 HD
HETATM   16  H           1     -19.640  -7.188  -7.555  0.00  0.00     0.275 HD
ENDBRANCH   1  13
BRANCH   1  17
HETATM   17  C           1     -21.750  -4.700  -7.630  0.00  0.00     0.249 C 
HETATM   18  O           1     -21.828  -3.638  -7.057  0.00  0.00    -0.271 OA
HETATM   19  N           1     -22.194  -4.815  -8.919  0.00  0.00    -0.345 N 
HETATM   20  H           1     -22.129  -5.705  -9.399  0.00  0.00     0.163 HD
BRANCH  19  21
HETATM   21  C           1     -22.758  -3.664  -9.598  0.00  0.00     0.181 C 
HETATM   22  C           1     -22.168  -3.560 -10.997  0.00  0.00     0.043 C 
BRANCH  21  23
HETATM   23  C           1     -24.255  -3.823  -9.694  0.00  0.00     0.196 C 
HETATM   24  O           1     -24.752  -4.948  -9.917  0.00  0.00    -0.646 OA
HETATM   25  O           1     -24.999  -2.829  -9.550  0.00  0.00    -0.646 OA
ENDBRANCH  21  23
ENDBRANCH  19  21
ENDBRANCH   1  17
TORSDOF 6
ENDMDL
MODEL 2
REMARK VINA RESULT:      -7.9      2.719      7.593
REMARK  6 active torsions:
REMARK  status: ('A' for Active; 'I' for Inactive)
REMARK    1  A    between atoms: C_1  and  C_21 
REMARK    2  A    between atoms: C_4  and  C_5 
REMARK    3  A    between atoms: C_5  and  C_23 
REMARK    4  A    between atoms: N_9  and  C_23 
REMARK    5  A    between atoms: C_21  and  N_22 
REMARK       I    between atoms: N_22  and  C_24 
REMARK    6  A    between atoms: C_23  and  C_24 
ROOT
HETATM    1  C           1     -22.161  -5.270  -6.639  0.00  0.00     0.278 C 
ENDROOT
BRANCH   1   2
HETATM    2  C           1     -21.572  -3.968  -7.167  0.00  0.00     0.083 C 
BRANCH   2   3
HETATM    3  C           1     -21.333  -4.089  -8.640  0.00  0.00    -0.028 A 
HETATM    4  C           1     -20.148  -4.441  -9.243  0.00  0.00     0.096 A 
HETATM    5  N           1     -20.348  -4.434 -10.598  0.00  0.00    -0.365 N 
HETATM    6  H           1     -19.617  -4.665 -11.315  0.00  0.00     0.165 HD
HETATM    7  C           1     -21.648  -4.080 -10.885  0.00  0.00     0.042 A 
HETATM    8  C           1     -22.290  -3.857  -9.666  0.00  0.00    -0.002 A 
HETATM    9  C           1     -22.297  -3.942 -12.118  0.00  0.00     0.030 A 
HETATM   10  C           1     -23.646  -3.476  -9.675  0.00  0.00     0.014 A 
HETATM   11  C           1     -24.310  -3.334 -10.898  0.00  0.00     0.001 A 
HETATM   12  C           1     -23.644  -3.563 -12.100  0.00  0.00     0.002 A 
ENDBRANCH   2   3
ENDBRANCH   1   2
BRANCH   1  13
HETATM   13  N           1     -23.610  -5.065  -6.307  0.00  0.00    -0.066 N 
HETATM   14  H           1     -24.141  -5.944  -6.503  0.00  0.00     0.275 HD
HETATM   15  H           1     -23.703  -4.820  -5.296  0.00  0.00     0.275 HD
HETATM   16  H           1     -23.994  -4.288  -6.892  0.00  0.00     0.275 HD
ENDBRANCH   1  13
BRANCH   1  17
HETATM   17  C           1     -21.417  -5.694  -5.398  0.00  0.00     0.249 C 
HETATM   18  O           1     -20.212  -5.604  -5.356  0.00  0.00    -0.271 OA
HETATM   19  N           1     -22.104  -6.179  -4.319  0.00  0.00    -0.345 N 
HETATM   20  H           1     -23.113  -6.255  -4.355  0.00  0.00     0.163 HD
BRANCH  19  21
HETATM   21  C           1     -21.388  -6.586  -3.126  0.00  0.00     0.181 C 
HETATM   22  C           1     -22.200  -6.214  -1.894  0.00  0.00     0.043 C 
BRANCH  21  23
HETATM   23  C           1     -21.173  -8.080  -3.154  0.00  0.00     0.196 C 
HETATM   24  O           1     -20.406  -8.617  -2.326  0.00  0.00    -0.646 OA
HETATM   25  O           1     -21.764  -8.780  -4.005  0.00  0.00    -0.646 OA
ENDBRANCH  21  23
ENDBRANCH  19  21
ENDBRANCH   1  17
TORSDOF 6
ENDMDL
MODEL 3
REMARK VINA RESULT:      -7.8      2.623      7.950
REMARK  6 active torsions:
REMARK  status: ('A' for Active; 'I' for Inactive)
REMARK    1  A    between atoms: C_1  and  C_21 
REMARK    2  A    between atoms: C_4  and  C_5 
REMARK    3  A    between atoms: C_5  and  C_23 
REMARK    4  A    between atoms: N_9  and  C_23 
REMARK    5  A    between atoms: C_21  and  N_22 
REMARK       I    between atoms: N_22  and  C_24 
REMARK    6  A    between atoms: C_23  and  C_24 
ROOT
HETATM    1  C           1     -22.103  -4.247  -7.236  0.00  0.00     0.278 C 
ENDROOT
BRANCH   1   2
HETATM    2  C           1     -21.991  -4.832  -8.638  0.00  0.00     0.083 C 
BRANCH   2   3
HETATM    3  C           1     -23.089  -4.286  -9.497  0.00  0.00    -0.028 A 
HETATM    4  C           1     -24.402  -4.116  -9.124  0.00  0.00     0.096 A 
HETATM    5  N           1     -25.078  -3.594 -10.195  0.00  0.00    -0.365 N 
HETATM    6  H           1     -26.100  -3.358 -10.203  0.00  0.00     0.165 HD
HETATM    7  C           1     -24.222  -3.423 -11.260  0.00  0.00     0.042 A 
HETATM    8  C           1     -22.961  -3.852 -10.845  0.00  0.00    -0.002 A 
HETATM    9  C           1     -24.465  -2.926 -12.546  0.00  0.00     0.030 A 
HETATM   10  C           1     -21.889  -3.785 -11.756  0.00  0.00     0.014 A 
HETATM   11  C           1     -22.115  -3.290 -13.045  0.00  0.00     0.001 A 
HETATM   12  C           1     -23.385  -2.868 -13.432  0.00  0.00     0.002 A 
ENDBRANCH   2   3
ENDBRANCH   1   2
BRANCH   1  13
HETATM   13  N           1     -21.550  -2.852  -7.232  0.00  0.00    -0.066 N 
HETATM   14  H           1     -21.913  -2.335  -6.398  0.00  0.00     0.275 HD
HETATM   15  H           1     -20.507  -2.892  -7.188  0.00  0.00     0.275 HD
HETATM   16  H           1     -21.845  -2.358  -8.104  0.00  0.00     0.275 HD
ENDBRANCH   1  13
BRANCH   1  17
HETATM   17  C           1     -21.321  -5.100  -6.269  0.00  0.00     0.249 C 
HETATM   18  O           1     -20.113  -5.112  -6.315  0.00  0.00    -0.271 OA
HETATM   19  N           1     -21.978  -5.861  -5.340  0.00  0.00    -0.345 N 
HETATM   20  H           1     -22.990  -5.851  -5.302  0.00  0.00     0.163 HD
BRANCH  19  21
HETATM   21  C           1     -21.225  -6.681  -4.411  0.00  0.00     0.181 C 
HETATM   22  C           1     -21.732  -6.442  -2.996  0.00  0.00     0.043 C 
BRANCH  21  23
HETATM   23  C           1     -21.402  -8.136  -4.769  0.00  0.00     0.196 C 
HETATM   24  O           1     -21.779  -8.952  -3.900  0.00  0.00    -0.646 OA
HETATM   25  O           1     -21.173  -8.525  -5.935  0.00  0.00    -0.646 OA
ENDBRANCH  21  23
ENDBRANCH  19  21
ENDBRANCH   1  17
TORSDOF 6
ENDMDL
MODEL 4
REMARK VINA RESULT:      -7.8      2.742      7.663
REMARK  6 active torsions:
REMARK  status: ('A' for Active; 'I' for Inactive)
REMARK    1  A    between atoms: C_1  and  C_21 
REMARK    2  A    between atoms: C_4  and  C_5 
REMARK    3  A    between atoms: C_5  and  C_23 
REMARK    4  A    between atoms: N_9  and  C_23 
REMARK    5  A    between atoms: C_21  and  N_22 
REMARK       I    between atoms: N_22  and  C_24 
REMARK    6  A    between atoms: C_23  and  C_24 
ROOT
HETATM    1  C           1     -21.126  -5.251  -5.849  0.00  0.00     0.278 C 
ENDROOT
BRANCH   1   2
HETATM    2  C           1     -21.047  -5.613  -7.326  0.00  0.00     0.083 C 
BRANCH   2   3
HETATM    3  C           1     -22.070  -4.830  -8.088  0.00  0.00    -0.028 A 
HETATM    4  C           1     -23.305  -4.441  -7.623  0.00  0.00     0.096 A 
HETATM    5  N           1     -23.931  -3.748  -8.626  0.00  0.00    -0.365 N 
HETATM    6  H           1     -24.890  -3.327  -8.557  0.00  0.00     0.165 HD
HETATM    7  C           1     -23.120  -3.682  -9.736  0.00  0.00     0.042 A 
HETATM    8  C           1     -21.940  -4.358  -9.423  0.00  0.00    -0.002 A 
HETATM    9  C           1     -23.339  -3.082 -10.983  0.00  0.00     0.030 A 
HETATM   10  C           1     -20.928  -4.441 -10.399  0.00  0.00     0.014 A 
HETATM   11  C           1     -21.130  -3.847 -11.649  0.00  0.00     0.001 A 
HETATM   12  C           1     -22.318  -3.178 -11.934  0.00  0.00     0.002 A 
ENDBRANCH   2   3
ENDBRANCH   1   2
BRANCH   1  13
HETATM   13  N           1     -19.840  -4.606  -5.423  0.00  0.00    -0.066 N 
HETATM   14  H           1     -19.963  -3.568  -5.394  0.00  0.00     0.275 HD
HETATM   15  H           1     -19.575  -4.951  -4.473  0.00  0.00     0.275 HD
HETATM   16  H           1     -19.087  -4.848  -6.106  0.00  0.00     0.275 HD
ENDBRANCH   1  13
BRANCH   1  17
HETATM   17  C           1     -21.354  -6.500  -5.034  0.00  0.00     0.249 C 
HETATM   18  O           1     -21.647  -7.535  -5.586  0.00  0.00    -0.271 OA
HETATM   19  N           1     -21.229  -6.462  -3.672  0.00  0.00    -0.345 N 
HETATM   20  H           1     -20.985  -5.595  -3.210  0.00  0.00     0.163 HD
BRANCH  19  21
HETATM   21  C           1     -21.449  -7.663  -2.890  0.00  0.00     0.181 C 
HETATM   22  C           1     -20.114  -8.339  -2.611  0.00  0.00     0.043 C 
BRANCH  21  23
HETATM   23  C           1     -22.110  -7.298  -1.584  0.00  0.00     0.196 C 
HETATM   24  O           1     -22.349  -8.183  -0.734  0.00  0.00    -0.646 OA
HETATM   25  O           1     -22.419  -6.109  -1.351  0.00  0.00    -0.646 OA
ENDBRANCH  21  23
ENDBRANCH  19  21
ENDBRANCH   1  17
TORSDOF 6
ENDMDL
MODEL 5
REMARK VINA RESULT:      -7.6     13.234     15.521
REMARK  6 active torsions:
REMARK  status: ('A' for Active; 'I' for Inactive)
REMARK    1  A    between atoms: C_1  and  C_21 
REMARK    2  A    between atoms: C_4  and  C_5 
REMARK    3  A    between atoms: C_5  and  C_23 
REMARK    4  A    between atoms: N_9  and  C_23 
REMARK    5  A    between atoms: C_21  and  N_22 
REMARK       I    between atoms: N_22  and  C_24 
REMARK    6  A    between atoms: C_23  and  C_24 
ROOT
HETATM    1  C           1     -36.036  -0.368 -11.178  0.00  0.00     0.278 C 
ENDROOT
BRANCH   1   2
HETATM    2  C           1     -36.212  -1.807 -10.712  0.00  0.00     0.083 C 
BRANCH   2   3
HETATM    3  C           1     -34.947  -2.569 -10.956  0.00  0.00    -0.028 A 
HETATM    4  C           1     -33.735  -2.033 -11.323  0.00  0.00     0.096 A 
HETATM    5  N           1     -32.840  -3.063 -11.445  0.00  0.00    -0.365 N 
HETATM    6  H           1     -31.831  -2.954 -11.713  0.00  0.00     0.165 HD
HETATM    7  C           1     -33.454  -4.263 -11.162  0.00  0.00     0.042 A 
HETATM    8  C           1     -34.784  -3.979 -10.851  0.00  0.00    -0.002 A 
HETATM    9  C           1     -32.939  -5.565 -11.159  0.00  0.00     0.030 A 
HETATM   10  C           1     -35.645  -5.043 -10.521  0.00  0.00     0.014 A 
HETATM   11  C           1     -35.147  -6.350 -10.513  0.00  0.00     0.001 A 
HETATM   12  C           1     -33.814  -6.605 -10.828  0.00  0.00     0.002 A 
ENDBRANCH   2   3
ENDBRANCH   1   2
BRANCH   1  13
HETATM   13  N           1     -36.754   0.553 -10.236  0.00  0.00    -0.066 N 
HETATM   14  H           1     -37.017   0.031  -9.369  0.00  0.00     0.275 HD
HETATM   15  H           1     -36.128   1.351  -9.984  0.00  0.00     0.275 HD
HETATM   16  H           1     -37.618   0.919 -10.698  0.00  0.00     0.275 HD
ENDBRANCH   1  13
BRANCH   1  17
HETATM   17  C           1     -36.609  -0.213 -12.565  0.00  0.00     0.249 C 
HETATM   18  O           1     -37.790  -0.389 -12.753  0.00  0.00    -0.271 OA
HETATM   19  N           1     -35.792   0.126 -13.609  0.00  0.00    -0.345 N 
HETATM   20  H           1     -34.803   0.272 -13.451  0.00  0.00     0.163 HD
BRANCH  19  21
HETATM   21  C           1     -36.343   0.274 -14.942  0.00  0.00     0.181 C 
HETATM   22  C           1     -35.881   1.595 -15.539  0.00  0.00     0.043 C 
BRANCH  21  23
HETATM   23  C           1     -35.867  -0.864 -15.811  0.00  0.00     0.196 C 
HETATM   24  O           1     -36.175  -0.897 -17.023  0.00  0.00    -0.646 OA
HETATM   25  O           1     -35.164  -1.773 -15.320  0.00  0.00    -0.646 OA
ENDBRANCH  21  23
ENDBRANCH  19  21
ENDBRANCH   1  17
TORSDOF 6
ENDMDL
MODEL 6
REMARK VINA RESULT:      -7.3      1.832      2.781
REMARK  6 active torsions:
REMARK  status: ('A' for Active; 'I' for Inactive)
REMARK    1  A    between atoms: C_1  and  C_21 
REMARK    2  A    between atoms: C_4  and  C_5 
REMARK    3  A    between atoms: C_5  and  C_23 
REMARK    4  A    between atoms: N_9  and  C_23 
REMARK    5  A    between atoms: C_21  and  N_22 
REMARK       I    between atoms: N_22  and  C_24 
REMARK    6  A    between atoms: C_23  and  C_24 
ROOT
HETATM    1  C           1     -21.407  -7.138  -5.163  0.00  0.00     0.278 C 
ENDROOT
BRANCH   1   2
HETATM    2  C           1     -20.413  -7.305  -4.022  0.00  0.00     0.083 C 
BRANCH   2   3
HETATM    3  C           1     -21.139  -7.251  -2.714  0.00  0.00    -0.028 A 
HETATM    4  C           1     -21.970  -6.240  -2.289  0.00  0.00     0.096 A 
HETATM    5  N           1     -22.430  -6.572  -1.043  0.00  0.00    -0.365 N 
HETATM    6  H           1     -23.086  -5.986  -0.469  0.00  0.00     0.165 HD
HETATM    7  C           1     -21.910  -7.785  -0.651  0.00  0.00     0.042 A 
HETATM    8  C           1     -21.092  -8.234  -1.687  0.00  0.00    -0.002 A 
HETATM    9  C           1     -22.100  -8.511   0.531  0.00  0.00     0.030 A 
HETATM   10  C           1     -20.428  -9.467  -1.541  0.00  0.00     0.014 A 
HETATM   11  C           1     -20.607 -10.206  -0.366  0.00  0.00     0.001 A 
HETATM   12  C           1     -21.430  -9.733   0.653  0.00  0.00     0.002 A 
ENDBRANCH   2   3
ENDBRANCH   1   2
BRANCH   1  13
HETATM   13  N           1     -21.279  -8.295  -6.110  0.00  0.00    -0.066 N 
HETATM   14  H           1     -22.143  -8.882  -6.064  0.00  0.00     0.275 HD
HETATM   15  H           1     -21.155  -7.936  -7.084  0.00  0.00     0.275 HD
HETATM   16  H           1     -20.450  -8.873  -5.843  0.00  0.00     0.275 HD
ENDBRANCH   1  13
BRANCH   1  17
HETATM   17  C           1     -21.120  -5.853  -5.899  0.00  0.00     0.249 C 
HETATM   18  O           1     -20.640  -4.914  -5.308  0.00  0.00    -0.271 OA
HETATM   19  N           1     -21.402  -5.750  -7.234  0.00  0.00    -0.345 N 
HETATM   20  H           1     -21.805  -6.537  -7.728  0.00  0.00     0.163 HD
BRANCH  19  21
HETATM   21  C           1     -21.126  -4.514  -7.940  0.00  0.00     0.181 C 
HETATM   22  C           1     -20.046  -4.757  -8.985  0.00  0.00     0.043 C 
BRANCH  21  23
HETATM   23  C           1     -22.384  -4.033  -8.620  0.00  0.00     0.196 C 
HETATM   24  O           1     -22.318  -3.485  -9.742  0.00  0.00    -0.646 OA
HETATM   25  O           1     -23.493  -4.183  -8.062  0.00  0.00    -0.646 OA
ENDBRANCH  21  23
ENDBRANCH  19  21
ENDBRANCH   1  17
TORSDOF 6
ENDMDL
MODEL 7
REMARK VINA RESULT:      -7.1      1.933      2.964
REMARK  6 active torsions:
REMARK  status: ('A' for Active; 'I' for Inactive)
REMARK    1  A    between atoms: C_1  and  C_21 
REMARK    2  A    between atoms: C_4  and  C_5 
REMARK    3  A    between atoms: C_5  and  C_23 
REMARK    4  A    between atoms: N_9  and  C_23 
REMARK    5  A    between atoms: C_21  and  N_22 
REMARK       I    between atoms: N_22  and  C_24 
REMARK    6  A    between atoms: C_23  and  C_24 
ROOT
HETATM    1  C           1     -21.116  -7.978  -4.779  0.00  0.00     0.278 C 
ENDROOT
BRANCH   1   2
HETATM    2  C           1     -19.820  -8.250  -4.028  0.00  0.00     0.083 C 
BRANCH   2   3
HETATM    3  C           1     -20.125  -8.945  -2.738  0.00  0.00    -0.028 A 
HETATM    4  C           1     -19.641 -10.171  -2.343  0.00  0.00     0.096 A 
HETATM    5  N           1     -20.159 -10.446  -1.105  0.00  0.00    -0.365 N 
HETATM    6  H           1     -19.963 -11.316  -0.552  0.00  0.00     0.165 HD
HETATM    7  C           1     -20.974  -9.417  -0.690  0.00  0.00     0.042 A 
HETATM    8  C           1     -20.970  -8.457  -1.702  0.00  0.00    -0.002 A 
HETATM    9  C           1     -21.707  -9.264   0.493  0.00  0.00     0.030 A 
HETATM   10  C           1     -21.734  -7.287  -1.530  0.00  0.00     0.014 A 
HETATM   11  C           1     -22.472  -7.117  -0.353  0.00  0.00     0.001 A 
HETATM   12  C           1     -22.458  -8.093   0.641  0.00  0.00     0.002 A 
ENDBRANCH   2   3
ENDBRANCH   1   2
BRANCH   1  13
HETATM   13  N           1     -21.197  -8.878  -5.977  0.00  0.00    -0.066 N 
HETATM   14  H           1     -22.115  -9.379  -5.976  0.00  0.00     0.275 HD
HETATM   15  H           1     -21.114  -8.307  -6.848  0.00  0.00     0.275 HD
HETATM   16  H           1     -20.419  -9.576  -5.941  0.00  0.00     0.275 HD
ENDBRANCH   1  13
BRANCH   1  17
HETATM   17  C           1     -21.147  -6.539  -5.230  0.00  0.00     0.249 C 
HETATM   18  O           1     -21.461  -5.669  -4.451  0.00  0.00    -0.271 OA
HETATM   19  N           1     -20.820  -6.218  -6.519  0.00  0.00    -0.345 N 
HETATM   20  H           1     -20.558  -6.947  -7.171  0.00  0.00     0.163 HD
BRANCH  19  21
HETATM   21  C           1     -20.850  -4.834  -6.952  0.00  0.00     0.181 C 
HETATM   22  C           1     -19.610  -4.534  -7.781  0.00  0.00     0.043 C 
BRANCH  21  23
HETATM   23  C           1     -22.083  -4.596  -7.788  0.00  0.00     0.196 C 
HETATM   24  O           1     -21.998  -4.567  -9.035  0.00  0.00    -0.646 OA
HETATM   25  O           1     -23.191  -4.430  -7.233  0.00  0.00    -0.646 OA
ENDBRANCH  21  23
ENDBRANCH  19  21
ENDBRANCH   1  17
TORSDOF 6
ENDMDL
MODEL 8
REMARK VINA RESULT:      -7.0      1.817      2.374
REMARK  6 active torsions:
REMARK  status: ('A' for Active; 'I' for Inactive)
REMARK    1  A    between atoms: C_1  and  C_21 
REMARK    2  A    between atoms: C_4  and  C_5 
REMARK    3  A    between atoms: C_5  and  C_23 
REMARK    4  A    between atoms: N_9  and  C_23 
REMARK    5  A    between atoms: C_21  and  N_22 
REMARK       I    between atoms: N_22  and  C_24 
REMARK    6  A    between atoms: C_23  and  C_24 
ROOT
HETATM    1  C           1     -20.514  -5.844  -5.225  0.00  0.00     0.278 C 
ENDROOT
BRANCH   1   2
HETATM    2  C           1     -21.568  -6.140  -4.166  0.00  0.00     0.083 C 
BRANCH   2   3
HETATM    3  C           1     -21.129  -7.305  -3.335  0.00  0.00    -0.028 A 
HETATM    4  C           1     -20.290  -8.318  -3.737  0.00  0.00     0.096 A 
HETATM    5  N           1     -20.142  -9.183  -2.685  0.00  0.00    -0.365 N 
HETATM    6  H           1     -19.554 -10.052  -2.700  0.00  0.00     0.165 HD
HETATM    7  C           1     -20.873  -8.745  -1.603  0.00  0.00     0.042 A 
HETATM    8  C           1     -21.506  -7.563  -1.988  0.00  0.00    -0.002 A 
HETATM    9  C           1     -21.022  -9.302  -0.327  0.00  0.00     0.030 A 
HETATM   10  C           1     -22.329  -6.901  -1.056  0.00  0.00     0.014 A 
HETATM   11  C           1     -22.488  -7.443   0.224  0.00  0.00     0.001 A 
HETATM   12  C           1     -21.844  -8.626   0.581  0.00  0.00     0.002 A 
ENDBRANCH   2   3
ENDBRANCH   1   2
BRANCH   1  13
HETATM   13  N           1     -19.972  -4.461  -5.017  0.00  0.00    -0.066 N 
HETATM   14  H           1     -20.238  -4.121  -4.064  0.00  0.00     0.275 HD
HETATM   15  H           1     -18.931  -4.479  -5.101  0.00  0.00     0.275 HD
HETATM   16  H           1     -20.371  -3.819  -5.739  0.00  0.00     0.275 HD
ENDBRANCH   1  13
BRANCH   1  17
HETATM   17  C           1     -21.135  -5.940  -6.596  0.00  0.00     0.249 C 
HETATM   18  O           1     -21.326  -7.022  -7.099  0.00  0.00    -0.271 OA
HETATM   19  N           1     -21.483  -4.801  -7.271  0.00  0.00    -0.345 N 
HETATM   20  H           1     -21.323  -3.894  -6.850  0.00  0.00     0.163 HD
BRANCH  19  21
HETATM   21  C           1     -22.080  -4.893  -8.589  0.00  0.00     0.181 C 
HETATM   22  C           1     -23.378  -4.099  -8.616  0.00  0.00     0.043 C 
BRANCH  21  23
HETATM   23  C           1     -21.125  -4.331  -9.613  0.00  0.00     0.196 C 
HETATM   24  O           1     -21.489  -4.200 -10.802  0.00  0.00    -0.646 OA
HETATM   25  O           1     -19.971  -3.994  -9.272  0.00  0.00    -0.646 OA
ENDBRANCH  21  23
ENDBRANCH  19  21
ENDBRANCH   1  17
TORSDOF 6
ENDMDL
MODEL 9
REMARK VINA RESULT:      -7.0      3.255      4.622
REMARK  6 active torsions:
REMARK  status: ('A' for Active; 'I' for Inactive)
REMARK    1  A    between atoms: C_1  and  C_21 
REMARK    2  A    between atoms: C_4  and  C_5 
REMARK    3  A    between atoms: C_5  and  C_23 
REMARK    4  A    between atoms: N_9  and  C_23 
REMARK    5  A    between atoms: C_21  and  N_22 
REMARK       I    between atoms: N_22  and  C_24 
REMARK    6  A    between atoms: C_23  and  C_24 
ROOT
HETATM    1  C           1     -19.011  -9.916  -4.269  0.00  0.00     0.278 C 
ENDROOT
BRANCH   1   2
HETATM    2  C           1     -18.795  -9.215  -2.935  0.00  0.00     0.083 C 
BRANCH   2   3
HETATM    3  C           1     -19.837  -9.665  -1.959  0.00  0.00    -0.028 A 
HETATM    4  C           1     -19.983 -10.937  -1.456  0.00  0.00     0.096 A 
HETATM    5  N           1     -21.052 -10.930  -0.600  0.00  0.00    -0.365 N 
HETATM    6  H           1     -21.399 -11.764  -0.066  0.00  0.00     0.165 HD
HETATM    7  C           1     -21.604  -9.670  -0.538  0.00  0.00     0.042 A 
HETATM    8  C           1     -20.856  -8.854  -1.387  0.00  0.00    -0.002 A 
HETATM    9  C           1     -22.697  -9.196   0.196  0.00  0.00     0.030 A 
HETATM   10  C           1     -21.215  -7.497  -1.512  0.00  0.00     0.014 A 
HETATM   11  C           1     -22.305  -7.007  -0.785  0.00  0.00     0.001 A 
HETATM   12  C           1     -23.034  -7.845   0.056  0.00  0.00     0.002 A 
ENDBRANCH   2   3
ENDBRANCH   1   2
BRANCH   1  13
HETATM   13  N           1     -17.719  -9.948  -5.032  0.00  0.00    -0.066 N 
HETATM   14  H           1     -17.020  -9.331  -4.559  0.00  0.00     0.275 HD
HETATM   15  H           1     -17.356 -10.928  -5.059  0.00  0.00     0.275 HD
HETATM   16  H           1     -17.882  -9.609  -6.007  0.00  0.00     0.275 HD
ENDBRANCH   1  13
BRANCH   1  17
HETATM   17  C           1     -20.048  -9.168  -5.070  0.00  0.00     0.249 C 
HETATM   18  O           1     -20.842  -9.777  -5.748  0.00  0.00    -0.271 OA
HETATM   19  N           1     -20.090  -7.801  -5.028  0.00  0.00    -0.345 N 
HETATM   20  H           1     -19.424  -7.291  -4.461  0.00  0.00     0.163 HD
BRANCH  19  21
HETATM   21  C           1     -21.086  -7.082  -5.798  0.00  0.00     0.181 C 
HETATM   22  C           1     -22.175  -6.569  -4.867  0.00  0.00     0.043 C 
BRANCH  21  23
HETATM   23  C           1     -20.434  -5.916  -6.499  0.00  0.00     0.196 C 
HETATM   24  O           1     -20.021  -6.042  -7.672  0.00  0.00    -0.646 OA
HETATM   25  O           1     -20.308  -4.822  -5.907  0.00  0.00    -0.646 OA
ENDBRANCH  21  23
ENDBRANCH  19  21
ENDBRANCH   1  17
TORSDOF 6
ENDMDL
