MODEL 1
REMARK VINA RESULT:      -6.5      0.000      0.000
REMARK  7 active torsions:
REMARK  status: ('A' for Active; 'I' for Inactive)
REMARK    1  A    between atoms: C_1  and  C_2 
REMARK    2  A    between atoms: C_1  and  N_5 
REMARK       I    between atoms: N_5  and  C_6 
REMARK    3  A    between atoms: C_6  and  C_7 
REMARK    4  A    between atoms: C_7  and  C_15 
REMARK    5  A    between atoms: C_7  and  N_13 
REMARK    6  A    between atoms: C_8  and  C_15 
REMARK    7  A    between atoms: C_8  and  C_10 
ROOT
HETATM    1  C           1     -29.301  -6.760 -17.442  0.00  0.00     0.275 C 
ENDROOT
BRANCH   1   2
HETATM    2  C           1     -28.437  -6.385 -18.622  0.00  0.00     0.249 C 
HETATM    3  N           1     -27.573  -7.301 -19.156  0.00  0.00    -0.345 N 
HETATM    4  H           1     -27.511  -8.230 -18.760  0.00  0.00     0.163 HD
HETATM    5  O           1     -28.511  -5.275 -19.094  0.00  0.00    -0.271 OA
BRANCH   3   6
HETATM    6  C           1     -26.743  -6.940 -20.290  0.00  0.00     0.181 C 
HETATM    7  C           1     -25.358  -6.541 -19.798  0.00  0.00     0.043 C 
BRANCH   6   8
HETATM    8  C           1     -26.627  -8.120 -21.222  0.00  0.00     0.196 C 
HETATM    9  O           1     -27.626  -8.833 -21.456  0.00  0.00    -0.646 OA
HETATM   10  O           1     -25.530  -8.385 -21.762  0.00  0.00    -0.646 OA
ENDBRANCH   6   8
ENDBRANCH   3   6
ENDBRANCH   1   2
BRANCH   1  11
HETATM   11  C           1     -28.664  -6.239 -16.160  0.00  0.00     0.053 C 
BRANCH  11  12
HETATM   12  C           1     -27.702  -7.283 -15.609  0.00  0.00     0.115 C 
BRANCH  12  13
HETATM   13  C           1     -26.281  -6.816 -15.814  0.00  0.00     0.172 C 
HETATM   14  O           1     -25.337  -7.436 -15.279  0.00  0.00    -0.648 OA
HETATM   15  O           1     -26.049  -5.811 -16.519  0.00  0.00    -0.648 OA
ENDBRANCH  12  13
ENDBRANCH  11  12
ENDBRANCH   1  11
BRANCH   1  16
HETATM   16  N           1     -29.422  -8.253 -17.367  0.00  0.00    -0.066 N 
HETATM   17  H           1     -29.969  -8.600 -18.188  0.00  0.00     0.275 HD
HETATM   18  H           1     -28.469  -8.682 -17.381  0.00  0.00     0.275 HD
HETATM   19  H           1     -29.912  -8.520 -16.484  0.00  0.00     0.275 HD
ENDBRANCH   1  16
TORSDOF 7
ENDMDL
MODEL 2
REMARK VINA RESULT:      -6.4     10.030     11.001
REMARK  7 active torsions:
REMARK  status: ('A' for Active; 'I' for Inactive)
REMARK    1  A    between atoms: C_1  and  C_2 
REMARK    2  A    between atoms: C_1  and  N_5 
REMARK       I    between atoms: N_5  and  C_6 
REMARK    3  A    between atoms: C_6  and  C_7 
REMARK    4  A    between atoms: C_7  and  C_15 
REMARK    5  A    between atoms: C_7  and  N_13 
REMARK    6  A    between atoms: C_8  and  C_15 
REMARK    7  A    between atoms: C_8  and  C_10 
ROOT
HETATM    1  C           1     -34.422  -1.673 -11.954  0.00  0.00     0.275 C 
ENDROOT
BRANCH   1   2
HETATM    2  C           1     -35.420  -1.124 -12.945  0.00  0.00     0.249 C 
HETATM    3  N           1     -34.984  -0.526 -14.096  0.00  0.00    -0.345 N 
HETATM    4  H           1     -33.992  -0.451 -14.283  0.00  0.00     0.163 HD
HETATM    5  O           1     -36.604  -1.214 -12.722  0.00  0.00    -0.271 OA
BRANCH   3   6
HETATM    6  C           1     -35.943   0.001 -15.048  0.00  0.00     0.181 C 
HETATM    7  C           1     -35.594   1.448 -15.371  0.00  0.00     0.043 C 
BRANCH   6   8
HETATM    8  C           1     -35.900  -0.822 -16.311  0.00  0.00     0.196 C 
HETATM    9  O           1     -34.906  -1.539 -16.557  0.00  0.00    -0.646 OA
HETATM   10  O           1     -36.860  -0.789 -17.112  0.00  0.00    -0.646 OA
ENDBRANCH   6   8
ENDBRANCH   3   6
ENDBRANCH   1   2
BRANCH   1  11
HETATM   11  C           1     -33.993  -3.069 -12.384  0.00  0.00     0.053 C 
BRANCH  11  12
HETATM   12  C           1     -33.217  -3.733 -11.254  0.00  0.00     0.115 C 
BRANCH  12  13
HETATM   13  C           1     -33.880  -5.039 -10.887  0.00  0.00     0.172 C 
HETATM   14  O           1     -35.051  -5.044 -10.452  0.00  0.00    -0.648 OA
HETATM   15  O           1     -33.257  -6.115 -11.019  0.00  0.00    -0.648 OA
ENDBRANCH  12  13
ENDBRANCH  11  12
ENDBRANCH   1  11
BRANCH   1  16
HETATM   16  N           1     -35.054  -1.740 -10.596  0.00  0.00    -0.066 N 
HETATM   17  H           1     -34.368  -1.419  -9.876  0.00  0.00     0.275 HD
HETATM   18  H           1     -35.897  -1.122 -10.572  0.00  0.00     0.275 HD
HETATM   19  H           1     -35.338  -2.725 -10.392  0.00  0.00     0.275 HD
ENDBRANCH   1  16
TORSDOF 7
ENDMDL
MODEL 3
REMARK VINA RESULT:      -6.0      9.431     12.407
REMARK  7 active torsions:
REMARK  status: ('A' for Active; 'I' for Inactive)
REMARK    1  A    between atoms: C_1  and  C_2 
REMARK    2  A    between atoms: C_1  and  N_5 
REMARK       I    between atoms: N_5  and  C_6 
REMARK    3  A    between atoms: C_6  and  C_7 
REMARK    4  A    between atoms: C_7  and  C_15 
REMARK    5  A    between atoms: C_7  and  N_13 
REMARK    6  A    between atoms: C_8  and  C_15 
REMARK    7  A    between atoms: C_8  and  C_10 
ROOT
HETATM    1  C           1     -22.794  -4.520  -9.274  0.00  0.00     0.275 C 
ENDROOT
BRANCH   1   2
HETATM    2  C           1     -21.545  -4.874  -8.504  0.00  0.00     0.249 C 
HETATM    3  N           1     -21.644  -5.427  -7.257  0.00  0.00    -0.345 N 
HETATM    4  H           1     -22.554  -5.600  -6.850  0.00  0.00     0.163 HD
HETATM    5  O           1     -20.458  -4.668  -8.990  0.00  0.00    -0.271 OA
BRANCH   3   6
HETATM    6  C           1     -20.443  -5.767  -6.517  0.00  0.00     0.181 C 
HETATM    7  C           1     -20.146  -4.672  -5.501  0.00  0.00     0.043 C 
BRANCH   6   8
HETATM    8  C           1     -20.650  -7.078  -5.799  0.00  0.00     0.196 C 
HETATM    9  O           1     -19.713  -7.901  -5.717  0.00  0.00    -0.646 OA
HETATM   10  O           1     -21.759  -7.340  -5.285  0.00  0.00    -0.646 OA
ENDBRANCH   6   8
ENDBRANCH   3   6
ENDBRANCH   1   2
BRANCH   1  11
HETATM   11  C           1     -22.452  -3.514 -10.364  0.00  0.00     0.053 C 
BRANCH  11  12
HETATM   12  C           1     -23.056  -3.971 -11.686  0.00  0.00     0.115 C 
BRANCH  12  13
HETATM   13  C           1     -24.371  -3.264 -11.909  0.00  0.00     0.172 C 
HETATM   14  O           1     -24.651  -2.809 -13.039  0.00  0.00    -0.648 OA
HETATM   15  O           1     -25.180  -3.136 -10.965  0.00  0.00    -0.648 OA
ENDBRANCH  12  13
ENDBRANCH  11  12
ENDBRANCH   1  11
BRANCH   1  16
HETATM   16  N           1     -23.802  -3.920  -8.339  0.00  0.00    -0.066 N 
HETATM   17  H           1     -23.323  -3.601  -7.467  0.00  0.00     0.275 HD
HETATM   18  H           1     -24.262  -3.103  -8.801  0.00  0.00     0.275 HD
HETATM   19  H           1     -24.525  -4.636  -8.098  0.00  0.00     0.275 HD
ENDBRANCH   1  16
TORSDOF 7
ENDMDL
MODEL 4
REMARK VINA RESULT:      -6.0      9.206     11.970
REMARK  7 active torsions:
REMARK  status: ('A' for Active; 'I' for Inactive)
REMARK    1  A    between atoms: C_1  and  C_2 
REMARK    2  A    between atoms: C_1  and  N_5 
REMARK       I    between atoms: N_5  and  C_6 
REMARK    3  A    between atoms: C_6  and  C_7 
REMARK    4  A    between atoms: C_7  and  C_15 
REMARK    5  A    between atoms: C_7  and  N_13 
REMARK    6  A    between atoms: C_8  and  C_15 
REMARK    7  A    between atoms: C_8  and  C_10 
ROOT
HETATM    1  C           1     -21.532  -3.616 -10.702  0.00  0.00     0.275 C 
ENDROOT
BRANCH   1   2
HETATM    2  C           1     -20.700  -4.502  -9.807  0.00  0.00     0.249 C 
HETATM    3  N           1     -21.022  -4.634  -8.484  0.00  0.00    -0.345 N 
HETATM    4  H           1     -21.818  -4.137  -8.105  0.00  0.00     0.163 HD
HETATM    5  O           1     -19.749  -5.094 -10.261  0.00  0.00    -0.271 OA
BRANCH   3   6
HETATM    6  C           1     -20.222  -5.486  -7.625  0.00  0.00     0.181 C 
HETATM    7  C           1     -19.199  -4.638  -6.881  0.00  0.00     0.043 C 
BRANCH   6   8
HETATM    8  C           1     -21.120  -6.180  -6.631  0.00  0.00     0.196 C 
HETATM    9  O           1     -20.982  -7.403  -6.411  0.00  0.00    -0.646 OA
HETATM   10  O           1     -22.002  -5.532  -6.026  0.00  0.00    -0.646 OA
ENDBRANCH   6   8
ENDBRANCH   3   6
ENDBRANCH   1   2
BRANCH   1  11
HETATM   11  C           1     -22.514  -4.470 -11.494  0.00  0.00     0.053 C 
BRANCH  11  12
HETATM   12  C           1     -23.763  -4.714 -10.659  0.00  0.00     0.115 C 
BRANCH  12  13
HETATM   13  C           1     -24.630  -3.478 -10.677  0.00  0.00     0.172 C 
HETATM   14  O           1     -24.955  -2.928  -9.602  0.00  0.00    -0.648 OA
HETATM   15  O           1     -25.023  -3.005 -11.765  0.00  0.00    -0.648 OA
ENDBRANCH  12  13
ENDBRANCH  11  12
ENDBRANCH   1  11
BRANCH   1  16
HETATM   16  N           1     -20.633  -2.880 -11.651  0.00  0.00    -0.066 N 
HETATM   17  H           1     -19.651  -2.911 -11.294  0.00  0.00     0.275 HD
HETATM   18  H           1     -20.675  -3.331 -12.592  0.00  0.00     0.275 HD
HETATM   19  H           1     -20.945  -1.885 -11.726  0.00  0.00     0.275 HD
ENDBRANCH   1  16
TORSDOF 7
ENDMDL
MODEL 5
REMARK VINA RESULT:      -6.0      8.410     11.376
REMARK  7 active torsions:
REMARK  status: ('A' for Active; 'I' for Inactive)
REMARK    1  A    between atoms: C_1  and  C_2 
REMARK    2  A    between atoms: C_1  and  N_5 
REMARK       I    between atoms: N_5  and  C_6 
REMARK    3  A    between atoms: C_6  and  C_7 
REMARK    4  A    between atoms: C_7  and  C_15 
REMARK    5  A    between atoms: C_7  and  N_13 
REMARK    6  A    between atoms: C_8  and  C_15 
REMARK    7  A    between atoms: C_8  and  C_10 
ROOT
HETATM    1  C           1     -21.894  -3.058 -11.358  0.00  0.00     0.275 C 
ENDROOT
BRANCH   1   2
HETATM    2  C           1     -22.119  -4.027 -10.222  0.00  0.00     0.249 C 
HETATM    3  N           1     -21.159  -4.189  -9.261  0.00  0.00    -0.345 N 
HETATM    4  H           1     -20.298  -3.659  -9.310  0.00  0.00     0.163 HD
HETATM    5  O           1     -23.146  -4.660 -10.163  0.00  0.00    -0.271 OA
BRANCH   3   6
HETATM    6  C           1     -21.375  -5.120  -8.170  0.00  0.00     0.181 C 
HETATM    7  C           1     -20.041  -5.712  -7.736  0.00  0.00     0.043 C 
BRANCH   6   8
HETATM    8  C           1     -22.005  -4.393  -7.007  0.00  0.00     0.196 C 
HETATM    9  O           1     -23.077  -4.809  -6.517  0.00  0.00    -0.646 OA
HETATM   10  O           1     -21.455  -3.375  -6.534  0.00  0.00    -0.646 OA
ENDBRANCH   6   8
ENDBRANCH   3   6
ENDBRANCH   1   2
BRANCH   1  11
HETATM   11  C           1     -22.593  -3.571 -12.610  0.00  0.00     0.053 C 
BRANCH  11  12
HETATM   12  C           1     -23.670  -2.582 -13.033  0.00  0.00     0.115 C 
BRANCH  12  13
HETATM   13  C           1     -23.458  -2.192 -14.476  0.00  0.00     0.172 C 
HETATM   14  O           1     -24.119  -1.255 -14.973  0.00  0.00    -0.648 OA
HETATM   15  O           1     -22.621  -2.806 -15.172  0.00  0.00    -0.648 OA
ENDBRANCH  12  13
ENDBRANCH  11  12
ENDBRANCH   1  11
BRANCH   1  16
HETATM   16  N           1     -20.423  -2.933 -11.623  0.00  0.00    -0.066 N 
HETATM   17  H           1     -20.240  -3.073 -12.642  0.00  0.00     0.275 HD
HETATM   18  H           1     -20.098  -1.982 -11.339  0.00  0.00     0.275 HD
HETATM   19  H           1     -19.907  -3.657 -11.073  0.00  0.00     0.275 HD
ENDBRANCH   1  16
TORSDOF 7
ENDMDL
MODEL 6
REMARK VINA RESULT:      -5.9      9.783     11.202
REMARK  7 active torsions:
REMARK  status: ('A' for Active; 'I' for Inactive)
REMARK    1  A    between atoms: C_1  and  C_2 
REMARK    2  A    between atoms: C_1  and  N_5 
REMARK       I    between atoms: N_5  and  C_6 
REMARK    3  A    between atoms: C_6  and  C_7 
REMARK    4  A    between atoms: C_7  and  C_15 
REMARK    5  A    between atoms: C_7  and  N_13 
REMARK    6  A    between atoms: C_8  and  C_15 
REMARK    7  A    between atoms: C_8  and  C_10 
ROOT
HETATM    1  C           1     -34.470  -3.621 -12.526  0.00  0.00     0.275 C 
ENDROOT
BRANCH   1   2
HETATM    2  C           1     -35.013  -2.213 -12.498  0.00  0.00     0.249 C 
HETATM    3  N           1     -35.027  -1.462 -13.641  0.00  0.00    -0.345 N 
HETATM    4  H           1     -34.673  -1.850 -14.506  0.00  0.00     0.163 HD
HETATM    5  O           1     -35.436  -1.751 -11.465  0.00  0.00    -0.271 OA
BRANCH   3   6
HETATM    6  C           1     -35.549  -0.109 -13.613  0.00  0.00     0.181 C 
HETATM    7  C           1     -34.569   0.827 -14.308  0.00  0.00     0.043 C 
BRANCH   6   8
HETATM    8  C           1     -36.877  -0.069 -14.329  0.00  0.00     0.196 C 
HETATM    9  O           1     -37.856  -0.692 -13.865  0.00  0.00    -0.646 OA
HETATM   10  O           1     -36.998   0.588 -15.386  0.00  0.00    -0.646 OA
ENDBRANCH   6   8
ENDBRANCH   3   6
ENDBRANCH   1   2
BRANCH   1  11
HETATM   11  C           1     -33.560  -3.840 -11.324  0.00  0.00     0.053 C 
BRANCH  11  12
HETATM   12  C           1     -34.225  -4.807 -10.353  0.00  0.00     0.115 C 
BRANCH  12  13
HETATM   13  C           1     -33.871  -6.225 -10.733  0.00  0.00     0.172 C 
HETATM   14  O           1     -32.725  -6.490 -11.155  0.00  0.00    -0.648 OA
HETATM   15  O           1     -34.724  -7.132 -10.626  0.00  0.00    -0.648 OA
ENDBRANCH  12  13
ENDBRANCH  11  12
ENDBRANCH   1  11
BRANCH   1  16
HETATM   16  N           1     -33.686  -3.828 -13.789  0.00  0.00    -0.066 N 
HETATM   17  H           1     -32.917  -3.122 -13.841  0.00  0.00     0.275 HD
HETATM   18  H           1     -33.276  -4.789 -13.791  0.00  0.00     0.275 HD
HETATM   19  H           1     -34.318  -3.717 -14.614  0.00  0.00     0.275 HD
ENDBRANCH   1  16
TORSDOF 7
ENDMDL
MODEL 7
REMARK VINA RESULT:      -5.8      8.277     11.268
REMARK  7 active torsions:
REMARK  status: ('A' for Active; 'I' for Inactive)
REMARK    1  A    between atoms: C_1  and  C_2 
REMARK    2  A    between atoms: C_1  and  N_5 
REMARK       I    between atoms: N_5  and  C_6 
REMARK    3  A    between atoms: C_6  and  C_7 
REMARK    4  A    between atoms: C_7  and  C_15 
REMARK    5  A    between atoms: C_7  and  N_13 
REMARK    6  A    between atoms: C_8  and  C_15 
REMARK    7  A    between atoms: C_8  and  C_10 
ROOT
HETATM    1  C           1     -22.727  -4.394 -11.427  0.00  0.00     0.275 C 
ENDROOT
BRANCH   1   2
HETATM    2  C           1     -21.697  -4.272 -10.331  0.00  0.00     0.249 C 
HETATM    3  N           1     -22.013  -4.637  -9.051  0.00  0.00    -0.345 N 
HETATM    4  H           1     -22.938  -4.989  -8.839  0.00  0.00     0.163 HD
HETATM    5  O           1     -20.593  -3.851 -10.584  0.00  0.00    -0.271 OA
BRANCH   3   6
HETATM    6  C           1     -21.023  -4.518  -7.997  0.00  0.00     0.181 C 
HETATM    7  C           1     -21.292  -3.256  -7.188  0.00  0.00     0.043 C 
BRANCH   6   8
HETATM    8  C           1     -21.106  -5.724  -7.093  0.00  0.00     0.196 C 
HETATM    9  O           1     -20.283  -6.656  -7.217  0.00  0.00    -0.646 OA
HETATM   10  O           1     -21.999  -5.790  -6.220  0.00  0.00    -0.646 OA
ENDBRANCH   6   8
ENDBRANCH   3   6
ENDBRANCH   1   2
BRANCH   1  11
HETATM   11  C           1     -22.343  -3.488 -12.590  0.00  0.00     0.053 C 
BRANCH  11  12
HETATM   12  C           1     -23.511  -2.572 -12.928  0.00  0.00     0.115 C 
BRANCH  12  13
HETATM   13  C           1     -23.444  -2.188 -14.387  0.00  0.00     0.172 C 
HETATM   14  O           1     -24.217  -1.317 -14.840  0.00  0.00    -0.648 OA
HETATM   15  O           1     -22.614  -2.741 -15.141  0.00  0.00    -0.648 OA
ENDBRANCH  12  13
ENDBRANCH  11  12
ENDBRANCH   1  11
BRANCH   1  16
HETATM   16  N           1     -24.069  -3.985 -10.898  0.00  0.00    -0.066 N 
HETATM   17  H           1     -24.700  -3.744 -11.696  0.00  0.00     0.275 HD
HETATM   18  H           1     -24.485  -4.775 -10.354  0.00  0.00     0.275 HD
HETATM   19  H           1     -23.960  -3.152 -10.276  0.00  0.00     0.275 HD
ENDBRANCH   1  16
TORSDOF 7
ENDMDL
MODEL 8
REMARK VINA RESULT:      -5.7      2.168      3.439
REMARK  7 active torsions:
REMARK  status: ('A' for Active; 'I' for Inactive)
REMARK    1  A    between atoms: C_1  and  C_2 
REMARK    2  A    between atoms: C_1  and  N_5 
REMARK       I    between atoms: N_5  and  C_6 
REMARK    3  A    between atoms: C_6  and  C_7 
REMARK    4  A    between atoms: C_7  and  C_15 
REMARK    5  A    between atoms: C_7  and  N_13 
REMARK    6  A    between atoms: C_8  and  C_15 
REMARK    7  A    between atoms: C_8  and  C_10 
ROOT
HETATM    1  C           1     -29.290  -6.819 -17.647  0.00  0.00     0.275 C 
ENDROOT
BRANCH   1   2
HETATM    2  C           1     -28.291  -6.414 -18.704  0.00  0.00     0.249 C 
HETATM    3  N           1     -27.446  -7.347 -19.240  0.00  0.00    -0.345 N 
HETATM    4  H           1     -27.490  -8.308 -18.928  0.00  0.00     0.163 HD
HETATM    5  O           1     -28.239  -5.266 -19.076  0.00  0.00    -0.271 OA
BRANCH   3   6
HETATM    6  C           1     -26.486  -6.957 -20.255  0.00  0.00     0.181 C 
HETATM    7  C           1     -25.141  -6.675 -19.600  0.00  0.00     0.043 C 
BRANCH   6   8
HETATM    8  C           1     -26.334  -8.075 -21.257  0.00  0.00     0.196 C 
HETATM    9  O           1     -27.310  -8.806 -21.532  0.00  0.00    -0.646 OA
HETATM   10  O           1     -25.230  -8.271 -21.812  0.00  0.00    -0.646 OA
ENDBRANCH   6   8
ENDBRANCH   3   6
ENDBRANCH   1   2
BRANCH   1  11
HETATM   11  C           1     -30.590  -6.052 -17.855  0.00  0.00     0.053 C 
BRANCH  11  12
HETATM   12  C           1     -30.992  -5.371 -16.553  0.00  0.00     0.115 C 
BRANCH  12  13
HETATM   13  C           1     -31.851  -4.167 -16.859  0.00  0.00     0.172 C 
HETATM   14  O           1     -31.390  -3.230 -17.546  0.00  0.00    -0.648 OA
HETATM   15  O           1     -33.021  -4.108 -16.425  0.00  0.00    -0.648 OA
ENDBRANCH  12  13
ENDBRANCH  11  12
ENDBRANCH   1  11
BRANCH   1  16
HETATM   16  N           1     -28.736  -6.503 -16.290  0.00  0.00    -0.066 N 
HETATM   17  H           1     -28.848  -7.334 -15.666  0.00  0.00     0.275 HD
HETATM   18  H           1     -27.721  -6.267 -16.375  0.00  0.00     0.275 HD
HETATM   19  H           1     -29.251  -5.689 -15.883  0.00  0.00     0.275 HD
ENDBRANCH   1  16
TORSDOF 7
ENDMDL
MODEL 9
REMARK VINA RESULT:      -5.6     10.687     11.692
REMARK  7 active torsions:
REMARK  status: ('A' for Active; 'I' for Inactive)
REMARK    1  A    between atoms: C_1  and  C_2 
REMARK    2  A    between atoms: C_1  and  N_5 
REMARK       I    between atoms: N_5  and  C_6 
REMARK    3  A    between atoms: C_6  and  C_7 
REMARK    4  A    between atoms: C_7  and  C_15 
REMARK    5  A    between atoms: C_7  and  N_13 
REMARK    6  A    between atoms: C_8  and  C_15 
REMARK    7  A    between atoms: C_8  and  C_10 
ROOT
HETATM    1  C           1     -34.705  -2.165 -11.108  0.00  0.00     0.275 C 
ENDROOT
BRANCH   1   2
HETATM    2  C           1     -35.056  -1.794 -12.529  0.00  0.00     0.249 C 
HETATM    3  N           1     -35.832  -0.694 -12.776  0.00  0.00    -0.345 N 
HETATM    4  H           1     -36.170  -0.130 -12.007  0.00  0.00     0.163 HD
HETATM    5  O           1     -34.653  -2.469 -13.446  0.00  0.00    -0.271 OA
BRANCH   3   6
HETATM    6  C           1     -36.170  -0.338 -14.141  0.00  0.00     0.181 C 
HETATM    7  C           1     -37.667  -0.078 -14.241  0.00  0.00     0.043 C 
BRANCH   6   8
HETATM    8  C           1     -35.415   0.908 -14.536  0.00  0.00     0.196 C 
HETATM    9  O           1     -35.680   1.484 -15.613  0.00  0.00    -0.646 OA
HETATM   10  O           1     -34.525   1.363 -13.785  0.00  0.00    -0.646 OA
ENDBRANCH   6   8
ENDBRANCH   3   6
ENDBRANCH   1   2
BRANCH   1  11
HETATM   11  C           1     -35.225  -3.564 -10.805  0.00  0.00     0.053 C 
BRANCH  11  12
HETATM   12  C           1     -34.051  -4.524 -10.665  0.00  0.00     0.115 C 
BRANCH  12  13
HETATM   13  C           1     -34.445  -5.882 -11.196  0.00  0.00     0.172 C 
HETATM   14  O           1     -34.940  -5.985 -12.339  0.00  0.00    -0.648 OA
HETATM   15  O           1     -34.276  -6.901 -10.493  0.00  0.00    -0.648 OA
ENDBRANCH  12  13
ENDBRANCH  11  12
ENDBRANCH   1  11
BRANCH   1  16
HETATM   16  N           1     -35.334  -1.183 -10.166  0.00  0.00    -0.066 N 
HETATM   17  H           1     -34.758  -0.312 -10.134  0.00  0.00     0.275 HD
HETATM   18  H           1     -36.297  -0.951 -10.497  0.00  0.00     0.275 HD
HETATM   19  H           1     -35.385  -1.602  -9.209  0.00  0.00     0.275 HD
ENDBRANCH   1  16
TORSDOF 7
ENDMDL
