MODEL 1
REMARK VINA RESULT:      -6.2      0.000      0.000
REMARK  8 active torsions:
REMARK  status: ('A' for Active; 'I' for Inactive)
REMARK    1  A    between atoms: C_1  and  C_7 
REMARK    2  A    between atoms: C_1  and  C_9 
REMARK    3  A    between atoms: C_6  and  C_9 
REMARK    4  A    between atoms: C_6  and  N_12 
REMARK    5  A    between atoms: C_7  and  C_20 
REMARK       I    between atoms: N_11  and  C_21 
REMARK    6  A    between atoms: N_18  and  C_20 
REMARK    7  A    between atoms: C_19  and  C_22 
REMARK    8  A    between atoms: C_20  and  C_21 
ROOT
HETATM    1  C           1     -20.520  -5.361  -7.554  0.00  0.00     0.275 C 
ENDROOT
BRANCH   1   2
HETATM    2  C           1     -21.152  -6.379  -6.614  0.00  0.00     0.042 C 
BRANCH   2   3
HETATM    3  C           1     -20.969  -5.923  -5.173  0.00  0.00     0.004 C 
BRANCH   3   4
HETATM    4  C           1     -21.901  -6.715  -4.266  0.00  0.00     0.027 C 
BRANCH   4   5
HETATM    5  C           1     -21.389  -6.655  -2.833  0.00  0.00     0.229 C 
BRANCH   5   6
HETATM    6  N           1     -22.314  -5.814  -2.005  0.00  0.00    -0.079 N 
HETATM    7  H           1     -22.672  -6.377  -1.201  0.00  0.00     0.274 HD
HETATM    8  H           1     -23.118  -5.498  -2.594  0.00  0.00     0.274 HD
HETATM    9  H           1     -21.797  -4.981  -1.643  0.00  0.00     0.274 HD
ENDBRANCH   5   6
ENDBRANCH   4   5
ENDBRANCH   3   4
ENDBRANCH   2   3
ENDBRANCH   1   2
BRANCH   1  10
HETATM   10  N           1     -19.622  -4.449  -6.772  0.00  0.00    -0.067 N 
HETATM   11  H           1     -18.956  -3.976  -7.423  0.00  0.00     0.275 HD
HETATM   12  H           1     -20.199  -3.731  -6.279  0.00  0.00     0.275 HD
HETATM   13  H           1     -19.086  -5.007  -6.069  0.00  0.00     0.275 HD
ENDBRANCH   1  10
BRANCH   1  14
HETATM   14  C           1     -21.605  -4.548  -8.219  0.00  0.00     0.251 C 
HETATM   15  N           1     -21.563  -4.324  -9.569  0.00  0.00    -0.336 N 
HETATM   16  C           1     -22.518  -3.568 -10.374  0.00  0.00     0.188 C 
HETATM   17  C           1     -20.554  -4.789 -10.516  0.00  0.00     0.127 C 
HETATM   18  C           1     -21.639  -2.795 -11.344  0.00  0.00     0.038 C 
HETATM   19  C           1     -20.350  -3.601 -11.440  0.00  0.00     0.022 C 
HETATM   20  O           1     -22.511  -4.096  -7.559  0.00  0.00    -0.271 OA
BRANCH  16  21
HETATM   21  C           1     -23.449  -4.495 -11.116  0.00  0.00     0.196 C 
HETATM   22  O           1     -23.982  -5.455 -10.518  0.00  0.00    -0.646 OA
HETATM   23  O           1     -23.686  -4.304 -12.328  0.00  0.00    -0.646 OA
ENDBRANCH  16  21
ENDBRANCH   1  14
TORSDOF 8
ENDMDL
MODEL 2
REMARK VINA RESULT:      -5.9      2.143      2.806
REMARK  8 active torsions:
REMARK  status: ('A' for Active; 'I' for Inactive)
REMARK    1  A    between atoms: C_1  and  C_7 
REMARK    2  A    between atoms: C_1  and  C_9 
REMARK    3  A    between atoms: C_6  and  C_9 
REMARK    4  A    between atoms: C_6  and  N_12 
REMARK    5  A    between atoms: C_7  and  C_20 
REMARK       I    between atoms: N_11  and  C_21 
REMARK    6  A    between atoms: N_18  and  C_20 
REMARK    7  A    between atoms: C_19  and  C_22 
REMARK    8  A    between atoms: C_20  and  C_21 
ROOT
HETATM    1  C           1     -21.527  -4.131  -7.033  0.00  0.00     0.275 C 
ENDROOT
BRANCH   1   2
HETATM    2  C           1     -20.339  -4.551  -6.177  0.00  0.00     0.042 C 
BRANCH   2   3
HETATM    3  C           1     -20.786  -5.597  -5.165  0.00  0.00     0.004 C 
BRANCH   3   4
HETATM    4  C           1     -20.265  -6.966  -5.585  0.00  0.00     0.027 C 
BRANCH   4   5
HETATM    5  C           1     -21.305  -8.028  -5.256  0.00  0.00     0.229 C 
BRANCH   5   6
HETATM    6  N           1     -20.809  -9.370  -5.708  0.00  0.00    -0.079 N 
HETATM    7  H           1     -21.562 -10.083  -5.575  0.00  0.00     0.274 HD
HETATM    8  H           1     -19.971  -9.640  -5.145  0.00  0.00     0.274 HD
HETATM    9  H           1     -20.549  -9.323  -6.719  0.00  0.00     0.274 HD
ENDBRANCH   5   6
ENDBRANCH   4   5
ENDBRANCH   3   4
ENDBRANCH   2   3
ENDBRANCH   1   2
BRANCH   1  10
HETATM   10  N           1     -22.769  -4.800  -6.526  0.00  0.00    -0.067 N 
HETATM   11  H           1     -22.970  -5.646  -7.105  0.00  0.00     0.275 HD
HETATM   12  H           1     -22.631  -5.084  -5.529  0.00  0.00     0.275 HD
HETATM   13  H           1     -23.574  -4.135  -6.589  0.00  0.00     0.275 HD
ENDBRANCH   1  10
BRANCH   1  14
HETATM   14  C           1     -21.285  -4.542  -8.466  0.00  0.00     0.251 C 
HETATM   15  N           1     -22.187  -4.202  -9.437  0.00  0.00    -0.336 N 
HETATM   16  C           1     -22.117  -4.511 -10.862  0.00  0.00     0.188 C 
HETATM   17  C           1     -23.429  -3.451  -9.274  0.00  0.00     0.127 C 
HETATM   18  C           1     -23.548  -4.873 -11.223  0.00  0.00     0.038 C 
HETATM   19  C           1     -24.410  -4.172 -10.181  0.00  0.00     0.022 C 
HETATM   20  O           1     -20.294  -5.170  -8.754  0.00  0.00    -0.271 OA
BRANCH  16  21
HETATM   21  C           1     -21.652  -3.311 -11.650  0.00  0.00     0.196 C 
HETATM   22  O           1     -20.591  -2.730 -11.336  0.00  0.00    -0.646 OA
HETATM   23  O           1     -22.329  -2.898 -12.617  0.00  0.00    -0.646 OA
ENDBRANCH  16  21
ENDBRANCH   1  14
TORSDOF 8
ENDMDL
MODEL 3
REMARK VINA RESULT:      -5.8      3.362      7.369
REMARK  8 active torsions:
REMARK  status: ('A' for Active; 'I' for Inactive)
REMARK    1  A    between atoms: C_1  and  C_7 
REMARK    2  A    between atoms: C_1  and  C_9 
REMARK    3  A    between atoms: C_6  and  C_9 
REMARK    4  A    between atoms: C_6  and  N_12 
REMARK    5  A    between atoms: C_7  and  C_20 
REMARK       I    between atoms: N_11  and  C_21 
REMARK    6  A    between atoms: N_18  and  C_20 
REMARK    7  A    between atoms: C_19  and  C_22 
REMARK    8  A    between atoms: C_20  and  C_21 
ROOT
HETATM    1  C           1     -23.890  -3.590 -11.593  0.00  0.00     0.275 C 
ENDROOT
BRANCH   1   2
HETATM    2  C           1     -24.070  -2.675 -12.798  0.00  0.00     0.042 C 
BRANCH   2   3
HETATM    3  C           1     -23.378  -3.287 -14.008  0.00  0.00     0.004 C 
BRANCH   3   4
HETATM    4  C           1     -22.991  -2.184 -14.985  0.00  0.00     0.027 C 
BRANCH   4   5
HETATM    5  C           1     -24.016  -1.060 -14.914  0.00  0.00     0.229 C 
BRANCH   5   6
HETATM    6  N           1     -23.597   0.058 -15.823  0.00  0.00    -0.079 N 
HETATM    7  H           1     -23.116  -0.337 -16.662  0.00  0.00     0.274 HD
HETATM    8  H           1     -22.943   0.695 -15.314  0.00  0.00     0.274 HD
HETATM    9  H           1     -24.441   0.594 -16.127  0.00  0.00     0.274 HD
ENDBRANCH   5   6
ENDBRANCH   4   5
ENDBRANCH   3   4
ENDBRANCH   2   3
ENDBRANCH   1   2
BRANCH   1  10
HETATM   10  N           1     -25.016  -3.371 -10.628  0.00  0.00    -0.067 N 
HETATM   11  H           1     -24.777  -2.579  -9.988  0.00  0.00     0.275 HD
HETATM   12  H           1     -25.889  -3.142 -11.155  0.00  0.00     0.275 HD
HETATM   13  H           1     -25.167  -4.239 -10.065  0.00  0.00     0.275 HD
ENDBRANCH   1  10
BRANCH   1  14
HETATM   14  C           1     -22.579  -3.275 -10.914  0.00  0.00     0.251 C 
HETATM   15  N           1     -22.271  -3.859  -9.715  0.00  0.00    -0.336 N 
HETATM   16  C           1     -21.060  -3.675  -8.922  0.00  0.00     0.188 C 
HETATM   17  C           1     -23.084  -4.802  -8.951  0.00  0.00     0.127 C 
HETATM   18  C           1     -21.572  -3.609  -7.492  0.00  0.00     0.038 C 
HETATM   19  C           1     -22.900  -4.354  -7.511  0.00  0.00     0.022 C 
HETATM   20  O           1     -21.800  -2.509 -11.431  0.00  0.00    -0.271 OA
BRANCH  16  21
HETATM   21  C           1     -20.117  -4.839  -9.101  0.00  0.00     0.196 C 
HETATM   22  O           1     -19.708  -5.142 -10.242  0.00  0.00    -0.646 OA
HETATM   23  O           1     -19.747  -5.502  -8.108  0.00  0.00    -0.646 OA
ENDBRANCH  16  21
ENDBRANCH   1  14
TORSDOF 8
ENDMDL
MODEL 4
REMARK VINA RESULT:      -5.7      3.527      7.488
REMARK  8 active torsions:
REMARK  status: ('A' for Active; 'I' for Inactive)
REMARK    1  A    between atoms: C_1  and  C_7 
REMARK    2  A    between atoms: C_1  and  C_9 
REMARK    3  A    between atoms: C_6  and  C_9 
REMARK    4  A    between atoms: C_6  and  N_12 
REMARK    5  A    between atoms: C_7  and  C_20 
REMARK       I    between atoms: N_11  and  C_21 
REMARK    6  A    between atoms: N_18  and  C_20 
REMARK    7  A    between atoms: C_19  and  C_22 
REMARK    8  A    between atoms: C_20  and  C_21 
ROOT
HETATM    1  C           1     -20.335  -6.361  -5.343  0.00  0.00     0.275 C 
ENDROOT
BRANCH   1   2
HETATM    2  C           1     -20.303  -4.843  -5.468  0.00  0.00     0.042 C 
BRANCH   2   3
HETATM    3  C           1     -20.255  -4.456  -6.940  0.00  0.00     0.004 C 
BRANCH   3   4
HETATM    4  C           1     -21.396  -3.496  -7.251  0.00  0.00     0.027 C 
BRANCH   4   5
HETATM    5  C           1     -22.551  -4.265  -7.879  0.00  0.00     0.229 C 
BRANCH   5   6
HETATM    6  N           1     -23.594  -4.539  -6.836  0.00  0.00    -0.079 N 
HETATM    7  H           1     -24.267  -3.741  -6.798  0.00  0.00     0.274 HD
HETATM    8  H           1     -23.134  -4.652  -5.905  0.00  0.00     0.274 HD
HETATM    9  H           1     -24.107  -5.416  -7.081  0.00  0.00     0.274 HD
ENDBRANCH   5   6
ENDBRANCH   4   5
ENDBRANCH   3   4
ENDBRANCH   2   3
ENDBRANCH   1   2
BRANCH   1  10
HETATM   10  N           1     -20.555  -6.969  -6.695  0.00  0.00    -0.067 N 
HETATM   11  H           1     -20.472  -8.009  -6.627  0.00  0.00     0.275 HD
HETATM   12  H           1     -21.508  -6.718  -7.041  0.00  0.00     0.275 HD
HETATM   13  H           1     -19.836  -6.606  -7.362  0.00  0.00     0.275 HD
ENDBRANCH   1  10
BRANCH   1  14
HETATM   14  C           1     -21.461  -6.766  -4.422  0.00  0.00     0.251 C 
HETATM   15  N           1     -21.213  -7.594  -3.360  0.00  0.00    -0.336 N 
HETATM   16  C           1     -22.170  -8.086  -2.374  0.00  0.00     0.188 C 
HETATM   17  C           1     -19.933  -8.178  -2.969  0.00  0.00     0.127 C 
HETATM   18  C           1     -21.765  -9.536  -2.169  0.00  0.00     0.038 C 
HETATM   19  C           1     -20.292  -9.595  -2.556  0.00  0.00     0.022 C 
HETATM   20  O           1     -22.581  -6.358  -4.621  0.00  0.00    -0.271 OA
BRANCH  16  21
HETATM   21  C           1     -22.059  -7.310  -1.084  0.00  0.00     0.196 C 
HETATM   22  O           1     -22.274  -6.079  -1.074  0.00  0.00    -0.646 OA
HETATM   23  O           1     -21.750  -7.900  -0.026  0.00  0.00    -0.646 OA
ENDBRANCH  16  21
ENDBRANCH   1  14
TORSDOF 8
ENDMDL
MODEL 5
REMARK VINA RESULT:      -5.6      2.924      6.490
REMARK  8 active torsions:
REMARK  status: ('A' for Active; 'I' for Inactive)
REMARK    1  A    between atoms: C_1  and  C_7 
REMARK    2  A    between atoms: C_1  and  C_9 
REMARK    3  A    between atoms: C_6  and  C_9 
REMARK    4  A    between atoms: C_6  and  N_12 
REMARK    5  A    between atoms: C_7  and  C_20 
REMARK       I    between atoms: N_11  and  C_21 
REMARK    6  A    between atoms: N_18  and  C_20 
REMARK    7  A    between atoms: C_19  and  C_22 
REMARK    8  A    between atoms: C_20  and  C_21 
ROOT
HETATM    1  C           1     -21.379  -5.103  -7.373  0.00  0.00     0.275 C 
ENDROOT
BRANCH   1   2
HETATM    2  C           1     -20.898  -5.006  -8.815  0.00  0.00     0.042 C 
BRANCH   2   3
HETATM    3  C           1     -21.781  -4.031  -9.582  0.00  0.00     0.004 C 
BRANCH   3   4
HETATM    4  C           1     -23.003  -4.765 -10.119  0.00  0.00     0.027 C 
BRANCH   4   5
HETATM    5  C           1     -24.145  -3.777 -10.314  0.00  0.00     0.229 C 
BRANCH   5   6
HETATM    6  N           1     -24.587  -3.253  -8.980  0.00  0.00    -0.079 N 
HETATM    7  H           1     -23.807  -2.716  -8.540  0.00  0.00     0.274 HD
HETATM    8  H           1     -24.852  -4.054  -8.362  0.00  0.00     0.274 HD
HETATM    9  H           1     -25.412  -2.625  -9.110  0.00  0.00     0.274 HD
ENDBRANCH   5   6
ENDBRANCH   4   5
ENDBRANCH   3   4
ENDBRANCH   2   3
ENDBRANCH   1   2
BRANCH   1  10
HETATM   10  N           1     -21.162  -3.788  -6.685  0.00  0.00    -0.067 N 
HETATM   11  H           1     -20.290  -3.343  -7.052  0.00  0.00     0.275 HD
HETATM   12  H           1     -21.977  -3.160  -6.867  0.00  0.00     0.275 HD
HETATM   13  H           1     -21.066  -3.944  -5.656  0.00  0.00     0.275 HD
ENDBRANCH   1  10
BRANCH   1  14
HETATM   14  C           1     -20.602  -6.179  -6.654  0.00  0.00     0.251 C 
HETATM   15  N           1     -21.103  -6.735  -5.508  0.00  0.00    -0.336 N 
HETATM   16  C           1     -20.495  -7.778  -4.688  0.00  0.00     0.188 C 
HETATM   17  C           1     -22.360  -6.414  -4.840  0.00  0.00     0.127 C 
HETATM   18  C           1     -20.772  -7.325  -3.264  0.00  0.00     0.038 C 
HETATM   19  C           1     -22.002  -6.431  -3.364  0.00  0.00     0.022 C 
HETATM   20  O           1     -19.539  -6.551  -7.092  0.00  0.00    -0.271 OA
BRANCH  16  21
HETATM   21  C           1     -21.136  -9.117  -4.959  0.00  0.00     0.196 C 
HETATM   22  O           1     -21.097  -9.608  -6.107  0.00  0.00    -0.646 OA
HETATM   23  O           1     -21.707  -9.735  -4.034  0.00  0.00    -0.646 OA
ENDBRANCH  16  21
ENDBRANCH   1  14
TORSDOF 8
ENDMDL
MODEL 6
REMARK VINA RESULT:      -5.4      3.383      7.142
REMARK  8 active torsions:
REMARK  status: ('A' for Active; 'I' for Inactive)
REMARK    1  A    between atoms: C_1  and  C_7 
REMARK    2  A    between atoms: C_1  and  C_9 
REMARK    3  A    between atoms: C_6  and  C_9 
REMARK    4  A    between atoms: C_6  and  N_12 
REMARK    5  A    between atoms: C_7  and  C_20 
REMARK       I    between atoms: N_11  and  C_21 
REMARK    6  A    between atoms: N_18  and  C_20 
REMARK    7  A    between atoms: C_19  and  C_22 
REMARK    8  A    between atoms: C_20  and  C_21 
ROOT
HETATM    1  C           1     -21.004  -5.722  -5.949  0.00  0.00     0.275 C 
ENDROOT
BRANCH   1   2
HETATM    2  C           1     -20.920  -5.894  -7.460  0.00  0.00     0.042 C 
BRANCH   2   3
HETATM    3  C           1     -20.930  -4.526  -8.129  0.00  0.00     0.004 C 
BRANCH   3   4
HETATM    4  C           1     -22.151  -4.409  -9.032  0.00  0.00     0.027 C 
BRANCH   4   5
HETATM    5  C           1     -23.385  -4.132  -8.184  0.00  0.00     0.229 C 
BRANCH   5   6
HETATM    6  N           1     -24.402  -3.397  -9.006  0.00  0.00    -0.079 N 
HETATM    7  H           1     -24.799  -4.040  -9.727  0.00  0.00     0.274 HD
HETATM    8  H           1     -23.945  -2.584  -9.480  0.00  0.00     0.274 HD
HETATM    9  H           1     -25.169  -3.053  -8.385  0.00  0.00     0.274 HD
ENDBRANCH   5   6
ENDBRANCH   4   5
ENDBRANCH   3   4
ENDBRANCH   2   3
ENDBRANCH   1   2
BRANCH   1  10
HETATM   10  N           1     -20.178  -4.542  -5.535  0.00  0.00    -0.067 N 
HETATM   11  H           1     -20.805  -3.787  -5.175  0.00  0.00     0.275 HD
HETATM   12  H           1     -19.511  -4.829  -4.783  0.00  0.00     0.275 HD
HETATM   13  H           1     -19.640  -4.185  -6.358  0.00  0.00     0.275 HD
ENDBRANCH   1  10
BRANCH   1  14
HETATM   14  C           1     -20.481  -6.965  -5.271  0.00  0.00     0.251 C 
HETATM   15  N           1     -20.968  -7.334  -4.046  0.00  0.00    -0.336 N 
HETATM   16  C           1     -20.583  -8.494  -3.249  0.00  0.00     0.188 C 
HETATM   17  C           1     -21.987  -6.652  -3.253  0.00  0.00     0.127 C 
HETATM   18  C           1     -20.536  -7.956  -1.828  0.00  0.00     0.038 C 
HETATM   19  C           1     -21.463  -6.747  -1.831  0.00  0.00     0.022 C 
HETATM   20  O           1     -19.632  -7.634  -5.810  0.00  0.00    -0.271 OA
BRANCH  16  21
HETATM   21  C           1     -21.607  -9.595  -3.372  0.00  0.00     0.196 C 
HETATM   22  O           1     -21.897 -10.056  -4.498  0.00  0.00    -0.646 OA
HETATM   23  O           1     -22.166 -10.045  -2.349  0.00  0.00    -0.646 OA
ENDBRANCH  16  21
ENDBRANCH   1  14
TORSDOF 8
ENDMDL
MODEL 7
REMARK VINA RESULT:      -5.3      1.122      1.152
REMARK  8 active torsions:
REMARK  status: ('A' for Active; 'I' for Inactive)
REMARK    1  A    between atoms: C_1  and  C_7 
REMARK    2  A    between atoms: C_1  and  C_9 
REMARK    3  A    between atoms: C_6  and  C_9 
REMARK    4  A    between atoms: C_6  and  N_12 
REMARK    5  A    between atoms: C_7  and  C_20 
REMARK       I    between atoms: N_11  and  C_21 
REMARK    6  A    between atoms: N_18  and  C_20 
REMARK    7  A    between atoms: C_19  and  C_22 
REMARK    8  A    between atoms: C_20  and  C_21 
ROOT
HETATM    1  C           1     -20.666  -5.122  -7.834  0.00  0.00     0.275 C 
ENDROOT
BRANCH   1   2
HETATM    2  C           1     -20.713  -5.286  -6.321  0.00  0.00     0.042 C 
BRANCH   2   3
HETATM    3  C           1     -20.284  -6.699  -5.949  0.00  0.00     0.004 C 
BRANCH   3   4
HETATM    4  C           1     -20.966  -7.113  -4.651  0.00  0.00     0.027 C 
BRANCH   4   5
HETATM    5  C           1     -22.315  -6.416  -4.541  0.00  0.00     0.229 C 
BRANCH   5   6
HETATM    6  N           1     -22.622  -6.143  -3.098  0.00  0.00    -0.079 N 
HETATM    7  H           1     -23.399  -6.766  -2.783  0.00  0.00     0.274 HD
HETATM    8  H           1     -22.908  -5.144  -2.986  0.00  0.00     0.274 HD
HETATM    9  H           1     -21.771  -6.329  -2.521  0.00  0.00     0.274 HD
ENDBRANCH   5   6
ENDBRANCH   4   5
ENDBRANCH   3   4
ENDBRANCH   2   3
ENDBRANCH   1   2
BRANCH   1  10
HETATM   10  N           1     -19.292  -4.684  -8.246  0.00  0.00    -0.067 N 
HETATM   11  H           1     -18.939  -3.967  -7.573  0.00  0.00     0.275 HD
HETATM   12  H           1     -18.648  -5.507  -8.248  0.00  0.00     0.275 HD
HETATM   13  H           1     -19.330  -4.271  -9.206  0.00  0.00     0.275 HD
ENDBRANCH   1  10
BRANCH   1  14
HETATM   14  C           1     -21.673  -4.080  -8.260  0.00  0.00     0.251 C 
HETATM   15  N           1     -21.982  -3.928  -9.585  0.00  0.00    -0.336 N 
HETATM   16  C           1     -22.924  -2.981 -10.174  0.00  0.00     0.188 C 
HETATM   17  C           1     -21.441  -4.677 -10.716  0.00  0.00     0.127 C 
HETATM   18  C           1     -22.216  -2.503 -11.431  0.00  0.00     0.038 C 
HETATM   19  C           1     -21.244  -3.620 -11.789  0.00  0.00     0.022 C 
HETATM   20  O           1     -22.206  -3.382  -7.430  0.00  0.00    -0.271 OA
BRANCH  16  21
HETATM   21  C           1     -24.226  -3.662 -10.518  0.00  0.00     0.196 C 
HETATM   22  O           1     -24.584  -4.681  -9.889  0.00  0.00    -0.646 OA
HETATM   23  O           1     -24.946  -3.207 -11.433  0.00  0.00    -0.646 OA
ENDBRANCH  16  21
ENDBRANCH   1  14
TORSDOF 8
ENDMDL
MODEL 8
REMARK VINA RESULT:      -5.3      2.718      6.654
REMARK  8 active torsions:
REMARK  status: ('A' for Active; 'I' for Inactive)
REMARK    1  A    between atoms: C_1  and  C_7 
REMARK    2  A    between atoms: C_1  and  C_9 
REMARK    3  A    between atoms: C_6  and  C_9 
REMARK    4  A    between atoms: C_6  and  N_12 
REMARK    5  A    between atoms: C_7  and  C_20 
REMARK       I    between atoms: N_11  and  C_21 
REMARK    6  A    between atoms: N_18  and  C_20 
REMARK    7  A    between atoms: C_19  and  C_22 
REMARK    8  A    between atoms: C_20  and  C_21 
ROOT
HETATM    1  C           1     -21.090  -4.884  -7.048  0.00  0.00     0.275 C 
ENDROOT
BRANCH   1   2
HETATM    2  C           1     -21.960  -3.900  -7.818  0.00  0.00     0.042 C 
BRANCH   2   3
HETATM    3  C           1     -22.500  -4.573  -9.073  0.00  0.00     0.004 C 
BRANCH   3   4
HETATM    4  C           1     -22.788  -3.518 -10.133  0.00  0.00     0.027 C 
BRANCH   4   5
HETATM    5  C           1     -24.292  -3.402 -10.340  0.00  0.00     0.229 C 
BRANCH   5   6
HETATM    6  N           1     -24.983  -4.526  -9.626  0.00  0.00    -0.079 N 
HETATM    7  H           1     -24.270  -5.157  -9.196  0.00  0.00     0.274 HD
HETATM    8  H           1     -25.561  -5.068 -10.308  0.00  0.00     0.274 HD
HETATM    9  H           1     -25.600  -4.136  -8.878  0.00  0.00     0.274 HD
ENDBRANCH   5   6
ENDBRANCH   4   5
ENDBRANCH   3   4
ENDBRANCH   2   3
ENDBRANCH   1   2
BRANCH   1  10
HETATM   10  N           1     -20.491  -5.874  -8.001  0.00  0.00    -0.067 N 
HETATM   11  H           1     -20.065  -6.662  -7.462  0.00  0.00     0.275 HD
HETATM   12  H           1     -21.237  -6.246  -8.632  0.00  0.00     0.275 HD
HETATM   13  H           1     -19.753  -5.405  -8.574  0.00  0.00     0.275 HD
ENDBRANCH   1  10
BRANCH   1  14
HETATM   14  C           1     -21.934  -5.613  -6.030  0.00  0.00     0.251 C 
HETATM   15  N           1     -21.374  -6.587  -5.248  0.00  0.00    -0.336 N 
HETATM   16  C           1     -22.032  -7.390  -4.222  0.00  0.00     0.188 C 
HETATM   17  C           1     -19.989  -7.050  -5.259  0.00  0.00     0.127 C 
HETATM   18  C           1     -21.454  -8.781  -4.425  0.00  0.00     0.038 C 
HETATM   19  C           1     -20.109  -8.556  -5.104  0.00  0.00     0.022 C 
HETATM   20  O           1     -23.103  -5.336  -5.907  0.00  0.00    -0.271 OA
BRANCH  16  21
HETATM   21  C           1     -21.707  -6.870  -2.843  0.00  0.00     0.196 C 
HETATM   22  O           1     -20.956  -7.525  -2.089  0.00  0.00    -0.646 OA
HETATM   23  O           1     -22.189  -5.784  -2.455  0.00  0.00    -0.646 OA
ENDBRANCH  16  21
ENDBRANCH   1  14
TORSDOF 8
ENDMDL
MODEL 9
REMARK VINA RESULT:      -5.3     11.294     13.562
REMARK  8 active torsions:
REMARK  status: ('A' for Active; 'I' for Inactive)
REMARK    1  A    between atoms: C_1  and  C_7 
REMARK    2  A    between atoms: C_1  and  C_9 
REMARK    3  A    between atoms: C_6  and  C_9 
REMARK    4  A    between atoms: C_6  and  N_12 
REMARK    5  A    between atoms: C_7  and  C_20 
REMARK       I    between atoms: N_11  and  C_21 
REMARK    6  A    between atoms: N_18  and  C_20 
REMARK    7  A    between atoms: C_19  and  C_22 
REMARK    8  A    between atoms: C_20  and  C_21 
ROOT
HETATM    1  C           1     -25.375  -6.544 -19.783  0.00  0.00     0.275 C 
ENDROOT
BRANCH   1   2
HETATM    2  C           1     -25.013  -6.599 -21.261  0.00  0.00     0.042 C 
BRANCH   2   3
HETATM    3  C           1     -24.426  -7.965 -21.590  0.00  0.00     0.004 C 
BRANCH   3   4
HETATM    4  C           1     -23.568  -7.862 -22.844  0.00  0.00     0.027 C 
BRANCH   4   5
HETATM    5  C           1     -22.344  -8.756 -22.698  0.00  0.00     0.229 C 
BRANCH   5   6
HETATM    6  N           1     -22.246  -9.243 -21.282  0.00  0.00    -0.079 N 
HETATM    7  H           1     -22.891  -8.688 -20.677  0.00  0.00     0.274 HD
HETATM    8  H           1     -21.264  -9.129 -20.942  0.00  0.00     0.274 HD
HETATM    9  H           1     -22.513 -10.253 -21.243  0.00  0.00     0.274 HD
ENDBRANCH   5   6
ENDBRANCH   4   5
ENDBRANCH   3   4
ENDBRANCH   2   3
ENDBRANCH   1   2
BRANCH   1  10
HETATM   10  N           1     -24.558  -7.551 -19.030  0.00  0.00    -0.067 N 
HETATM   11  H           1     -24.099  -8.202 -19.707  0.00  0.00     0.275 HD
HETATM   12  H           1     -23.826  -7.058 -18.470  0.00  0.00     0.275 HD
HETATM   13  H           1     -25.179  -8.095 -18.390  0.00  0.00     0.275 HD
ENDBRANCH   1  10
BRANCH   1  14
HETATM   14  C           1     -26.842  -6.859 -19.612  0.00  0.00     0.251 C 
HETATM   15  N           1     -27.464  -6.596 -18.421  0.00  0.00    -0.336 N 
HETATM   16  C           1     -28.863  -6.833 -18.079  0.00  0.00     0.188 C 
HETATM   17  C           1     -26.873  -6.018 -17.218  0.00  0.00     0.127 C 
HETATM   18  C           1     -28.802  -7.360 -16.654  0.00  0.00     0.038 C 
HETATM   19  C           1     -27.495  -6.820 -16.087  0.00  0.00     0.022 C 
HETATM   20  O           1     -27.466  -7.342 -20.527  0.00  0.00    -0.271 OA
BRANCH  16  21
HETATM   21  C           1     -29.656  -5.551 -18.143  0.00  0.00     0.196 C 
HETATM   22  O           1     -30.570  -5.339 -17.316  0.00  0.00    -0.646 OA
HETATM   23  O           1     -29.401  -4.701 -19.023  0.00  0.00    -0.646 OA
ENDBRANCH  16  21
ENDBRANCH   1  14
TORSDOF 8
ENDMDL
