MODEL 1
REMARK VINA RESULT:      -5.5      0.000      0.000
REMARK  9 active torsions:
REMARK  status: ('A' for Active; 'I' for Inactive)
REMARK    1  A    between atoms: N_1  and  C_4 
REMARK    2  A    between atoms: Se_2  and  C_3 
REMARK    3  A    between atoms: C_3  and  C_4 
REMARK    4  A    between atoms: C_4  and  C_5 
REMARK       I    between atoms: C_5  and  N_6 
REMARK    5  A    between atoms: N_6  and  C_10 
REMARK    6  A    between atoms: C_9  and  C_10 
REMARK    7  A    between atoms: C_10  and  C_19 
REMARK    8  A    between atoms: Se_17  and  C_20 
REMARK    9  A    between atoms: C_19  and  C_20 
ROOT
HETATM    1  C           1     -21.618  -4.563  -7.616  0.00  0.00     0.249 C 
HETATM    2  N           1     -22.176  -4.848  -8.834  0.00  0.00    -0.345 N 
HETATM    3  H           1     -22.226  -5.806  -9.156  0.00  0.00     0.163 HD
HETATM    4  O           1     -21.558  -3.419  -7.233  0.00  0.00    -0.271 OA
ENDROOT
BRANCH   1   5
HETATM    5  C           1     -21.079  -5.677  -6.753  0.00  0.00     0.274 C 
BRANCH   5   6
HETATM    6  N           1     -19.873  -6.279  -7.412  0.00  0.00    -0.067 N 
HETATM    7  H           1     -19.205  -6.612  -6.680  0.00  0.00     0.275 HD
HETATM    8  H           1     -20.167  -7.086  -8.006  0.00  0.00     0.275 HD
HETATM    9  H           1     -19.406  -5.559  -8.008  0.00  0.00     0.275 HD
ENDBRANCH   5   6
BRANCH   5  10
HETATM   10  C           1     -20.688  -5.121  -5.391  0.00  0.00     0.045 C 
BRANCH  10  11
HETATM   11 Se           1     -21.396  -6.276  -3.989  0.00  0.00     0.000 Se
HETATM   12  H           1     -22.432  -6.874  -4.845  0.00  0.00     0.000 HD
ENDBRANCH  10  11
ENDBRANCH   5  10
ENDBRANCH   1   5
BRANCH   2  13
HETATM   13  C           1     -22.694  -3.777  -9.663  0.00  0.00     0.185 C 
BRANCH  13  14
HETATM   14  C           1     -24.202  -3.824  -9.659  0.00  0.00     0.196 C 
HETATM   15  O           1     -24.859  -2.791  -9.403  0.00  0.00    -0.646 OA
HETATM   16  O           1     -24.794  -4.895  -9.911  0.00  0.00    -0.646 OA
ENDBRANCH  13  14
BRANCH  13  17
HETATM   17  C           1     -22.184  -3.947 -11.088  0.00  0.00     0.036 C 
BRANCH  17  18
HETATM   18  C           1     -22.413  -2.660 -11.867  0.00  0.00     0.003 C 
BRANCH  18  19
HETATM   19 Se           1     -23.930  -2.887 -13.069  0.00  0.00     0.000 Se
HETATM   20  C           1     -22.882  -2.671 -14.698  0.00  0.00     0.000 C 
ENDBRANCH  18  19
ENDBRANCH  17  18
ENDBRANCH  13  17
ENDBRANCH   2  13
TORSDOF 9
ENDMDL
MODEL 2
REMARK VINA RESULT:      -4.8      3.349      4.670
REMARK  9 active torsions:
REMARK  status: ('A' for Active; 'I' for Inactive)
REMARK    1  A    between atoms: N_1  and  C_4 
REMARK    2  A    between atoms: Se_2  and  C_3 
REMARK    3  A    between atoms: C_3  and  C_4 
REMARK    4  A    between atoms: C_4  and  C_5 
REMARK       I    between atoms: C_5  and  N_6 
REMARK    5  A    between atoms: N_6  and  C_10 
REMARK    6  A    between atoms: C_9  and  C_10 
REMARK    7  A    between atoms: C_10  and  C_19 
REMARK    8  A    between atoms: Se_17  and  C_20 
REMARK    9  A    between atoms: C_19  and  C_20 
ROOT
HETATM    1  C           1     -21.531  -6.408  -4.372  0.00  0.00     0.249 C 
HETATM    2  N           1     -21.035  -5.412  -5.170  0.00  0.00    -0.345 N 
HETATM    3  H           1     -20.489  -4.663  -4.764  0.00  0.00     0.163 HD
HETATM    4  O           1     -22.183  -7.302  -4.857  0.00  0.00    -0.271 OA
ENDROOT
BRANCH   1   5
HETATM    5  C           1     -21.263  -6.390  -2.887  0.00  0.00     0.274 C 
BRANCH   5   6
HETATM    6  N           1     -22.472  -5.865  -2.169  0.00  0.00    -0.067 N 
HETATM    7  H           1     -22.188  -5.493  -1.235  0.00  0.00     0.275 HD
HETATM    8  H           1     -22.905  -5.099  -2.731  0.00  0.00     0.275 HD
HETATM    9  H           1     -23.163  -6.638  -2.041  0.00  0.00     0.275 HD
ENDBRANCH   5   6
BRANCH   5  10
HETATM   10  C           1     -20.962  -7.803  -2.407  0.00  0.00     0.045 C 
BRANCH  10  11
HETATM   11 Se           1     -21.667  -8.043  -0.606  0.00  0.00     0.000 Se
HETATM   12  H           1     -22.017  -9.458  -0.807  0.00  0.00     0.000 HD
ENDBRANCH  10  11
ENDBRANCH   5  10
ENDBRANCH   1   5
BRANCH   2  13
HETATM   13  C           1     -21.292  -5.430  -6.597  0.00  0.00     0.185 C 
BRANCH  13  14
HETATM   14  C           1     -20.007  -5.716  -7.335  0.00  0.00     0.196 C 
HETATM   15  O           1     -19.411  -6.799  -7.156  0.00  0.00    -0.646 OA
HETATM   16  O           1     -19.539  -4.867  -8.125  0.00  0.00    -0.646 OA
ENDBRANCH  13  14
BRANCH  13  17
HETATM   17  C           1     -21.837  -4.076  -7.031  0.00  0.00     0.036 C 
BRANCH  17  18
HETATM   18  C           1     -23.128  -4.274  -7.813  0.00  0.00     0.003 C 
BRANCH  18  19
HETATM   19 Se           1     -22.764  -4.123  -9.721  0.00  0.00     0.000 Se
HETATM   20  C           1     -24.532  -3.437 -10.171  0.00  0.00     0.000 C 
ENDBRANCH  18  19
ENDBRANCH  17  18
ENDBRANCH  13  17
ENDBRANCH   2  13
TORSDOF 9
ENDMDL
MODEL 3
REMARK VINA RESULT:      -4.8      2.300      6.694
REMARK  9 active torsions:
REMARK  status: ('A' for Active; 'I' for Inactive)
REMARK    1  A    between atoms: N_1  and  C_4 
REMARK    2  A    between atoms: Se_2  and  C_3 
REMARK    3  A    between atoms: C_3  and  C_4 
REMARK    4  A    between atoms: C_4  and  C_5 
REMARK       I    between atoms: C_5  and  N_6 
REMARK    5  A    between atoms: N_6  and  C_10 
REMARK    6  A    between atoms: C_9  and  C_10 
REMARK    7  A    between atoms: C_10  and  C_19 
REMARK    8  A    between atoms: Se_17  and  C_20 
REMARK    9  A    between atoms: C_19  and  C_20 
ROOT
HETATM    1  C           1     -22.436  -4.127  -8.312  0.00  0.00     0.249 C 
HETATM    2  N           1     -22.072  -4.829  -7.194  0.00  0.00    -0.345 N 
HETATM    3  H           1     -22.680  -5.552  -6.830  0.00  0.00     0.163 HD
HETATM    4  O           1     -21.710  -3.264  -8.746  0.00  0.00    -0.271 OA
ENDROOT
BRANCH   1   5
HETATM    5  C           1     -23.742  -4.431  -9.003  0.00  0.00     0.274 C 
BRANCH   5   6
HETATM    6  N           1     -24.625  -3.219  -8.956  0.00  0.00    -0.067 N 
HETATM    7  H           1     -25.491  -3.439  -8.413  0.00  0.00     0.275 HD
HETATM    8  H           1     -24.115  -2.434  -8.494  0.00  0.00     0.275 HD
HETATM    9  H           1     -24.886  -2.941  -9.929  0.00  0.00     0.275 HD
ENDBRANCH   5   6
BRANCH   5  10
HETATM   10  C           1     -23.474  -4.808 -10.454  0.00  0.00     0.045 C 
BRANCH  10  11
HETATM   11 Se           1     -24.059  -3.361 -11.621  0.00  0.00     0.000 Se
HETATM   12  H           1     -22.698  -2.867 -11.882  0.00  0.00     0.000 HD
ENDBRANCH  10  11
ENDBRANCH   5  10
ENDBRANCH   1   5
BRANCH   2  13
HETATM   13  C           1     -20.817  -4.536  -6.530  0.00  0.00     0.185 C 
BRANCH  13  14
HETATM   14  C           1     -19.678  -5.124  -7.327  0.00  0.00     0.196 C 
HETATM   15  O           1     -19.730  -6.314  -7.707  0.00  0.00    -0.646 OA
HETATM   16  O           1     -18.684  -4.421  -7.607  0.00  0.00    -0.646 OA
ENDBRANCH  13  14
BRANCH  13  17
HETATM   17  C           1     -20.827  -5.146  -5.135  0.00  0.00     0.036 C 
BRANCH  17  18
HETATM   18  C           1     -21.862  -6.261  -5.074  0.00  0.00     0.003 C 
BRANCH  18  19
HETATM   19 Se           1     -21.431  -7.470  -3.607  0.00  0.00     0.000 Se
HETATM   20  C           1     -22.059  -6.263  -2.212  0.00  0.00     0.000 C 
ENDBRANCH  18  19
ENDBRANCH  17  18
ENDBRANCH  13  17
ENDBRANCH   2  13
TORSDOF 9
ENDMDL
MODEL 4
REMARK VINA RESULT:      -4.6      3.508      7.586
REMARK  9 active torsions:
REMARK  status: ('A' for Active; 'I' for Inactive)
REMARK    1  A    between atoms: N_1  and  C_4 
REMARK    2  A    between atoms: Se_2  and  C_3 
REMARK    3  A    between atoms: C_3  and  C_4 
REMARK    4  A    between atoms: C_4  and  C_5 
REMARK       I    between atoms: C_5  and  N_6 
REMARK    5  A    between atoms: N_6  and  C_10 
REMARK    6  A    between atoms: C_9  and  C_10 
REMARK    7  A    between atoms: C_10  and  C_19 
REMARK    8  A    between atoms: Se_17  and  C_20 
REMARK    9  A    between atoms: C_19  and  C_20 
ROOT
HETATM    1  C           1     -21.017  -5.165  -6.771  0.00  0.00     0.249 C 
HETATM    2  N           1     -21.221  -6.445  -6.329  0.00  0.00    -0.345 N 
HETATM    3  H           1     -21.684  -7.119  -6.925  0.00  0.00     0.163 HD
HETATM    4  O           1     -20.464  -4.361  -6.059  0.00  0.00    -0.271 OA
ENDROOT
BRANCH   1   5
HETATM    5  C           1     -21.481  -4.760  -8.149  0.00  0.00     0.274 C 
BRANCH   5   6
HETATM    6  N           1     -22.360  -3.548  -8.042  0.00  0.00    -0.067 N 
HETATM    7  H           1     -23.354  -3.822  -8.212  0.00  0.00     0.275 HD
HETATM    8  H           1     -22.272  -3.137  -7.086  0.00  0.00     0.275 HD
HETATM    9  H           1     -22.066  -2.842  -8.754  0.00  0.00     0.275 HD
ENDBRANCH   5   6
BRANCH   5  10
HETATM   10  C           1     -20.273  -4.436  -9.017  0.00  0.00     0.045 C 
BRANCH  10  11
HETATM   11 Se           1     -20.853  -4.145 -10.855  0.00  0.00     0.000 Se
HETATM   12  H           1     -20.991  -5.578 -11.160  0.00  0.00     0.000 HD
ENDBRANCH  10  11
ENDBRANCH   5  10
ENDBRANCH   1   5
BRANCH   2  13
HETATM   13  C           1     -20.774  -6.834  -5.005  0.00  0.00     0.185 C 
BRANCH  13  14
HETATM   14  C           1     -20.283  -8.261  -5.041  0.00  0.00     0.196 C 
HETATM   15  O           1     -19.310  -8.605  -4.335  0.00  0.00    -0.646 OA
HETATM   16  O           1     -20.849  -9.097  -5.777  0.00  0.00    -0.646 OA
ENDBRANCH  13  14
BRANCH  13  17
HETATM   17  C           1     -21.934  -6.721  -4.025  0.00  0.00     0.036 C 
BRANCH  17  18
HETATM   18  C           1     -21.456  -6.046  -2.747  0.00  0.00     0.003 C 
BRANCH  18  19
HETATM   19 Se           1     -22.240  -6.943  -1.204  0.00  0.00     0.000 Se
HETATM   20  C           1     -20.861  -8.316  -1.097  0.00  0.00     0.000 C 
ENDBRANCH  18  19
ENDBRANCH  17  18
ENDBRANCH  13  17
ENDBRANCH   2  13
TORSDOF 9
ENDMDL
MODEL 5
REMARK VINA RESULT:      -4.3      3.868      7.476
REMARK  9 active torsions:
REMARK  status: ('A' for Active; 'I' for Inactive)
REMARK    1  A    between atoms: N_1  and  C_4 
REMARK    2  A    between atoms: Se_2  and  C_3 
REMARK    3  A    between atoms: C_3  and  C_4 
REMARK    4  A    between atoms: C_4  and  C_5 
REMARK       I    between atoms: C_5  and  N_6 
REMARK    5  A    between atoms: N_6  and  C_10 
REMARK    6  A    between atoms: C_9  and  C_10 
REMARK    7  A    between atoms: C_10  and  C_19 
REMARK    8  A    between atoms: Se_17  and  C_20 
REMARK    9  A    between atoms: C_19  and  C_20 
ROOT
HETATM    1  C           1     -21.393  -5.519  -5.707  0.00  0.00     0.249 C 
HETATM    2  N           1     -20.785  -6.399  -4.852  0.00  0.00    -0.345 N 
HETATM    3  H           1     -19.777  -6.403  -4.762  0.00  0.00     0.163 HD
HETATM    4  O           1     -22.596  -5.515  -5.814  0.00  0.00    -0.271 OA
ENDROOT
BRANCH   1   5
HETATM    5  C           1     -20.561  -4.553  -6.514  0.00  0.00     0.274 C 
BRANCH   5   6
HETATM    6  N           1     -19.650  -5.321  -7.426  0.00  0.00    -0.067 N 
HETATM    7  H           1     -19.832  -6.345  -7.319  0.00  0.00     0.275 HD
HETATM    8  H           1     -19.828  -5.038  -8.415  0.00  0.00     0.275 HD
HETATM    9  H           1     -18.656  -5.116  -7.177  0.00  0.00     0.275 HD
ENDBRANCH   5   6
BRANCH   5  10
HETATM   10  C           1     -21.476  -3.663  -7.343  0.00  0.00     0.045 C 
BRANCH  10  11
HETATM   11 Se           1     -21.573  -4.346  -9.166  0.00  0.00     0.000 Se
HETATM   12  H           1     -21.820  -3.027  -9.769  0.00  0.00     0.000 HD
ENDBRANCH  10  11
ENDBRANCH   5  10
ENDBRANCH   1   5
BRANCH   2  13
HETATM   13  C           1     -21.585  -7.328  -4.076  0.00  0.00     0.185 C 
BRANCH  13  14
HETATM   14  C           1     -21.642  -6.863  -2.642  0.00  0.00     0.196 C 
HETATM   15  O           1     -22.408  -5.931  -2.317  0.00  0.00    -0.646 OA
HETATM   16  O           1     -20.922  -7.411  -1.779  0.00  0.00    -0.646 OA
ENDBRANCH  13  14
BRANCH  13  17
HETATM   17  C           1     -20.955  -8.713  -4.137  0.00  0.00     0.036 C 
BRANCH  17  18
HETATM   18  C           1     -19.615  -8.632  -4.856  0.00  0.00     0.003 C 
BRANCH  18  19
HETATM   19 Se           1     -18.245  -9.502  -3.778  0.00  0.00     0.000 Se
HETATM   20  C           1     -17.144 -10.019  -5.300  0.00  0.00     0.000 C 
ENDBRANCH  18  19
ENDBRANCH  17  18
ENDBRANCH  13  17
ENDBRANCH   2  13
TORSDOF 9
ENDMDL
MODEL 6
REMARK VINA RESULT:      -4.3      5.462      8.928
REMARK  9 active torsions:
REMARK  status: ('A' for Active; 'I' for Inactive)
REMARK    1  A    between atoms: N_1  and  C_4 
REMARK    2  A    between atoms: Se_2  and  C_3 
REMARK    3  A    between atoms: C_3  and  C_4 
REMARK    4  A    between atoms: C_4  and  C_5 
REMARK       I    between atoms: C_5  and  N_6 
REMARK    5  A    between atoms: N_6  and  C_10 
REMARK    6  A    between atoms: C_9  and  C_10 
REMARK    7  A    between atoms: C_10  and  C_19 
REMARK    8  A    between atoms: Se_17  and  C_20 
REMARK    9  A    between atoms: C_19  and  C_20 
ROOT
HETATM    1  C           1     -20.917  -7.196  -4.756  0.00  0.00     0.249 C 
HETATM    2  N           1     -20.775  -6.880  -3.432  0.00  0.00    -0.345 N 
HETATM    3  H           1     -20.210  -6.086  -3.158  0.00  0.00     0.163 HD
HETATM    4  O           1     -21.591  -8.143  -5.082  0.00  0.00    -0.271 OA
ENDROOT
BRANCH   1   5
HETATM    5  C           1     -20.232  -6.359  -5.810  0.00  0.00     0.274 C 
BRANCH   5   6
HETATM    6  N           1     -20.870  -6.617  -7.143  0.00  0.00    -0.067 N 
HETATM    7  H           1     -21.664  -5.952  -7.285  0.00  0.00     0.275 HD
HETATM    8  H           1     -20.163  -6.481  -7.899  0.00  0.00     0.275 HD
HETATM    9  H           1     -21.229  -7.598  -7.173  0.00  0.00     0.275 HD
ENDBRANCH   5   6
BRANCH   5  10
HETATM   10  C           1     -20.371  -4.885  -5.457  0.00  0.00     0.045 C 
BRANCH  10  11
HETATM   11 Se           1     -21.111  -3.919  -6.980  0.00  0.00     0.000 Se
HETATM   12  H           1     -19.844  -3.897  -7.728  0.00  0.00     0.000 HD
ENDBRANCH  10  11
ENDBRANCH   5  10
ENDBRANCH   1   5
BRANCH   2  13
HETATM   13  C           1     -21.433  -7.684  -2.420  0.00  0.00     0.185 C 
BRANCH  13  14
HETATM   14  C           1     -22.191  -6.782  -1.477  0.00  0.00     0.196 C 
HETATM   15  O           1     -22.549  -7.206  -0.357  0.00  0.00    -0.646 OA
HETATM   16  O           1     -22.463  -5.610  -1.818  0.00  0.00    -0.646 OA
ENDBRANCH  13  14
BRANCH  13  17
HETATM   17  C           1     -20.389  -8.471  -1.639  0.00  0.00     0.036 C 
BRANCH  17  18
HETATM   18  C           1     -20.697  -9.959  -1.734  0.00  0.00     0.003 C 
BRANCH  18  19
HETATM   19 Se           1     -21.340 -10.602  -0.010  0.00  0.00     0.000 Se
HETATM   20  C           1     -23.217 -10.625  -0.535  0.00  0.00     0.000 C 
ENDBRANCH  18  19
ENDBRANCH  17  18
ENDBRANCH  13  17
ENDBRANCH   2  13
TORSDOF 9
ENDMDL
MODEL 7
REMARK VINA RESULT:      -4.3      2.636      6.655
REMARK  9 active torsions:
REMARK  status: ('A' for Active; 'I' for Inactive)
REMARK    1  A    between atoms: N_1  and  C_4 
REMARK    2  A    between atoms: Se_2  and  C_3 
REMARK    3  A    between atoms: C_3  and  C_4 
REMARK    4  A    between atoms: C_4  and  C_5 
REMARK       I    between atoms: C_5  and  N_6 
REMARK    5  A    between atoms: N_6  and  C_10 
REMARK    6  A    between atoms: C_9  and  C_10 
REMARK    7  A    between atoms: C_10  and  C_19 
REMARK    8  A    between atoms: Se_17  and  C_20 
REMARK    9  A    between atoms: C_19  and  C_20 
ROOT
HETATM    1  C           1     -22.828  -3.288 -11.838  0.00  0.00     0.249 C 
HETATM    2  N           1     -22.536  -4.290 -10.952  0.00  0.00    -0.345 N 
HETATM    3  H           1     -22.941  -5.209 -11.076  0.00  0.00     0.163 HD
HETATM    4  O           1     -22.344  -2.191 -11.690  0.00  0.00    -0.271 OA
ENDROOT
BRANCH   1   5
HETATM    5  C           1     -23.753  -3.553 -13.001  0.00  0.00     0.274 C 
BRANCH   5   6
HETATM    6  N           1     -25.087  -2.921 -12.731  0.00  0.00    -0.067 N 
HETATM    7  H           1     -25.512  -2.607 -13.633  0.00  0.00     0.275 HD
HETATM    8  H           1     -25.716  -3.617 -12.274  0.00  0.00     0.275 HD
HETATM    9  H           1     -24.960  -2.098 -12.101  0.00  0.00     0.275 HD
ENDBRANCH   5   6
BRANCH   5  10
HETATM   10  C           1     -23.157  -2.960 -14.270  0.00  0.00     0.045 C 
BRANCH  10  11
HETATM   11 Se           1     -24.058  -1.284 -14.690  0.00  0.00     0.000 Se
HETATM   12  H           1     -24.387  -1.673 -16.071  0.00  0.00     0.000 HD
ENDBRANCH  10  11
ENDBRANCH   5  10
ENDBRANCH   1   5
BRANCH   2  13
HETATM   13  C           1     -21.647  -4.035  -9.835  0.00  0.00     0.185 C 
BRANCH  13  14
HETATM   14  C           1     -20.259  -4.515 -10.178  0.00  0.00     0.196 C 
HETATM   15  O           1     -19.753  -4.227 -11.284  0.00  0.00    -0.646 OA
HETATM   16  O           1     -19.615  -5.203  -9.357  0.00  0.00    -0.646 OA
ENDBRANCH  13  14
BRANCH  13  17
HETATM   17  C           1     -22.152  -4.778  -8.605  0.00  0.00     0.036 C 
BRANCH  17  18
HETATM   18  C           1     -22.011  -3.886  -7.379  0.00  0.00     0.003 C 
BRANCH  18  19
HETATM   19 Se           1     -20.680  -4.643  -6.173  0.00  0.00     0.000 Se
HETATM   20  C           1     -21.833  -6.080  -5.538  0.00  0.00     0.000 C 
ENDBRANCH  18  19
ENDBRANCH  17  18
ENDBRANCH  13  17
ENDBRANCH   2  13
TORSDOF 9
ENDMDL
MODEL 8
REMARK VINA RESULT:      -4.2      4.038      7.446
REMARK  9 active torsions:
REMARK  status: ('A' for Active; 'I' for Inactive)
REMARK    1  A    between atoms: N_1  and  C_4 
REMARK    2  A    between atoms: Se_2  and  C_3 
REMARK    3  A    between atoms: C_3  and  C_4 
REMARK    4  A    between atoms: C_4  and  C_5 
REMARK       I    between atoms: C_5  and  N_6 
REMARK    5  A    between atoms: N_6  and  C_10 
REMARK    6  A    between atoms: C_9  and  C_10 
REMARK    7  A    between atoms: C_10  and  C_19 
REMARK    8  A    between atoms: Se_17  and  C_20 
REMARK    9  A    between atoms: C_19  and  C_20 
ROOT
HETATM    1  C           1     -21.381  -5.836  -5.616  0.00  0.00     0.249 C 
HETATM    2  N           1     -20.792  -6.741  -4.773  0.00  0.00    -0.345 N 
HETATM    3  H           1     -19.786  -6.847  -4.768  0.00  0.00     0.163 HD
HETATM    4  O           1     -22.582  -5.710  -5.622  0.00  0.00    -0.271 OA
ENDROOT
BRANCH   1   5
HETATM    5  C           1     -20.529  -4.996  -6.536  0.00  0.00     0.274 C 
BRANCH   5   6
HETATM    6  N           1     -19.980  -5.860  -7.634  0.00  0.00    -0.067 N 
HETATM    7  H           1     -19.038  -6.218  -7.357  0.00  0.00     0.275 HD
HETATM    8  H           1     -20.624  -6.666  -7.797  0.00  0.00     0.275 HD
HETATM    9  H           1     -19.895  -5.297  -8.509  0.00  0.00     0.275 HD
ENDBRANCH   5   6
BRANCH   5  10
HETATM   10  C           1     -21.377  -3.886  -7.141  0.00  0.00     0.045 C 
BRANCH  10  11
HETATM   11 Se           1     -21.802  -4.325  -8.991  0.00  0.00     0.000 Se
HETATM   12  H           1     -21.173  -5.655  -8.941  0.00  0.00     0.000 HD
ENDBRANCH  10  11
ENDBRANCH   5  10
ENDBRANCH   1   5
BRANCH   2  13
HETATM   13  C           1     -21.611  -7.548  -3.889  0.00  0.00     0.185 C 
BRANCH  13  14
HETATM   14  C           1     -21.596  -6.947  -2.505  0.00  0.00     0.196 C 
HETATM   15  O           1     -20.896  -7.464  -1.607  0.00  0.00    -0.646 OA
HETATM   16  O           1     -22.284  -5.934  -2.256  0.00  0.00    -0.646 OA
ENDBRANCH  13  14
BRANCH  13  17
HETATM   17  C           1     -21.054  -8.964  -3.834  0.00  0.00     0.036 C 
BRANCH  17  18
HETATM   18  C           1     -19.680  -8.996  -4.490  0.00  0.00     0.003 C 
BRANCH  18  19
HETATM   19 Se           1     -19.332 -10.784  -5.184  0.00  0.00     0.000 Se
HETATM   20  C           1     -21.152 -11.070  -5.819  0.00  0.00     0.000 C 
ENDBRANCH  18  19
ENDBRANCH  17  18
ENDBRANCH  13  17
ENDBRANCH   2  13
TORSDOF 9
ENDMDL
MODEL 9
REMARK VINA RESULT:      -3.9      2.690      6.329
REMARK  9 active torsions:
REMARK  status: ('A' for Active; 'I' for Inactive)
REMARK    1  A    between atoms: N_1  and  C_4 
REMARK    2  A    between atoms: Se_2  and  C_3 
REMARK    3  A    between atoms: C_3  and  C_4 
REMARK    4  A    between atoms: C_4  and  C_5 
REMARK       I    between atoms: C_5  and  N_6 
REMARK    5  A    between atoms: N_6  and  C_10 
REMARK    6  A    between atoms: C_9  and  C_10 
REMARK    7  A    between atoms: C_10  and  C_19 
REMARK    8  A    between atoms: Se_17  and  C_20 
REMARK    9  A    between atoms: C_19  and  C_20 
ROOT
HETATM    1  C           1     -22.818  -3.125 -12.468  0.00  0.00     0.249 C 
HETATM    2  N           1     -22.799  -4.410 -11.997  0.00  0.00    -0.345 N 
HETATM    3  H           1     -23.050  -5.177 -12.607  0.00  0.00     0.163 HD
HETATM    4  O           1     -22.518  -2.210 -11.740  0.00  0.00    -0.271 OA
ENDROOT
BRANCH   1   5
HETATM    5  C           1     -23.214  -2.852 -13.899  0.00  0.00     0.274 C 
BRANCH   5   6
HETATM    6  N           1     -23.946  -4.041 -14.449  0.00  0.00    -0.067 N 
HETATM    7  H           1     -24.976  -3.874 -14.390  0.00  0.00     0.275 HD
HETATM    8  H           1     -23.674  -4.186 -15.447  0.00  0.00     0.275 HD
HETATM    9  H           1     -23.699  -4.889 -13.892  0.00  0.00     0.275 HD
ENDBRANCH   5   6
BRANCH   5  10
HETATM   10  C           1     -24.120  -1.629 -13.951  0.00  0.00     0.045 C 
BRANCH  10  11
HETATM   11 Se           1     -23.662  -0.546 -15.506  0.00  0.00     0.000 Se
HETATM   12  H           1     -22.818   0.391 -14.748  0.00  0.00     0.000 HD
ENDBRANCH  10  11
ENDBRANCH   5  10
ENDBRANCH   1   5
BRANCH   2  13
HETATM   13  C           1     -22.418  -4.673 -10.622  0.00  0.00     0.185 C 
BRANCH  13  14
HETATM   14  C           1     -23.567  -4.324  -9.708  0.00  0.00     0.196 C 
HETATM   15  O           1     -23.356  -3.693  -8.650  0.00  0.00    -0.646 OA
HETATM   16  O           1     -24.731  -4.668 -10.009  0.00  0.00    -0.646 OA
ENDBRANCH  13  14
BRANCH  13  17
HETATM   17  C           1     -21.207  -3.824 -10.260  0.00  0.00     0.036 C 
BRANCH  17  18
HETATM   18  C           1     -20.085  -4.725  -9.761  0.00  0.00     0.003 C 
BRANCH  18  19
HETATM   19 Se           1     -19.765  -4.380  -7.870  0.00  0.00     0.000 Se
HETATM   20  C           1     -20.917  -5.822  -7.244  0.00  0.00     0.000 C 
ENDBRANCH  18  19
ENDBRANCH  17  18
ENDBRANCH  13  17
ENDBRANCH   2  13
TORSDOF 9
ENDMDL
