MODEL 1
REMARK VINA RESULT:      -5.9      0.000      0.000
REMARK  9 active torsions:
REMARK  status: ('A' for Active; 'I' for Inactive)
REMARK    1  A    between atoms: N_5  and  C_11 
REMARK    2  A    between atoms: C_8  and  C_21 
REMARK    3  A    between atoms: C_8  and  C_19 
REMARK    4  A    between atoms: C_10  and  C_19 
REMARK    5  A    between atoms: C_11  and  C_12 
REMARK    6  A    between atoms: C_11  and  C_16 
REMARK       I    between atoms: C_12  and  N_13 
REMARK    7  A    between atoms: N_13  and  C_19 
REMARK    8  A    between atoms: C_15  and  C_16 
REMARK    9  A    between atoms: Se_17  and  C_21 
ROOT
HETATM    1  O           1     -21.541  -3.225  -7.230  0.00  0.00    -0.271 OA
HETATM    2  H           1     -22.219  -5.771  -8.933  0.00  0.00     0.163 HD
HETATM    3  C           1     -21.607  -4.398  -7.510  0.00  0.00     0.249 C 
HETATM    4  N           1     -22.163  -4.789  -8.699  0.00  0.00    -0.345 N 
ENDROOT
BRANCH   3   5
HETATM    5  C           1     -21.078  -5.434  -6.548  0.00  0.00     0.284 C 
BRANCH   5   6
HETATM    6  N           1     -20.055  -4.803  -5.650  0.00  0.00    -0.066 N 
HETATM    7  H           1     -19.197  -4.577  -6.203  0.00  0.00     0.275 HD
HETATM    8  H           1     -20.445  -3.926  -5.240  0.00  0.00     0.275 HD
HETATM    9  H           1     -19.809  -5.468  -4.882  0.00  0.00     0.275 HD
ENDBRANCH   5   6
BRANCH   5  10
HETATM   10  C           1     -22.224  -5.980  -5.707  0.00  0.00     0.155 C 
BRANCH  10  11
HETATM   11  C           1     -21.682  -6.520  -4.407  0.00  0.00     0.175 C 
HETATM   12  O           1     -22.026  -6.001  -3.323  0.00  0.00    -0.648 OA
HETATM   13  O           1     -20.890  -7.488  -4.413  0.00  0.00    -0.648 OA
ENDBRANCH  10  11
ENDBRANCH   5  10
ENDBRANCH   3   5
BRANCH   4  14
HETATM   14  C           1     -22.672  -3.793  -9.623  0.00  0.00     0.185 C 
BRANCH  14  15
HETATM   15  C           1     -22.133  -4.076 -11.019  0.00  0.00     0.036 C 
BRANCH  15  16
HETATM   16  C           1     -22.279  -2.830 -11.882  0.00  0.00     0.003 C 
BRANCH  16  17
HETATM   17 Se           1     -23.859  -3.002 -13.011  0.00  0.00     0.000 Se
HETATM   18  C           1     -22.910  -2.637 -14.674  0.00  0.00     0.000 C 
ENDBRANCH  16  17
ENDBRANCH  15  16
ENDBRANCH  14  15
BRANCH  14  19
HETATM   19  C           1     -24.180  -3.852  -9.644  0.00  0.00     0.196 C 
HETATM   20  O           1     -24.760  -4.932  -9.892  0.00  0.00    -0.646 OA
HETATM   21  O           1     -24.848  -2.822  -9.415  0.00  0.00    -0.646 OA
ENDBRANCH  14  19
ENDBRANCH   4  14
TORSDOF 9
ENDMDL
MODEL 2
REMARK VINA RESULT:      -5.7      3.540      6.934
REMARK  9 active torsions:
REMARK  status: ('A' for Active; 'I' for Inactive)
REMARK    1  A    between atoms: N_5  and  C_11 
REMARK    2  A    between atoms: C_8  and  C_21 
REMARK    3  A    between atoms: C_8  and  C_19 
REMARK    4  A    between atoms: C_10  and  C_19 
REMARK    5  A    between atoms: C_11  and  C_12 
REMARK    6  A    between atoms: C_11  and  C_16 
REMARK       I    between atoms: C_12  and  N_13 
REMARK    7  A    between atoms: N_13  and  C_19 
REMARK    8  A    between atoms: C_15  and  C_16 
REMARK    9  A    between atoms: Se_17  and  C_21 
ROOT
HETATM    1  O           1     -23.032  -3.178  -8.546  0.00  0.00    -0.271 OA
HETATM    2  H           1     -22.321  -6.202  -8.985  0.00  0.00     0.163 HD
HETATM    3  C           1     -23.128  -4.295  -8.995  0.00  0.00     0.249 C 
HETATM    4  N           1     -22.242  -5.266  -8.609  0.00  0.00    -0.345 N 
ENDROOT
BRANCH   3   5
HETATM    5  C           1     -24.222  -4.621  -9.981  0.00  0.00     0.284 C 
BRANCH   5   6
HETATM    6  N           1     -25.301  -3.582  -9.890  0.00  0.00    -0.066 N 
HETATM    7  H           1     -25.190  -2.895 -10.669  0.00  0.00     0.275 HD
HETATM    8  H           1     -26.235  -4.043  -9.964  0.00  0.00     0.275 HD
HETATM    9  H           1     -25.228  -3.085  -8.974  0.00  0.00     0.275 HD
ENDBRANCH   5   6
BRANCH   5  10
HETATM   10  C           1     -23.649  -4.634 -11.392  0.00  0.00     0.155 C 
BRANCH  10  11
HETATM   11  C           1     -23.971  -3.331 -12.079  0.00  0.00     0.175 C 
HETATM   12  O           1     -23.166  -2.376 -12.018  0.00  0.00    -0.648 OA
HETATM   13  O           1     -25.043  -3.204 -12.710  0.00  0.00    -0.648 OA
ENDBRANCH  10  11
ENDBRANCH   5  10
ENDBRANCH   3   5
BRANCH   4  14
HETATM   14  C           1     -21.190  -4.952  -7.662  0.00  0.00     0.185 C 
BRANCH  14  15
HETATM   15  C           1     -20.980  -6.137  -6.728  0.00  0.00     0.036 C 
BRANCH  15  16
HETATM   16  C           1     -21.078  -5.668  -5.282  0.00  0.00     0.003 C 
BRANCH  16  17
HETATM   17 Se           1     -21.154  -7.214  -4.099  0.00  0.00     0.000 Se
HETATM   18  C           1     -21.795  -6.209  -2.557  0.00  0.00     0.000 C 
ENDBRANCH  16  17
ENDBRANCH  15  16
ENDBRANCH  14  15
BRANCH  14  19
HETATM   19  C           1     -19.910  -4.667  -8.408  0.00  0.00     0.196 C 
HETATM   20  O           1     -19.866  -4.808  -9.650  0.00  0.00    -0.646 OA
HETATM   21  O           1     -18.894  -4.292  -7.785  0.00  0.00    -0.646 OA
ENDBRANCH  14  19
ENDBRANCH   4  14
TORSDOF 9
ENDMDL
MODEL 3
REMARK VINA RESULT:      -5.3      3.440      7.343
REMARK  9 active torsions:
REMARK  status: ('A' for Active; 'I' for Inactive)
REMARK    1  A    between atoms: N_5  and  C_11 
REMARK    2  A    between atoms: C_8  and  C_21 
REMARK    3  A    between atoms: C_8  and  C_19 
REMARK    4  A    between atoms: C_10  and  C_19 
REMARK    5  A    between atoms: C_11  and  C_12 
REMARK    6  A    between atoms: C_11  and  C_16 
REMARK       I    between atoms: C_12  and  N_13 
REMARK    7  A    between atoms: N_13  and  C_19 
REMARK    8  A    between atoms: C_15  and  C_16 
REMARK    9  A    between atoms: Se_17  and  C_21 
ROOT
HETATM    1  O           1     -21.716  -3.271  -7.487  0.00  0.00    -0.271 OA
HETATM    2  H           1     -22.719  -6.244  -7.464  0.00  0.00     0.163 HD
HETATM    3  C           1     -22.303  -4.256  -7.867  0.00  0.00     0.249 C 
HETATM    4  N           1     -22.227  -5.418  -7.146  0.00  0.00    -0.345 N 
ENDROOT
BRANCH   3   5
HETATM    5  C           1     -23.117  -4.206  -9.136  0.00  0.00     0.284 C 
BRANCH   5   6
HETATM    6  N           1     -24.363  -3.403  -8.898  0.00  0.00    -0.066 N 
HETATM    7  H           1     -24.826  -3.198  -9.812  0.00  0.00     0.275 HD
HETATM    8  H           1     -25.016  -3.946  -8.291  0.00  0.00     0.275 HD
HETATM    9  H           1     -24.112  -2.505  -8.426  0.00  0.00     0.275 HD
ENDBRANCH   5   6
BRANCH   5  10
HETATM   10  C           1     -22.298  -3.555 -10.241  0.00  0.00     0.155 C 
BRANCH  10  11
HETATM   11  C           1     -23.142  -3.421 -11.484  0.00  0.00     0.175 C 
HETATM   12  O           1     -23.907  -4.350 -11.822  0.00  0.00    -0.648 OA
HETATM   13  O           1     -23.078  -2.381 -12.175  0.00  0.00    -0.648 OA
ENDBRANCH  10  11
ENDBRANCH   5  10
ENDBRANCH   3   5
BRANCH   4  14
HETATM   14  C           1     -21.444  -5.466  -5.927  0.00  0.00     0.185 C 
BRANCH  14  15
HETATM   15  C           1     -22.061  -6.477  -4.968  0.00  0.00     0.036 C 
BRANCH  15  16
HETATM   16  C           1     -21.614  -6.166  -3.546  0.00  0.00     0.003 C 
BRANCH  16  17
HETATM   17 Se           1     -21.299  -7.831  -2.584  0.00  0.00     0.000 Se
HETATM   18  C           1     -22.154  -7.232  -0.938  0.00  0.00     0.000 C 
ENDBRANCH  16  17
ENDBRANCH  15  16
ENDBRANCH  14  15
BRANCH  14  19
HETATM   19  C           1     -20.031  -5.880  -6.254  0.00  0.00     0.196 C 
HETATM   20  O           1     -19.746  -7.091  -6.376  0.00  0.00    -0.646 OA
HETATM   21  O           1     -19.144  -5.012  -6.402  0.00  0.00    -0.646 OA
ENDBRANCH  14  19
ENDBRANCH   4  14
TORSDOF 9
ENDMDL
MODEL 4
REMARK VINA RESULT:      -5.2      3.677      7.445
REMARK  9 active torsions:
REMARK  status: ('A' for Active; 'I' for Inactive)
REMARK    1  A    between atoms: N_5  and  C_11 
REMARK    2  A    between atoms: C_8  and  C_21 
REMARK    3  A    between atoms: C_8  and  C_19 
REMARK    4  A    between atoms: C_10  and  C_19 
REMARK    5  A    between atoms: C_11  and  C_12 
REMARK    6  A    between atoms: C_11  and  C_16 
REMARK       I    between atoms: C_12  and  N_13 
REMARK    7  A    between atoms: N_13  and  C_19 
REMARK    8  A    between atoms: C_15  and  C_16 
REMARK    9  A    between atoms: Se_17  and  C_21 
ROOT
HETATM    1  O           1     -21.612  -2.373 -11.443  0.00  0.00    -0.271 OA
HETATM    2  H           1     -22.797  -5.163 -10.634  0.00  0.00     0.163 HD
HETATM    3  C           1     -22.244  -3.396 -11.559  0.00  0.00     0.249 C 
HETATM    4  N           1     -22.268  -4.306 -10.537  0.00  0.00    -0.345 N 
ENDROOT
BRANCH   3   5
HETATM    5  C           1     -23.007  -3.671 -12.832  0.00  0.00     0.284 C 
BRANCH   5   6
HETATM    6  N           1     -23.775  -4.952 -12.687  0.00  0.00    -0.066 N 
HETATM    7  H           1     -23.464  -5.448 -11.820  0.00  0.00     0.275 HD
HETATM    8  H           1     -24.795  -4.740 -12.619  0.00  0.00     0.275 HD
HETATM    9  H           1     -23.598  -5.559 -13.518  0.00  0.00     0.275 HD
ENDBRANCH   5   6
BRANCH   5  10
HETATM   10  C           1     -23.975  -2.527 -13.102  0.00  0.00     0.155 C 
BRANCH  10  11
HETATM   11  C           1     -23.729  -1.973 -14.483  0.00  0.00     0.175 C 
HETATM   12  O           1     -24.452  -1.054 -14.926  0.00  0.00    -0.648 OA
HETATM   13  O           1     -22.803  -2.433 -15.186  0.00  0.00    -0.648 OA
ENDBRANCH  10  11
ENDBRANCH   5  10
ENDBRANCH   3   5
BRANCH   4  14
HETATM   14  C           1     -21.535  -4.042  -9.314  0.00  0.00     0.185 C 
BRANCH  14  15
HETATM   15  C           1     -22.151  -4.840  -8.172  0.00  0.00     0.036 C 
BRANCH  15  16
HETATM   16  C           1     -21.871  -4.134  -6.851  0.00  0.00     0.003 C 
BRANCH  16  17
HETATM   17 Se           1     -20.769  -5.278  -5.722  0.00  0.00     0.000 Se
HETATM   18  C           1     -22.239  -6.435  -5.177  0.00  0.00     0.000 C 
ENDBRANCH  16  17
ENDBRANCH  15  16
ENDBRANCH  14  15
BRANCH  14  19
HETATM   19  C           1     -20.094  -4.452  -9.494  0.00  0.00     0.196 C 
HETATM   20  O           1     -19.761  -5.152 -10.475  0.00  0.00    -0.646 OA
HETATM   21  O           1     -19.233  -4.092  -8.662  0.00  0.00    -0.646 OA
ENDBRANCH  14  19
ENDBRANCH   4  14
TORSDOF 9
ENDMDL
MODEL 5
REMARK VINA RESULT:      -5.0      3.966      7.600
REMARK  9 active torsions:
REMARK  status: ('A' for Active; 'I' for Inactive)
REMARK    1  A    between atoms: N_5  and  C_11 
REMARK    2  A    between atoms: C_8  and  C_21 
REMARK    3  A    between atoms: C_8  and  C_19 
REMARK    4  A    between atoms: C_10  and  C_19 
REMARK    5  A    between atoms: C_11  and  C_12 
REMARK    6  A    between atoms: C_11  and  C_16 
REMARK       I    between atoms: C_12  and  N_13 
REMARK    7  A    between atoms: N_13  and  C_19 
REMARK    8  A    between atoms: C_15  and  C_16 
REMARK    9  A    between atoms: Se_17  and  C_21 
ROOT
HETATM    1  O           1     -20.049  -4.789  -5.908  0.00  0.00    -0.271 OA
HETATM    2  H           1     -21.869  -7.272  -6.513  0.00  0.00     0.163 HD
HETATM    3  C           1     -20.853  -5.468  -6.501  0.00  0.00     0.249 C 
HETATM    4  N           1     -21.195  -6.703  -6.017  0.00  0.00    -0.345 N 
ENDROOT
BRANCH   3   5
HETATM    5  C           1     -21.481  -4.955  -7.774  0.00  0.00     0.284 C 
BRANCH   5   6
HETATM    6  N           1     -22.615  -4.033  -7.434  0.00  0.00    -0.066 N 
HETATM    7  H           1     -22.693  -3.292  -8.167  0.00  0.00     0.275 HD
HETATM    8  H           1     -23.506  -4.576  -7.393  0.00  0.00     0.275 HD
HETATM    9  H           1     -22.434  -3.587  -6.506  0.00  0.00     0.275 HD
ENDBRANCH   5   6
BRANCH   5  10
HETATM   10  C           1     -20.439  -4.200  -8.586  0.00  0.00     0.155 C 
BRANCH  10  11
HETATM   11  C           1     -20.903  -4.083 -10.017  0.00  0.00     0.175 C 
HETATM   12  O           1     -22.017  -3.576 -10.273  0.00  0.00    -0.648 OA
HETATM   13  O           1     -20.174  -4.493 -10.947  0.00  0.00    -0.648 OA
ENDBRANCH  10  11
ENDBRANCH   5  10
ENDBRANCH   3   5
BRANCH   4  14
HETATM   14  C           1     -20.592  -7.195  -4.794  0.00  0.00     0.185 C 
BRANCH  14  15
HETATM   15  C           1     -21.676  -7.419  -3.748  0.00  0.00     0.036 C 
BRANCH  15  16
HETATM   16  C           1     -21.650  -6.279  -2.738  0.00  0.00     0.003 C 
BRANCH  16  17
HETATM   17 Se           1     -22.266  -6.928  -1.007  0.00  0.00     0.000 Se
HETATM   18  C           1     -21.807  -8.790  -1.359  0.00  0.00     0.000 C 
ENDBRANCH  16  17
ENDBRANCH  15  16
ENDBRANCH  14  15
BRANCH  14  19
HETATM   19  C           1     -19.885  -8.499  -5.073  0.00  0.00     0.196 C 
HETATM   20  O           1     -20.170  -9.519  -4.409  0.00  0.00    -0.646 OA
HETATM   21  O           1     -19.013  -8.558  -5.966  0.00  0.00    -0.646 OA
ENDBRANCH  14  19
ENDBRANCH   4  14
TORSDOF 9
ENDMDL
MODEL 6
REMARK VINA RESULT:      -4.9      4.249      7.905
REMARK  9 active torsions:
REMARK  status: ('A' for Active; 'I' for Inactive)
REMARK    1  A    between atoms: N_5  and  C_11 
REMARK    2  A    between atoms: C_8  and  C_21 
REMARK    3  A    between atoms: C_8  and  C_19 
REMARK    4  A    between atoms: C_10  and  C_19 
REMARK    5  A    between atoms: C_11  and  C_12 
REMARK    6  A    between atoms: C_11  and  C_16 
REMARK       I    between atoms: C_12  and  N_13 
REMARK    7  A    between atoms: N_13  and  C_19 
REMARK    8  A    between atoms: C_15  and  C_16 
REMARK    9  A    between atoms: Se_17  and  C_21 
ROOT
HETATM    1  O           1     -22.562  -5.785  -5.606  0.00  0.00    -0.271 OA
HETATM    2  H           1     -19.750  -6.878  -4.746  0.00  0.00     0.163 HD
HETATM    3  C           1     -21.359  -5.898  -5.603  0.00  0.00     0.249 C 
HETATM    4  N           1     -20.757  -6.782  -4.748  0.00  0.00    -0.345 N 
ENDROOT
BRANCH   3   5
HETATM    5  C           1     -20.521  -5.065  -6.541  0.00  0.00     0.284 C 
BRANCH   5   6
HETATM    6  N           1     -19.929  -5.950  -7.600  0.00  0.00    -0.066 N 
HETATM    7  H           1     -19.000  -5.570  -7.892  0.00  0.00     0.275 HD
HETATM    8  H           1     -19.806  -6.914  -7.219  0.00  0.00     0.275 HD
HETATM    9  H           1     -20.569  -5.979  -8.425  0.00  0.00     0.275 HD
ENDBRANCH   5   6
BRANCH   5  10
HETATM   10  C           1     -21.393  -4.004  -7.197  0.00  0.00     0.155 C 
BRANCH  10  11
HETATM   11  C           1     -21.478  -4.265  -8.680  0.00  0.00     0.175 C 
HETATM   12  O           1     -22.446  -4.903  -9.148  0.00  0.00    -0.648 OA
HETATM   13  O           1     -20.580  -3.845  -9.441  0.00  0.00    -0.648 OA
ENDBRANCH  10  11
ENDBRANCH   5  10
ENDBRANCH   3   5
BRANCH   4  14
HETATM   14  C           1     -21.563  -7.583  -3.846  0.00  0.00     0.185 C 
BRANCH  14  15
HETATM   15  C           1     -20.956  -8.974  -3.725  0.00  0.00     0.036 C 
BRANCH  15  16
HETATM   16  C           1     -22.071 -10.008  -3.629  0.00  0.00     0.003 C 
BRANCH  16  17
HETATM   17 Se           1     -21.738 -11.186  -2.113  0.00  0.00     0.000 Se
HETATM   18  C           1     -22.877 -10.193  -0.882  0.00  0.00     0.000 C 
ENDBRANCH  16  17
ENDBRANCH  15  16
ENDBRANCH  14  15
BRANCH  14  19
HETATM   19  C           1     -21.596  -6.927  -2.487  0.00  0.00     0.196 C 
HETATM   20  O           1     -22.362  -5.962  -2.277  0.00  0.00    -0.646 OA
HETATM   21  O           1     -20.857  -7.350  -1.572  0.00  0.00    -0.646 OA
ENDBRANCH  14  19
ENDBRANCH   4  14
TORSDOF 9
ENDMDL
MODEL 7
REMARK VINA RESULT:      -4.9      4.627      7.917
REMARK  9 active torsions:
REMARK  status: ('A' for Active; 'I' for Inactive)
REMARK    1  A    between atoms: N_5  and  C_11 
REMARK    2  A    between atoms: C_8  and  C_21 
REMARK    3  A    between atoms: C_8  and  C_19 
REMARK    4  A    between atoms: C_10  and  C_19 
REMARK    5  A    between atoms: C_11  and  C_12 
REMARK    6  A    between atoms: C_11  and  C_16 
REMARK       I    between atoms: C_12  and  N_13 
REMARK    7  A    between atoms: N_13  and  C_19 
REMARK    8  A    between atoms: C_15  and  C_16 
REMARK    9  A    between atoms: Se_17  and  C_21 
ROOT
HETATM    1  O           1     -22.119  -7.539  -4.958  0.00  0.00    -0.271 OA
HETATM    2  H           1     -19.741  -6.624  -3.127  0.00  0.00     0.163 HD
HETATM    3  C           1     -21.070  -7.015  -4.665  0.00  0.00     0.249 C 
HETATM    4  N           1     -20.619  -7.062  -3.372  0.00  0.00    -0.345 N 
ENDROOT
BRANCH   3   5
HETATM    5  C           1     -20.258  -6.309  -5.723  0.00  0.00     0.284 C 
BRANCH   5   6
HETATM    6  N           1     -20.746  -6.718  -7.081  0.00  0.00    -0.066 N 
HETATM    7  H           1     -20.479  -5.990  -7.782  0.00  0.00     0.275 HD
HETATM    8  H           1     -20.313  -7.631  -7.347  0.00  0.00     0.275 HD
HETATM    9  H           1     -21.786  -6.818  -7.062  0.00  0.00     0.275 HD
ENDBRANCH   5   6
BRANCH   5  10
HETATM   10  C           1     -20.412  -4.803  -5.560  0.00  0.00     0.155 C 
BRANCH  10  11
HETATM   11  C           1     -20.980  -4.215  -6.828  0.00  0.00     0.175 C 
HETATM   12  O           1     -22.217  -4.195  -7.008  0.00  0.00    -0.648 OA
HETATM   13  O           1     -20.214  -3.748  -7.699  0.00  0.00    -0.648 OA
ENDBRANCH  10  11
ENDBRANCH   5  10
ENDBRANCH   3   5
BRANCH   4  14
HETATM   14  C           1     -21.400  -7.740  -2.356  0.00  0.00     0.185 C 
BRANCH  14  15
HETATM   15  C           1     -20.464  -8.485  -1.412  0.00  0.00     0.036 C 
BRANCH  15  16
HETATM   16  C           1     -20.487  -9.971  -1.742  0.00  0.00     0.003 C 
BRANCH  16  17
HETATM   17 Se           1     -22.087 -10.384  -2.775  0.00  0.00     0.000 Se
HETATM   18  C           1     -21.115 -10.881  -4.390  0.00  0.00     0.000 C 
ENDBRANCH  16  17
ENDBRANCH  15  16
ENDBRANCH  14  15
BRANCH  14  19
HETATM   19  C           1     -22.199  -6.725  -1.576  0.00  0.00     0.196 C 
HETATM   20  O           1     -22.839  -7.079  -0.562  0.00  0.00    -0.646 OA
HETATM   21  O           1     -22.222  -5.532  -1.945  0.00  0.00    -0.646 OA
ENDBRANCH  14  19
ENDBRANCH   4  14
TORSDOF 9
ENDMDL
MODEL 8
REMARK VINA RESULT:      -4.9      3.501      7.289
REMARK  9 active torsions:
REMARK  status: ('A' for Active; 'I' for Inactive)
REMARK    1  A    between atoms: N_5  and  C_11 
REMARK    2  A    between atoms: C_8  and  C_21 
REMARK    3  A    between atoms: C_8  and  C_19 
REMARK    4  A    between atoms: C_10  and  C_19 
REMARK    5  A    between atoms: C_11  and  C_12 
REMARK    6  A    between atoms: C_11  and  C_16 
REMARK       I    between atoms: C_12  and  N_13 
REMARK    7  A    between atoms: N_13  and  C_19 
REMARK    8  A    between atoms: C_15  and  C_16 
REMARK    9  A    between atoms: Se_17  and  C_21 
ROOT
HETATM    1  O           1     -21.842  -2.657 -11.552  0.00  0.00    -0.271 OA
HETATM    2  H           1     -23.696  -5.188 -11.551  0.00  0.00     0.163 HD
HETATM    3  C           1     -22.627  -3.468 -11.982  0.00  0.00     0.249 C 
HETATM    4  N           1     -23.038  -4.508 -11.192  0.00  0.00    -0.345 N 
ENDROOT
BRANCH   3   5
HETATM    5  C           1     -23.154  -3.335 -13.390  0.00  0.00     0.284 C 
BRANCH   5   6
HETATM    6  N           1     -24.127  -4.444 -13.664  0.00  0.00    -0.066 N 
HETATM    7  H           1     -24.091  -5.140 -12.886  0.00  0.00     0.275 HD
HETATM    8  H           1     -25.092  -4.050 -13.734  0.00  0.00     0.275 HD
HETATM    9  H           1     -23.875  -4.913 -14.563  0.00  0.00     0.275 HD
ENDBRANCH   5   6
BRANCH   5  10
HETATM   10  C           1     -23.856  -1.993 -13.545  0.00  0.00     0.155 C 
BRANCH  10  11
HETATM   11  C           1     -23.484  -1.381 -14.873  0.00  0.00     0.175 C 
HETATM   12  O           1     -24.031  -0.320 -15.247  0.00  0.00    -0.648 OA
HETATM   13  O           1     -22.629  -1.932 -15.599  0.00  0.00    -0.648 OA
ENDBRANCH  10  11
ENDBRANCH   5  10
ENDBRANCH   3   5
BRANCH   4  14
HETATM   14  C           1     -22.531  -4.636  -9.839  0.00  0.00     0.185 C 
BRANCH  14  15
HETATM   15  C           1     -21.203  -3.899  -9.724  0.00  0.00     0.036 C 
BRANCH  15  16
HETATM   16  C           1     -20.114  -4.878  -9.305  0.00  0.00     0.003 C 
BRANCH  16  17
HETATM   17 Se           1     -19.608  -4.537  -7.454  0.00  0.00     0.000 Se
HETATM   18  C           1     -20.516  -6.108  -6.744  0.00  0.00     0.000 C 
ENDBRANCH  16  17
ENDBRANCH  15  16
ENDBRANCH  14  15
BRANCH  14  19
HETATM   19  C           1     -23.524  -4.037  -8.873  0.00  0.00     0.196 C 
HETATM   20  O           1     -24.474  -3.347  -9.301  0.00  0.00    -0.646 OA
HETATM   21  O           1     -23.395  -4.231  -7.645  0.00  0.00    -0.646 OA
ENDBRANCH  14  19
ENDBRANCH   4  14
TORSDOF 9
ENDMDL
MODEL 9
REMARK VINA RESULT:      -4.8      2.074      2.409
REMARK  9 active torsions:
REMARK  status: ('A' for Active; 'I' for Inactive)
REMARK    1  A    between atoms: N_5  and  C_11 
REMARK    2  A    between atoms: C_8  and  C_21 
REMARK    3  A    between atoms: C_8  and  C_19 
REMARK    4  A    between atoms: C_10  and  C_19 
REMARK    5  A    between atoms: C_11  and  C_12 
REMARK    6  A    between atoms: C_11  and  C_16 
REMARK       I    between atoms: C_12  and  N_13 
REMARK    7  A    between atoms: N_13  and  C_19 
REMARK    8  A    between atoms: C_15  and  C_16 
REMARK    9  A    between atoms: Se_17  and  C_21 
ROOT
HETATM    1  O           1     -21.647  -2.837  -7.224  0.00  0.00    -0.271 OA
HETATM    2  H           1     -22.626  -5.532  -8.497  0.00  0.00     0.163 HD
HETATM    3  C           1     -21.824  -4.028  -7.323  0.00  0.00     0.249 C 
HETATM    4  N           1     -22.478  -4.534  -8.414  0.00  0.00    -0.345 N 
ENDROOT
BRANCH   3   5
HETATM    5  C           1     -21.324  -4.957  -6.244  0.00  0.00     0.284 C 
BRANCH   5   6
HETATM    6  N           1     -22.473  -5.757  -5.703  0.00  0.00    -0.066 N 
HETATM    7  H           1     -22.128  -6.404  -4.958  0.00  0.00     0.275 HD
HETATM    8  H           1     -23.187  -5.111  -5.299  0.00  0.00     0.275 HD
HETATM    9  H           1     -22.903  -6.313  -6.476  0.00  0.00     0.275 HD
ENDBRANCH   5   6
BRANCH   5  10
HETATM   10  C           1     -20.280  -5.899  -6.827  0.00  0.00     0.155 C 
BRANCH  10  11
HETATM   11  C           1     -19.375  -5.133  -7.759  0.00  0.00     0.175 C 
HETATM   12  O           1     -18.446  -4.436  -7.296  0.00  0.00    -0.648 OA
HETATM   13  O           1     -19.553  -5.194  -8.995  0.00  0.00    -0.648 OA
ENDBRANCH  10  11
ENDBRANCH   5  10
ENDBRANCH   3   5
BRANCH   4  14
HETATM   14  C           1     -22.959  -3.641  -9.451  0.00  0.00     0.185 C 
BRANCH  14  15
HETATM   15  C           1     -22.309  -4.011 -10.778  0.00  0.00     0.036 C 
BRANCH  15  16
HETATM   16  C           1     -22.073  -2.748 -11.597  0.00  0.00     0.003 C 
BRANCH  16  17
HETATM   17 Se           1     -22.767  -3.002 -13.400  0.00  0.00     0.000 Se
HETATM   18  C           1     -24.640  -2.910 -12.868  0.00  0.00     0.000 C 
ENDBRANCH  16  17
ENDBRANCH  15  16
ENDBRANCH  14  15
BRANCH  14  19
HETATM   19  C           1     -24.457  -3.771  -9.570  0.00  0.00     0.196 C 
HETATM   20  O           1     -24.971  -4.883  -9.819  0.00  0.00    -0.646 OA
HETATM   21  O           1     -25.185  -2.766  -9.422  0.00  0.00    -0.646 OA
ENDBRANCH  14  19
ENDBRANCH   4  14
TORSDOF 9
ENDMDL
