MODEL 1
REMARK VINA RESULT:      -6.6      0.000      0.000
REMARK  8 active torsions:
REMARK  status: ('A' for Active; 'I' for Inactive)
REMARK    1  A    between atoms: C_3  and  C_9 
REMARK    2  A    between atoms: C_3  and  C_16 
REMARK    3  A    between atoms: N_4  and  C_9 
REMARK    4  A    between atoms: C_9  and  C_19 
REMARK    5  A    between atoms: Se_10  and  C_20 
REMARK    6  A    between atoms: N_12  and  C_13 
REMARK       I    between atoms: N_12  and  C_19 
REMARK    7  A    between atoms: C_13  and  C_20 
REMARK    8  A    between atoms: C_13  and  C_14 
ROOT
HETATM    1  C           1     -35.972  -0.501 -11.111  0.00  0.00     0.278 C 
ENDROOT
BRANCH   1   2
HETATM    2  C           1     -36.397  -1.908 -10.711  0.00  0.00     0.081 C 
BRANCH   2   3
HETATM    3  C           1     -35.263  -2.857 -10.941  0.00  0.00    -0.056 A 
HETATM    4  C           1     -35.487  -4.233 -10.910  0.00  0.00     0.007 A 
HETATM    5  C           1     -34.429  -5.117 -11.125  0.00  0.00     0.001 A 
HETATM    6  C           1     -33.148  -4.625 -11.369  0.00  0.00     0.000 A 
HETATM    7  C           1     -32.923  -3.249 -11.399  0.00  0.00     0.001 A 
HETATM    8  C           1     -33.980  -2.364 -11.185  0.00  0.00     0.007 A 
ENDBRANCH   2   3
ENDBRANCH   1   2
BRANCH   1   9
HETATM    9  N           1     -36.561   0.489 -10.150  0.00  0.00    -0.066 N 
HETATM   10  H           1     -35.825   1.172  -9.860  0.00  0.00     0.275 HD
HETATM   11  H           1     -37.345   1.000 -10.616  0.00  0.00     0.275 HD
HETATM   12  H           1     -36.922  -0.014  -9.309  0.00  0.00     0.275 HD
ENDBRANCH   1   9
BRANCH   1  13
HETATM   13  C           1     -36.467  -0.204 -12.505  0.00  0.00     0.249 C 
HETATM   14  O           1     -37.644  -0.291 -12.761  0.00  0.00    -0.271 OA
HETATM   15  N           1     -35.580   0.165 -13.482  0.00  0.00    -0.345 N 
HETATM   16  H           1     -34.593   0.237 -13.268  0.00  0.00     0.163 HD
BRANCH  15  17
HETATM   17  C           1     -36.054   0.451 -14.821  0.00  0.00     0.185 C 
BRANCH  17  18
HETATM   18  C           1     -35.301   1.650 -15.382  0.00  0.00     0.039 C 
BRANCH  18  19
HETATM   19 Se           1     -36.521   2.755 -16.426  0.00  0.00     0.000 Se
HETATM   20  H           1     -35.604   3.904 -16.496  0.00  0.00     0.000 HD
ENDBRANCH  18  19
ENDBRANCH  17  18
BRANCH  17  21
HETATM   21  C           1     -35.819  -0.749 -15.705  0.00  0.00     0.196 C 
HETATM   22  O           1     -36.277  -0.770 -16.867  0.00  0.00    -0.646 OA
HETATM   23  O           1     -35.166  -1.724 -15.273  0.00  0.00    -0.646 OA
ENDBRANCH  17  21
ENDBRANCH  15  17
ENDBRANCH   1  13
TORSDOF 8
ENDMDL
MODEL 2
REMARK VINA RESULT:      -6.5     13.662     15.426
REMARK  8 active torsions:
REMARK  status: ('A' for Active; 'I' for Inactive)
REMARK    1  A    between atoms: C_3  and  C_9 
REMARK    2  A    between atoms: C_3  and  C_16 
REMARK    3  A    between atoms: N_4  and  C_9 
REMARK    4  A    between atoms: C_9  and  C_19 
REMARK    5  A    between atoms: Se_10  and  C_20 
REMARK    6  A    between atoms: N_12  and  C_13 
REMARK       I    between atoms: N_12  and  C_19 
REMARK    7  A    between atoms: C_13  and  C_20 
REMARK    8  A    between atoms: C_13  and  C_14 
ROOT
HETATM    1  C           1     -21.063  -5.718  -6.891  0.00  0.00     0.278 C 
ENDROOT
BRANCH   1   2
HETATM    2  C           1     -20.887  -5.219  -5.463  0.00  0.00     0.081 C 
BRANCH   2   3
HETATM    3  C           1     -21.151  -6.339  -4.506  0.00  0.00    -0.056 A 
HETATM    4  C           1     -21.297  -6.074  -3.145  0.00  0.00     0.007 A 
HETATM    5  C           1     -21.543  -7.118  -2.253  0.00  0.00     0.001 A 
HETATM    6  C           1     -21.644  -8.426  -2.722  0.00  0.00     0.000 A 
HETATM    7  C           1     -21.497  -8.693  -4.084  0.00  0.00     0.001 A 
HETATM    8  C           1     -21.251  -7.649  -4.976  0.00  0.00     0.007 A 
ENDBRANCH   2   3
ENDBRANCH   1   2
BRANCH   1   9
HETATM    9  N           1     -19.732  -6.135  -7.442  0.00  0.00    -0.066 N 
HETATM   10  H           1     -19.278  -5.318  -7.911  0.00  0.00     0.275 HD
HETATM   11  H           1     -19.123  -6.470  -6.662  0.00  0.00     0.275 HD
HETATM   12  H           1     -19.867  -6.904  -8.136  0.00  0.00     0.275 HD
ENDBRANCH   1   9
BRANCH   1  13
HETATM   13  C           1     -21.636  -4.612  -7.744  0.00  0.00     0.249 C 
HETATM   14  O           1     -21.665  -3.479  -7.325  0.00  0.00    -0.271 OA
HETATM   15  N           1     -22.124  -4.893  -8.992  0.00  0.00    -0.345 N 
HETATM   16  H           1     -22.101  -5.842  -9.343  0.00  0.00     0.163 HD
BRANCH  15  17
HETATM   17  C           1     -22.674  -3.831  -9.811  0.00  0.00     0.185 C 
BRANCH  17  18
HETATM   18  C           1     -22.231  -4.022 -11.255  0.00  0.00     0.039 C 
BRANCH  18  19
HETATM   19 Se           1     -23.099  -2.689 -12.383  0.00  0.00     0.000 Se
HETATM   20  H           1     -24.157  -3.602 -12.847  0.00  0.00     0.000 HD
ENDBRANCH  18  19
ENDBRANCH  17  18
BRANCH  17  21
HETATM   21  C           1     -24.181  -3.869  -9.737  0.00  0.00     0.196 C 
HETATM   22  O           1     -24.792  -4.932  -9.980  0.00  0.00    -0.646 OA
HETATM   23  O           1     -24.818  -2.837  -9.435  0.00  0.00    -0.646 OA
ENDBRANCH  17  21
ENDBRANCH  15  17
ENDBRANCH   1  13
TORSDOF 8
ENDMDL
MODEL 3
REMARK VINA RESULT:      -6.4      2.371      3.893
REMARK  8 active torsions:
REMARK  status: ('A' for Active; 'I' for Inactive)
REMARK    1  A    between atoms: C_3  and  C_9 
REMARK    2  A    between atoms: C_3  and  C_16 
REMARK    3  A    between atoms: N_4  and  C_9 
REMARK    4  A    between atoms: C_9  and  C_19 
REMARK    5  A    between atoms: Se_10  and  C_20 
REMARK    6  A    between atoms: N_12  and  C_13 
REMARK       I    between atoms: N_12  and  C_19 
REMARK    7  A    between atoms: C_13  and  C_20 
REMARK    8  A    between atoms: C_13  and  C_14 
ROOT
HETATM    1  C           1     -34.117  -3.891 -12.660  0.00  0.00     0.278 C 
ENDROOT
BRANCH   1   2
HETATM    2  C           1     -33.033  -4.491 -11.775  0.00  0.00     0.081 C 
BRANCH   2   3
HETATM    3  C           1     -33.591  -5.657 -11.021  0.00  0.00    -0.056 A 
HETATM    4  C           1     -34.811  -5.538 -10.356  0.00  0.00     0.007 A 
HETATM    5  C           1     -35.331  -6.624  -9.653  0.00  0.00     0.001 A 
HETATM    6  C           1     -34.632  -7.829  -9.614  0.00  0.00     0.000 A 
HETATM    7  C           1     -33.411  -7.949 -10.278  0.00  0.00     0.001 A 
HETATM    8  C           1     -32.890  -6.863 -10.982  0.00  0.00     0.007 A 
ENDBRANCH   2   3
ENDBRANCH   1   2
BRANCH   1   9
HETATM    9  N           1     -33.705  -3.999 -14.098  0.00  0.00    -0.066 N 
HETATM   10  H           1     -34.556  -4.018 -14.704  0.00  0.00     0.275 HD
HETATM   11  H           1     -33.115  -3.175 -14.353  0.00  0.00     0.275 HD
HETATM   12  H           1     -33.157  -4.878 -14.238  0.00  0.00     0.275 HD
ENDBRANCH   1   9
BRANCH   1  13
HETATM   13  C           1     -34.312  -2.438 -12.301  0.00  0.00     0.249 C 
HETATM   14  O           1     -33.928  -2.022 -11.234  0.00  0.00    -0.271 OA
HETATM   15  N           1     -34.927  -1.591 -13.185  0.00  0.00    -0.345 N 
HETATM   16  H           1     -35.250  -1.940 -14.079  0.00  0.00     0.163 HD
BRANCH  15  17
HETATM   17  C           1     -35.114  -0.196 -12.841  0.00  0.00     0.185 C 
BRANCH  17  18
HETATM   18  C           1     -35.259   0.627 -14.114  0.00  0.00     0.039 C 
BRANCH  18  19
HETATM   19 Se           1     -35.669  -0.555 -15.609  0.00  0.00     0.000 Se
HETATM   20  H           1     -36.641  -1.362 -14.855  0.00  0.00     0.000 HD
ENDBRANCH  18  19
ENDBRANCH  17  18
BRANCH  17  21
HETATM   21  C           1     -36.360  -0.048 -12.002  0.00  0.00     0.196 C 
HETATM   22  O           1     -37.469  -0.386 -12.466  0.00  0.00    -0.646 OA
HETATM   23  O           1     -36.281   0.413 -10.843  0.00  0.00    -0.646 OA
ENDBRANCH  17  21
ENDBRANCH  15  17
ENDBRANCH   1  13
TORSDOF 8
ENDMDL
MODEL 4
REMARK VINA RESULT:      -6.2     15.385     17.553
REMARK  8 active torsions:
REMARK  status: ('A' for Active; 'I' for Inactive)
REMARK    1  A    between atoms: C_3  and  C_9 
REMARK    2  A    between atoms: C_3  and  C_16 
REMARK    3  A    between atoms: N_4  and  C_9 
REMARK    4  A    between atoms: C_9  and  C_19 
REMARK    5  A    between atoms: Se_10  and  C_20 
REMARK    6  A    between atoms: N_12  and  C_13 
REMARK       I    between atoms: N_12  and  C_19 
REMARK    7  A    between atoms: C_13  and  C_20 
REMARK    8  A    between atoms: C_13  and  C_14 
ROOT
HETATM    1  C           1     -20.991  -5.001  -6.309  0.00  0.00     0.278 C 
ENDROOT
BRANCH   1   2
HETATM    2  C           1     -20.640  -5.704  -7.613  0.00  0.00     0.081 C 
BRANCH   2   3
HETATM    3  C           1     -21.111  -4.879  -8.769  0.00  0.00    -0.056 A 
HETATM    4  C           1     -22.428  -4.422  -8.809  0.00  0.00     0.007 A 
HETATM    5  C           1     -22.868  -3.653  -9.886  0.00  0.00     0.001 A 
HETATM    6  C           1     -21.991  -3.341 -10.924  0.00  0.00     0.000 A 
HETATM    7  C           1     -20.674  -3.799 -10.885  0.00  0.00     0.001 A 
HETATM    8  C           1     -20.233  -4.567  -9.808  0.00  0.00     0.007 A 
ENDBRANCH   2   3
ENDBRANCH   1   2
BRANCH   1   9
HETATM    9  N           1     -19.738  -4.485  -5.666  0.00  0.00    -0.066 N 
HETATM   10  H           1     -19.021  -4.295  -6.403  0.00  0.00     0.275 HD
HETATM   11  H           1     -19.950  -3.601  -5.151  0.00  0.00     0.275 HD
HETATM   12  H           1     -19.370  -5.199  -4.998  0.00  0.00     0.275 HD
ENDBRANCH   1   9
BRANCH   1  13
HETATM   13  C           1     -21.669  -5.976  -5.377  0.00  0.00     0.249 C 
HETATM   14  O           1     -22.874  -6.003  -5.303  0.00  0.00    -0.271 OA
HETATM   15  N           1     -20.917  -6.830  -4.615  0.00  0.00    -0.345 N 
HETATM   16  H           1     -19.906  -6.807  -4.677  0.00  0.00     0.163 HD
BRANCH  15  17
HETATM   17  C           1     -21.567  -7.767  -3.721  0.00  0.00     0.185 C 
BRANCH  17  18
HETATM   18  C           1     -20.895  -9.129  -3.835  0.00  0.00     0.039 C 
BRANCH  18  19
HETATM   19 Se           1     -22.150 -10.521  -3.299  0.00  0.00     0.000 Se
HETATM   20  H           1     -21.531 -10.733  -1.981  0.00  0.00     0.000 HD
ENDBRANCH  18  19
ENDBRANCH  17  18
BRANCH  17  21
HETATM   21  C           1     -21.454  -7.268  -2.301  0.00  0.00     0.196 C 
HETATM   22  O           1     -22.248  -6.401  -1.878  0.00  0.00    -0.646 OA
HETATM   23  O           1     -20.564  -7.720  -1.549  0.00  0.00    -0.646 OA
ENDBRANCH  17  21
ENDBRANCH  15  17
ENDBRANCH   1  13
TORSDOF 8
ENDMDL
MODEL 5
REMARK VINA RESULT:      -6.1     14.593     16.790
REMARK  8 active torsions:
REMARK  status: ('A' for Active; 'I' for Inactive)
REMARK    1  A    between atoms: C_3  and  C_9 
REMARK    2  A    between atoms: C_3  and  C_16 
REMARK    3  A    between atoms: N_4  and  C_9 
REMARK    4  A    between atoms: C_9  and  C_19 
REMARK    5  A    between atoms: Se_10  and  C_20 
REMARK    6  A    between atoms: N_12  and  C_13 
REMARK       I    between atoms: N_12  and  C_19 
REMARK    7  A    between atoms: C_13  and  C_20 
REMARK    8  A    between atoms: C_13  and  C_14 
ROOT
HETATM    1  C           1     -21.718  -4.532  -7.386  0.00  0.00     0.278 C 
ENDROOT
BRANCH   1   2
HETATM    2  C           1     -21.119  -4.807  -8.759  0.00  0.00     0.081 C 
BRANCH   2   3
HETATM    3  C           1     -21.974  -4.176  -9.812  0.00  0.00    -0.056 A 
HETATM    4  C           1     -21.384  -3.451 -10.848  0.00  0.00     0.007 A 
HETATM    5  C           1     -22.182  -2.863 -11.829  0.00  0.00     0.001 A 
HETATM    6  C           1     -23.568  -3.000 -11.776  0.00  0.00     0.000 A 
HETATM    7  C           1     -24.158  -3.724 -10.740  0.00  0.00     0.001 A 
HETATM    8  C           1     -23.361  -4.313  -9.758  0.00  0.00     0.007 A 
ENDBRANCH   2   3
ENDBRANCH   1   2
BRANCH   1   9
HETATM    9  N           1     -21.613  -3.067  -7.079  0.00  0.00    -0.066 N 
HETATM   10  H           1     -20.612  -2.819  -6.906  0.00  0.00     0.275 HD
HETATM   11  H           1     -21.972  -2.516  -7.891  0.00  0.00     0.275 HD
HETATM   12  H           1     -22.179  -2.848  -6.229  0.00  0.00     0.275 HD
ENDBRANCH   1   9
BRANCH   1  13
HETATM   13  C           1     -20.965  -5.319  -6.341  0.00  0.00     0.249 C 
HETATM   14  O           1     -19.915  -4.904  -5.911  0.00  0.00    -0.271 OA
HETATM   15  N           1     -21.471  -6.506  -5.880  0.00  0.00    -0.345 N 
HETATM   16  H           1     -22.351  -6.854  -6.241  0.00  0.00     0.163 HD
BRANCH  15  17
HETATM   17  C           1     -20.748  -7.262  -4.877  0.00  0.00     0.185 C 
BRANCH  17  18
HETATM   18  C           1     -21.697  -7.647  -3.750  0.00  0.00     0.039 C 
BRANCH  18  19
HETATM   19 Se           1     -21.788  -6.195  -2.452  0.00  0.00     0.000 Se
HETATM   20  H           1     -20.351  -5.884  -2.525  0.00  0.00     0.000 HD
ENDBRANCH  18  19
ENDBRANCH  17  18
BRANCH  17  21
HETATM   21  C           1     -20.178  -8.510  -5.504  0.00  0.00     0.196 C 
HETATM   22  O           1     -20.912  -9.503  -5.699  0.00  0.00    -0.646 OA
HETATM   23  O           1     -18.971  -8.553  -5.826  0.00  0.00    -0.646 OA
ENDBRANCH  17  21
ENDBRANCH  15  17
ENDBRANCH   1  13
TORSDOF 8
ENDMDL
MODEL 6
REMARK VINA RESULT:      -5.9      5.611      7.071
REMARK  8 active torsions:
REMARK  status: ('A' for Active; 'I' for Inactive)
REMARK    1  A    between atoms: C_3  and  C_9 
REMARK    2  A    between atoms: C_3  and  C_16 
REMARK    3  A    between atoms: N_4  and  C_9 
REMARK    4  A    between atoms: C_9  and  C_19 
REMARK    5  A    between atoms: Se_10  and  C_20 
REMARK    6  A    between atoms: N_12  and  C_13 
REMARK       I    between atoms: N_12  and  C_19 
REMARK    7  A    between atoms: C_13  and  C_20 
REMARK    8  A    between atoms: C_13  and  C_14 
ROOT
HETATM    1  C           1     -33.090  -4.516 -16.673  0.00  0.00     0.278 C 
ENDROOT
BRANCH   1   2
HETATM    2  C           1     -31.610  -4.424 -16.326  0.00  0.00     0.081 C 
BRANCH   2   3
HETATM    3  C           1     -30.905  -5.651 -16.812  0.00  0.00    -0.056 A 
HETATM    4  C           1     -31.492  -6.450 -17.792  0.00  0.00     0.007 A 
HETATM    5  C           1     -30.835  -7.594 -18.244  0.00  0.00     0.001 A 
HETATM    6  C           1     -29.592  -7.939 -17.717  0.00  0.00     0.000 A 
HETATM    7  C           1     -29.005  -7.140 -16.736  0.00  0.00     0.001 A 
HETATM    8  C           1     -29.661  -5.996 -16.283  0.00  0.00     0.007 A 
ENDBRANCH   2   3
ENDBRANCH   1   2
BRANCH   1   9
HETATM    9  N           1     -33.482  -3.332 -17.507  0.00  0.00    -0.066 N 
HETATM   10  H           1     -33.456  -3.594 -18.519  0.00  0.00     0.275 HD
HETATM   11  H           1     -34.449  -3.031 -17.251  0.00  0.00     0.275 HD
HETATM   12  H           1     -32.814  -2.547 -17.333  0.00  0.00     0.275 HD
ENDBRANCH   1   9
BRANCH   1  13
HETATM   13  C           1     -33.906  -4.527 -15.404  0.00  0.00     0.249 C 
HETATM   14  O           1     -35.021  -4.993 -15.405  0.00  0.00    -0.271 OA
HETATM   15  N           1     -33.383  -4.009 -14.249  0.00  0.00    -0.345 N 
HETATM   16  H           1     -32.449  -3.618 -14.247  0.00  0.00     0.163 HD
BRANCH  15  17
HETATM   17  C           1     -34.166  -4.020 -13.029  0.00  0.00     0.185 C 
BRANCH  17  18
HETATM   18  C           1     -33.306  -4.520 -11.877  0.00  0.00     0.039 C 
BRANCH  18  19
HETATM   19 Se           1     -34.243  -5.947 -10.936  0.00  0.00     0.000 Se
HETATM   20  H           1     -35.177  -6.219 -12.040  0.00  0.00     0.000 HD
ENDBRANCH  18  19
ENDBRANCH  17  18
BRANCH  17  21
HETATM   21  C           1     -34.647  -2.622 -12.728  0.00  0.00     0.196 C 
HETATM   22  O           1     -35.037  -1.882 -13.656  0.00  0.00    -0.646 OA
HETATM   23  O           1     -34.653  -2.203 -11.550  0.00  0.00    -0.646 OA
ENDBRANCH  17  21
ENDBRANCH  15  17
ENDBRANCH   1  13
TORSDOF 8
ENDMDL
MODEL 7
REMARK VINA RESULT:      -5.9     15.814     18.038
REMARK  8 active torsions:
REMARK  status: ('A' for Active; 'I' for Inactive)
REMARK    1  A    between atoms: C_3  and  C_9 
REMARK    2  A    between atoms: C_3  and  C_16 
REMARK    3  A    between atoms: N_4  and  C_9 
REMARK    4  A    between atoms: C_9  and  C_19 
REMARK    5  A    between atoms: Se_10  and  C_20 
REMARK    6  A    between atoms: N_12  and  C_13 
REMARK       I    between atoms: N_12  and  C_19 
REMARK    7  A    between atoms: C_13  and  C_20 
REMARK    8  A    between atoms: C_13  and  C_14 
ROOT
HETATM    1  C           1     -21.606  -6.110  -6.103  0.00  0.00     0.278 C 
ENDROOT
BRANCH   1   2
HETATM    2  C           1     -21.022  -4.743  -6.435  0.00  0.00     0.081 C 
BRANCH   2   3
HETATM    3  C           1     -21.293  -4.419  -7.870  0.00  0.00    -0.056 A 
HETATM    4  C           1     -22.585  -4.089  -8.279  0.00  0.00     0.007 A 
HETATM    5  C           1     -22.837  -3.788  -9.617  0.00  0.00     0.001 A 
HETATM    6  C           1     -21.798  -3.816 -10.546  0.00  0.00     0.000 A 
HETATM    7  C           1     -20.506  -4.146 -10.138  0.00  0.00     0.001 A 
HETATM    8  C           1     -20.253  -4.448  -8.800  0.00  0.00     0.007 A 
ENDBRANCH   2   3
ENDBRANCH   1   2
BRANCH   1   9
HETATM    9  N           1     -22.482  -5.997  -4.890  0.00  0.00    -0.066 N 
HETATM   10  H           1     -22.009  -6.450  -4.075  0.00  0.00     0.275 HD
HETATM   11  H           1     -22.650  -4.988  -4.676  0.00  0.00     0.275 HD
HETATM   12  H           1     -23.394  -6.472  -5.073  0.00  0.00     0.275 HD
ENDBRANCH   1   9
BRANCH   1  13
HETATM   13  C           1     -20.486  -7.083  -5.825  0.00  0.00     0.249 C 
HETATM   14  O           1     -19.526  -7.123  -6.556  0.00  0.00    -0.271 OA
HETATM   15  N           1     -20.560  -7.921  -4.744  0.00  0.00    -0.345 N 
HETATM   16  H           1     -21.365  -7.888  -4.132  0.00  0.00     0.163 HD
BRANCH  15  17
HETATM   17  C           1     -19.484  -8.855  -4.478  0.00  0.00     0.185 C 
BRANCH  17  18
HETATM   18  C           1     -19.350  -9.060  -2.975  0.00  0.00     0.039 C 
BRANCH  18  19
HETATM   19 Se           1     -20.678  -7.974  -2.049  0.00  0.00     0.000 Se
HETATM   20  H           1     -21.564  -9.109  -1.745  0.00  0.00     0.000 HD
ENDBRANCH  18  19
ENDBRANCH  17  18
BRANCH  17  21
HETATM   21  C           1     -19.791 -10.176  -5.140  0.00  0.00     0.196 C 
HETATM   22  O           1     -19.205 -10.497  -6.195  0.00  0.00    -0.646 OA
HETATM   23  O           1     -20.632 -10.949  -4.632  0.00  0.00    -0.646 OA
ENDBRANCH  17  21
ENDBRANCH  15  17
ENDBRANCH   1  13
TORSDOF 8
ENDMDL
MODEL 8
REMARK VINA RESULT:      -5.8     16.004     17.869
REMARK  8 active torsions:
REMARK  status: ('A' for Active; 'I' for Inactive)
REMARK    1  A    between atoms: C_3  and  C_9 
REMARK    2  A    between atoms: C_3  and  C_16 
REMARK    3  A    between atoms: N_4  and  C_9 
REMARK    4  A    between atoms: C_9  and  C_19 
REMARK    5  A    between atoms: Se_10  and  C_20 
REMARK    6  A    between atoms: N_12  and  C_13 
REMARK       I    between atoms: N_12  and  C_19 
REMARK    7  A    between atoms: C_13  and  C_20 
REMARK    8  A    between atoms: C_13  and  C_14 
ROOT
HETATM    1  C           1     -21.722  -7.964  -4.017  0.00  0.00     0.278 C 
ENDROOT
BRANCH   1   2
HETATM    2  C           1     -20.658  -7.661  -2.971  0.00  0.00     0.081 C 
BRANCH   2   3
HETATM    3  C           1     -21.223  -7.884  -1.604  0.00  0.00    -0.056 A 
HETATM    4  C           1     -20.720  -8.906  -0.799  0.00  0.00     0.007 A 
HETATM    5  C           1     -21.248  -9.114   0.475  0.00  0.00     0.001 A 
HETATM    6  C           1     -22.279  -8.302   0.945  0.00  0.00     0.000 A 
HETATM    7  C           1     -22.783  -7.280   0.140  0.00  0.00     0.001 A 
HETATM    8  C           1     -22.256  -7.071  -1.135  0.00  0.00     0.007 A 
ENDBRANCH   2   3
ENDBRANCH   1   2
BRANCH   1   9
HETATM    9  N           1     -21.846  -9.450  -4.187  0.00  0.00    -0.066 N 
HETATM   10  H           1     -22.842  -9.734  -4.049  0.00  0.00     0.275 HD
HETATM   11  H           1     -21.539  -9.716  -5.150  0.00  0.00     0.275 HD
HETATM   12  H           1     -21.244  -9.932  -3.483  0.00  0.00     0.275 HD
ENDBRANCH   1   9
BRANCH   1  13
HETATM   13  C           1     -21.326  -7.339  -5.333  0.00  0.00     0.249 C 
HETATM   14  O           1     -20.650  -7.960  -6.118  0.00  0.00    -0.271 OA
HETATM   15  N           1     -21.734  -6.068  -5.638  0.00  0.00    -0.345 N 
HETATM   16  H           1     -22.301  -5.547  -4.980  0.00  0.00     0.163 HD
BRANCH  15  17
HETATM   17  C           1     -21.355  -5.468  -6.901  0.00  0.00     0.185 C 
BRANCH  17  18
HETATM   18  C           1     -22.409  -4.451  -7.318  0.00  0.00     0.039 C 
BRANCH  18  19
HETATM   19 Se           1     -22.576  -4.447  -9.260  0.00  0.00     0.000 Se
HETATM   20  H           1     -21.377  -3.622  -9.477  0.00  0.00     0.000 HD
ENDBRANCH  18  19
ENDBRANCH  17  18
BRANCH  17  21
HETATM   21  C           1     -20.022  -4.777  -6.749  0.00  0.00     0.196 C 
HETATM   22  O           1     -19.602  -4.473  -5.612  0.00  0.00    -0.646 OA
HETATM   23  O           1     -19.339  -4.507  -7.760  0.00  0.00    -0.646 OA
ENDBRANCH  17  21
ENDBRANCH  15  17
ENDBRANCH   1  13
TORSDOF 8
ENDMDL
MODEL 9
REMARK VINA RESULT:      -5.7     16.921     18.902
REMARK  8 active torsions:
REMARK  status: ('A' for Active; 'I' for Inactive)
REMARK    1  A    between atoms: C_3  and  C_9 
REMARK    2  A    between atoms: C_3  and  C_16 
REMARK    3  A    between atoms: N_4  and  C_9 
REMARK    4  A    between atoms: C_9  and  C_19 
REMARK    5  A    between atoms: Se_10  and  C_20 
REMARK    6  A    between atoms: N_12  and  C_13 
REMARK       I    between atoms: N_12  and  C_19 
REMARK    7  A    between atoms: C_13  and  C_20 
REMARK    8  A    between atoms: C_13  and  C_14 
ROOT
HETATM    1  C           1     -20.904  -7.594  -4.803  0.00  0.00     0.278 C 
ENDROOT
BRANCH   1   2
HETATM    2  C           1     -21.540  -6.210  -4.789  0.00  0.00     0.081 C 
BRANCH   2   3
HETATM    3  C           1     -21.071  -5.433  -5.978  0.00  0.00    -0.056 A 
HETATM    4  C           1     -19.705  -5.280  -6.218  0.00  0.00     0.007 A 
HETATM    5  C           1     -19.268  -4.555  -7.326  0.00  0.00     0.001 A 
HETATM    6  C           1     -20.196  -3.983  -8.195  0.00  0.00     0.000 A 
HETATM    7  C           1     -21.562  -4.134  -7.956  0.00  0.00     0.001 A 
HETATM    8  C           1     -22.000  -4.859  -6.847  0.00  0.00     0.007 A 
ENDBRANCH   2   3
ENDBRANCH   1   2
BRANCH   1   9
HETATM    9  N           1     -21.225  -8.278  -6.099  0.00  0.00    -0.066 N 
HETATM   10  H           1     -22.151  -8.757  -6.021  0.00  0.00     0.275 HD
HETATM   11  H           1     -21.264  -7.568  -6.865  0.00  0.00     0.275 HD
HETATM   12  H           1     -20.484  -8.982  -6.314  0.00  0.00     0.275 HD
ENDBRANCH   1   9
BRANCH   1  13
HETATM   13  C           1     -21.449  -8.410  -3.656  0.00  0.00     0.249 C 
HETATM   14  O           1     -21.960  -9.484  -3.868  0.00  0.00    -0.271 OA
HETATM   15  N           1     -21.366  -7.933  -2.375  0.00  0.00    -0.345 N 
HETATM   16  H           1     -20.939  -7.032  -2.198  0.00  0.00     0.163 HD
BRANCH  15  17
HETATM   17  C           1     -21.890  -8.716  -1.274  0.00  0.00     0.185 C 
BRANCH  17  18
HETATM   18  C           1     -20.737  -9.366  -0.520  0.00  0.00     0.039 C 
BRANCH  18  19
HETATM   19 Se           1     -21.191 -11.216  -0.107  0.00  0.00     0.000 Se
HETATM   20  H           1     -22.042 -10.872   1.044  0.00  0.00     0.000 HD
ENDBRANCH  18  19
ENDBRANCH  17  18
BRANCH  17  21
HETATM   21  C           1     -22.660  -7.816  -0.339  0.00  0.00     0.196 C 
HETATM   22  O           1     -22.667  -6.581  -0.525  0.00  0.00    -0.646 OA
HETATM   23  O           1     -23.290  -8.307   0.623  0.00  0.00    -0.646 OA
ENDBRANCH  17  21
ENDBRANCH  15  17
ENDBRANCH   1  13
TORSDOF 8
ENDMDL
