MODEL 1
REMARK VINA RESULT:      -6.0      0.000      0.000
REMARK  11 active torsions:
REMARK  status: ('A' for Active; 'I' for Inactive)
REMARK    1  A    between atoms: C_1  and  C_24 
REMARK    2  A    between atoms: C_1  and  C_3 
REMARK    3  A    between atoms: C_3  and  C_9 
REMARK    4  A    between atoms: C_7  and  C_12 
REMARK    5  A    between atoms: C_9  and  N_18 
REMARK    6  A    between atoms: N_10  and  C_24 
REMARK    7  A    between atoms: C_11  and  S_20 
REMARK    8  A    between atoms: C_11  and  C_21 
REMARK    9  A    between atoms: C_12  and  C_21 
REMARK   10  A    between atoms: C_12  and  N_17 
REMARK       I    between atoms: C_16  and  N_17 
REMARK   11  A    between atoms: C_16  and  C_24 
ROOT
HETATM    1  O           1     -33.633  -2.135 -11.041  0.00  0.00    -0.271 OA
HETATM    2  H           1     -35.532  -1.934 -13.531  0.00  0.00     0.163 HD
HETATM    3  C           1     -34.263  -2.512 -12.001  0.00  0.00     0.249 C 
HETATM    4  N           1     -35.005  -1.619 -12.727  0.00  0.00    -0.345 N 
ENDROOT
BRANCH   3   5
HETATM    5  C           1     -34.231  -3.966 -12.400  0.00  0.00     0.274 C 
BRANCH   5   6
HETATM    6  C           1     -33.320  -4.734 -11.452  0.00  0.00     0.044 C 
BRANCH   6   7
HETATM    7  C           1     -34.156  -5.370 -10.348  0.00  0.00     0.030 C 
BRANCH   7   8
HETATM    8  C           1     -34.465  -6.815 -10.712  0.00  0.00     0.230 C 
BRANCH   8   9
HETATM    9  N           1     -35.083  -7.508  -9.534  0.00  0.00    -0.079 N 
HETATM   10  H           1     -35.100  -6.858  -8.716  0.00  0.00     0.274 HD
HETATM   11  H           1     -34.520  -8.355  -9.295  0.00  0.00     0.274 HD
HETATM   12  H           1     -36.060  -7.793  -9.772  0.00  0.00     0.274 HD
ENDBRANCH   8   9
ENDBRANCH   7   8
ENDBRANCH   6   7
ENDBRANCH   5   6
BRANCH   5  13
HETATM   13  N           1     -33.711  -4.088 -13.802  0.00  0.00    -0.067 N 
HETATM   14  H           1     -34.512  -4.200 -14.463  0.00  0.00     0.275 HD
HETATM   15  H           1     -33.173  -3.227 -14.050  0.00  0.00     0.275 HD
HETATM   16  H           1     -33.086  -4.923 -13.870  0.00  0.00     0.275 HD
ENDBRANCH   5  13
ENDBRANCH   3   5
BRANCH   4  17
HETATM   17  C           1     -35.035  -0.221 -12.343  0.00  0.00     0.186 C 
BRANCH  17  18
HETATM   18  C           1     -36.327   0.074 -11.620  0.00  0.00     0.196 C 
HETATM   19  O           1     -37.420  -0.108 -12.196  0.00  0.00    -0.646 OA
HETATM   20  O           1     -36.302   0.500 -10.445  0.00  0.00    -0.646 OA
ENDBRANCH  17  18
BRANCH  17  21
HETATM   21  C           1     -34.940   0.650 -13.589  0.00  0.00     0.046 C 
BRANCH  21  22
HETATM   22  C           1     -35.355  -0.161 -14.809  0.00  0.00     0.076 C 
BRANCH  22  23
HETATM   23  S           1     -36.494   0.817 -15.829  0.00  0.00    -0.173 SA
HETATM   24  C           1     -37.858  -0.380 -15.809  0.00  0.00     0.089 C 
ENDBRANCH  22  23
ENDBRANCH  21  22
ENDBRANCH  17  21
ENDBRANCH   4  17
TORSDOF 11
ENDMDL
MODEL 2
REMARK VINA RESULT:      -6.0      2.500      3.464
REMARK  11 active torsions:
REMARK  status: ('A' for Active; 'I' for Inactive)
REMARK    1  A    between atoms: C_1  and  C_24 
REMARK    2  A    between atoms: C_1  and  C_3 
REMARK    3  A    between atoms: C_3  and  C_9 
REMARK    4  A    between atoms: C_7  and  C_12 
REMARK    5  A    between atoms: C_9  and  N_18 
REMARK    6  A    between atoms: N_10  and  C_24 
REMARK    7  A    between atoms: C_11  and  S_20 
REMARK    8  A    between atoms: C_11  and  C_21 
REMARK    9  A    between atoms: C_12  and  C_21 
REMARK   10  A    between atoms: C_12  and  N_17 
REMARK       I    between atoms: C_16  and  N_17 
REMARK   11  A    between atoms: C_16  and  C_24 
ROOT
HETATM    1  O           1     -34.706  -2.750 -13.332  0.00  0.00    -0.271 OA
HETATM    2  H           1     -35.134  -0.410 -11.287  0.00  0.00     0.163 HD
HETATM    3  C           1     -34.512  -2.072 -12.352  0.00  0.00     0.249 C 
HETATM    4  N           1     -35.298  -0.978 -12.108  0.00  0.00    -0.345 N 
ENDROOT
BRANCH   3   5
HETATM    5  C           1     -33.402  -2.431 -11.394  0.00  0.00     0.274 C 
BRANCH   5   6
HETATM    6  C           1     -33.108  -3.922 -11.492  0.00  0.00     0.044 C 
BRANCH   6   7
HETATM    7  C           1     -33.966  -4.675 -10.483  0.00  0.00     0.030 C 
BRANCH   7   8
HETATM    8  C           1     -34.462  -5.973 -11.105  0.00  0.00     0.230 C 
BRANCH   8   9
HETATM    9  N           1     -34.755  -5.753 -12.559  0.00  0.00    -0.079 N 
HETATM   10  H           1     -35.748  -5.451 -12.674  0.00  0.00     0.274 HD
HETATM   11  H           1     -34.598  -6.643 -13.084  0.00  0.00     0.274 HD
HETATM   12  H           1     -34.121  -5.010 -12.933  0.00  0.00     0.274 HD
ENDBRANCH   8   9
ENDBRANCH   7   8
ENDBRANCH   6   7
ENDBRANCH   5   6
BRANCH   5  13
HETATM   13  N           1     -33.822  -2.094  -9.994  0.00  0.00    -0.067 N 
HETATM   14  H           1     -33.037  -2.300  -9.336  0.00  0.00     0.275 HD
HETATM   15  H           1     -34.067  -1.080  -9.938  0.00  0.00     0.275 HD
HETATM   16  H           1     -34.654  -2.670  -9.733  0.00  0.00     0.275 HD
ENDBRANCH   5  13
ENDBRANCH   3   5
BRANCH   4  17
HETATM   17  C           1     -36.364  -0.633 -13.029  0.00  0.00     0.186 C 
BRANCH  17  18
HETATM   18  C           1     -35.870   0.409 -14.002  0.00  0.00     0.196 C 
HETATM   19  O           1     -36.468   0.587 -15.084  0.00  0.00    -0.646 OA
HETATM   20  O           1     -34.863   1.096 -13.724  0.00  0.00    -0.646 OA
ENDBRANCH  17  18
BRANCH  17  21
HETATM   21  C           1     -37.549  -0.079 -12.248  0.00  0.00     0.046 C 
BRANCH  21  22
HETATM   22  C           1     -37.507  -0.605 -10.819  0.00  0.00     0.076 C 
BRANCH  22  23
HETATM   23  S           1     -37.411   0.790  -9.662  0.00  0.00    -0.173 SA
HETATM   24  C           1     -37.487  -0.204  -8.146  0.00  0.00     0.089 C 
ENDBRANCH  22  23
ENDBRANCH  21  22
ENDBRANCH  17  21
ENDBRANCH   4  17
TORSDOF 11
ENDMDL
MODEL 3
REMARK VINA RESULT:      -5.5      4.302      6.061
REMARK  11 active torsions:
REMARK  status: ('A' for Active; 'I' for Inactive)
REMARK    1  A    between atoms: C_1  and  C_24 
REMARK    2  A    between atoms: C_1  and  C_3 
REMARK    3  A    between atoms: C_3  and  C_9 
REMARK    4  A    between atoms: C_7  and  C_12 
REMARK    5  A    between atoms: C_9  and  N_18 
REMARK    6  A    between atoms: N_10  and  C_24 
REMARK    7  A    between atoms: C_11  and  S_20 
REMARK    8  A    between atoms: C_11  and  C_21 
REMARK    9  A    between atoms: C_12  and  C_21 
REMARK   10  A    between atoms: C_12  and  N_17 
REMARK       I    between atoms: C_16  and  N_17 
REMARK   11  A    between atoms: C_16  and  C_24 
ROOT
HETATM    1  O           1     -34.993  -4.999 -15.366  0.00  0.00    -0.271 OA
HETATM    2  H           1     -32.353  -3.628 -14.369  0.00  0.00     0.163 HD
HETATM    3  C           1     -33.880  -4.534 -15.433  0.00  0.00     0.249 C 
HETATM    4  N           1     -33.285  -4.017 -14.313  0.00  0.00    -0.345 N 
ENDROOT
BRANCH   3   5
HETATM    5  C           1     -33.145  -4.522 -16.750  0.00  0.00     0.274 C 
BRANCH   5   6
HETATM    6  C           1     -31.679  -4.866 -16.518  0.00  0.00     0.044 C 
BRANCH   6   7
HETATM    7  C           1     -31.353  -6.186 -17.205  0.00  0.00     0.030 C 
BRANCH   7   8
HETATM    8  C           1     -29.876  -6.504 -17.020  0.00  0.00     0.230 C 
BRANCH   8   9
HETATM    9  N           1     -29.622  -7.937 -17.385  0.00  0.00    -0.079 N 
HETATM   10  H           1     -29.491  -8.501 -16.515  0.00  0.00     0.274 HD
HETATM   11  H           1     -28.760  -7.998 -17.973  0.00  0.00     0.274 HD
HETATM   12  H           1     -30.438  -8.309 -17.922  0.00  0.00     0.274 HD
ENDBRANCH   8   9
ENDBRANCH   7   8
ENDBRANCH   6   7
ENDBRANCH   5   6
BRANCH   5  13
HETATM   13  N           1     -33.247  -3.158 -17.366  0.00  0.00    -0.067 N 
HETATM   14  H           1     -32.292  -2.821 -17.625  0.00  0.00     0.275 HD
HETATM   15  H           1     -33.843  -3.207 -18.223  0.00  0.00     0.275 HD
HETATM   16  H           1     -33.674  -2.497 -16.679  0.00  0.00     0.275 HD
ENDBRANCH   5  13
ENDBRANCH   3   5
BRANCH   4  17
HETATM   17  C           1     -33.993  -4.029 -13.047  0.00  0.00     0.186 C 
BRANCH  17  18
HETATM   18  C           1     -34.670  -2.696 -12.838  0.00  0.00     0.196 C 
HETATM   19  O           1     -34.963  -1.983 -13.821  0.00  0.00    -0.646 OA
HETATM   20  O           1     -34.939  -2.307 -11.681  0.00  0.00    -0.646 OA
ENDBRANCH  17  18
BRANCH  17  21
HETATM   21  C           1     -33.003  -4.278 -11.915  0.00  0.00     0.046 C 
BRANCH  21  22
HETATM   22  C           1     -33.212  -5.680 -11.357  0.00  0.00     0.076 C 
BRANCH  22  23
HETATM   23  S           1     -34.763  -5.732 -10.416  0.00  0.00    -0.173 SA
HETATM   24  C           1     -34.743  -7.519 -10.098  0.00  0.00     0.089 C 
ENDBRANCH  22  23
ENDBRANCH  21  22
ENDBRANCH  17  21
ENDBRANCH   4  17
TORSDOF 11
ENDMDL
MODEL 4
REMARK VINA RESULT:      -5.4      3.281      5.237
REMARK  11 active torsions:
REMARK  status: ('A' for Active; 'I' for Inactive)
REMARK    1  A    between atoms: C_1  and  C_24 
REMARK    2  A    between atoms: C_1  and  C_3 
REMARK    3  A    between atoms: C_3  and  C_9 
REMARK    4  A    between atoms: C_7  and  C_12 
REMARK    5  A    between atoms: C_9  and  N_18 
REMARK    6  A    between atoms: N_10  and  C_24 
REMARK    7  A    between atoms: C_11  and  S_20 
REMARK    8  A    between atoms: C_11  and  C_21 
REMARK    9  A    between atoms: C_12  and  C_21 
REMARK   10  A    between atoms: C_12  and  N_17 
REMARK       I    between atoms: C_16  and  N_17 
REMARK   11  A    between atoms: C_16  and  C_24 
ROOT
HETATM    1  O           1     -37.918  -0.725 -13.523  0.00  0.00    -0.271 OA
HETATM    2  H           1     -35.101  -0.002 -12.346  0.00  0.00     0.163 HD
HETATM    3  C           1     -36.794  -0.282 -13.503  0.00  0.00     0.249 C 
HETATM    4  N           1     -36.042  -0.374 -12.363  0.00  0.00    -0.345 N 
ENDROOT
BRANCH   3   5
HETATM    5  C           1     -36.219   0.374 -14.734  0.00  0.00     0.274 C 
BRANCH   5   6
HETATM    6  C           1     -36.508  -0.492 -15.953  0.00  0.00     0.044 C 
BRANCH   6   7
HETATM    7  C           1     -35.195  -0.904 -16.605  0.00  0.00     0.030 C 
BRANCH   7   8
HETATM    8  C           1     -35.039  -2.416 -16.525  0.00  0.00     0.230 C 
BRANCH   8   9
HETATM    9  N           1     -33.789  -2.831 -17.242  0.00  0.00    -0.079 N 
HETATM   10  H           1     -33.009  -2.182 -16.989  0.00  0.00     0.274 HD
HETATM   11  H           1     -33.951  -2.795 -18.273  0.00  0.00     0.274 HD
HETATM   12  H           1     -33.533  -3.805 -16.962  0.00  0.00     0.274 HD
ENDBRANCH   8   9
ENDBRANCH   7   8
ENDBRANCH   6   7
ENDBRANCH   5   6
BRANCH   5  13
HETATM   13  N           1     -34.737   0.530 -14.571  0.00  0.00    -0.067 N 
HETATM   14  H           1     -34.397  -0.123 -13.828  0.00  0.00     0.275 HD
HETATM   15  H           1     -34.261   0.307 -15.474  0.00  0.00     0.275 HD
HETATM   16  H           1     -34.518   1.514 -14.294  0.00  0.00     0.275 HD
ENDBRANCH   5  13
ENDBRANCH   3   5
BRANCH   4  17
HETATM   17  C           1     -36.594  -1.004 -11.179  0.00  0.00     0.186 C 
BRANCH  17  18
HETATM   18  C           1     -36.888   0.050 -10.139  0.00  0.00     0.196 C 
HETATM   19  O           1     -37.837   0.845 -10.306  0.00  0.00    -0.646 OA
HETATM   20  O           1     -36.181   0.127  -9.111  0.00  0.00    -0.646 OA
ENDBRANCH  17  18
BRANCH  17  21
HETATM   21  C           1     -35.589  -2.003 -10.620  0.00  0.00     0.046 C 
BRANCH  21  22
HETATM   22  C           1     -34.237  -1.792 -11.288  0.00  0.00     0.076 C 
BRANCH  22  23
HETATM   23  S           1     -33.371  -3.381 -11.419  0.00  0.00    -0.173 SA
HETATM   24  C           1     -34.070  -3.857 -13.025  0.00  0.00     0.089 C 
ENDBRANCH  22  23
ENDBRANCH  21  22
ENDBRANCH  17  21
ENDBRANCH   4  17
TORSDOF 11
ENDMDL
MODEL 5
REMARK VINA RESULT:      -5.3     13.362     15.808
REMARK  11 active torsions:
REMARK  status: ('A' for Active; 'I' for Inactive)
REMARK    1  A    between atoms: C_1  and  C_24 
REMARK    2  A    between atoms: C_1  and  C_3 
REMARK    3  A    between atoms: C_3  and  C_9 
REMARK    4  A    between atoms: C_7  and  C_12 
REMARK    5  A    between atoms: C_9  and  N_18 
REMARK    6  A    between atoms: N_10  and  C_24 
REMARK    7  A    between atoms: C_11  and  S_20 
REMARK    8  A    between atoms: C_11  and  C_21 
REMARK    9  A    between atoms: C_12  and  C_21 
REMARK   10  A    between atoms: C_12  and  N_17 
REMARK       I    between atoms: C_16  and  N_17 
REMARK   11  A    between atoms: C_16  and  C_24 
ROOT
HETATM    1  O           1     -21.959  -3.187  -7.733  0.00  0.00    -0.271 OA
HETATM    2  H           1     -22.851  -6.184  -7.483  0.00  0.00     0.163 HD
HETATM    3  C           1     -22.537  -4.209  -8.016  0.00  0.00     0.249 C 
HETATM    4  N           1     -22.368  -5.328  -7.245  0.00  0.00    -0.345 N 
ENDROOT
BRANCH   3   5
HETATM    5  C           1     -23.446  -4.253  -9.220  0.00  0.00     0.274 C 
BRANCH   5   6
HETATM    6  C           1     -22.683  -3.779 -10.450  0.00  0.00     0.044 C 
BRANCH   6   7
HETATM    7  C           1     -23.636  -3.046 -11.386  0.00  0.00     0.030 C 
BRANCH   7   8
HETATM    8  C           1     -23.012  -2.947 -12.771  0.00  0.00     0.230 C 
BRANCH   8   9
HETATM    9  N           1     -21.713  -3.696 -12.791  0.00  0.00    -0.079 N 
HETATM   10  H           1     -21.843  -4.633 -12.348  0.00  0.00     0.274 HD
HETATM   11  H           1     -20.993  -3.156 -12.260  0.00  0.00     0.274 HD
HETATM   12  H           1     -21.398  -3.819 -13.780  0.00  0.00     0.274 HD
ENDBRANCH   8   9
ENDBRANCH   7   8
ENDBRANCH   6   7
ENDBRANCH   5   6
BRANCH   5  13
HETATM   13  N           1     -24.626  -3.357  -8.987  0.00  0.00    -0.067 N 
HETATM   14  H           1     -24.301  -2.450  -8.583  0.00  0.00     0.275 HD
HETATM   15  H           1     -25.114  -3.180  -9.894  0.00  0.00     0.275 HD
HETATM   16  H           1     -25.286  -3.818  -8.319  0.00  0.00     0.275 HD
ENDBRANCH   5  13
ENDBRANCH   3   5
BRANCH   4  17
HETATM   17  C           1     -21.494  -5.285  -6.089  0.00  0.00     0.186 C 
BRANCH  17  18
HETATM   18  C           1     -20.074  -5.562  -6.521  0.00  0.00     0.196 C 
HETATM   19  O           1     -19.194  -4.689  -6.371  0.00  0.00    -0.646 OA
HETATM   20  O           1     -19.780  -6.666  -7.028  0.00  0.00    -0.646 OA
ENDBRANCH  17  18
BRANCH  17  21
HETATM   21  C           1     -21.933  -6.340  -5.082  0.00  0.00     0.046 C 
BRANCH  21  22
HETATM   22  C           1     -21.039  -6.272  -3.851  0.00  0.00     0.076 C 
BRANCH  22  23
HETATM   23  S           1     -22.064  -6.320  -2.354  0.00  0.00    -0.173 SA
HETATM   24  C           1     -21.196  -7.703  -1.562  0.00  0.00     0.089 C 
ENDBRANCH  22  23
ENDBRANCH  21  22
ENDBRANCH  17  21
ENDBRANCH   4  17
TORSDOF 11
ENDMDL
MODEL 6
REMARK VINA RESULT:      -5.3     14.944     17.321
REMARK  11 active torsions:
REMARK  status: ('A' for Active; 'I' for Inactive)
REMARK    1  A    between atoms: C_1  and  C_24 
REMARK    2  A    between atoms: C_1  and  C_3 
REMARK    3  A    between atoms: C_3  and  C_9 
REMARK    4  A    between atoms: C_7  and  C_12 
REMARK    5  A    between atoms: C_9  and  N_18 
REMARK    6  A    between atoms: N_10  and  C_24 
REMARK    7  A    between atoms: C_11  and  S_20 
REMARK    8  A    between atoms: C_11  and  C_21 
REMARK    9  A    between atoms: C_12  and  C_21 
REMARK   10  A    between atoms: C_12  and  N_17 
REMARK       I    between atoms: C_16  and  N_17 
REMARK   11  A    between atoms: C_16  and  C_24 
ROOT
HETATM    1  O           1     -22.635  -5.581  -5.701  0.00  0.00    -0.271 OA
HETATM    2  H           1     -19.882  -6.823  -4.851  0.00  0.00     0.163 HD
HETATM    3  C           1     -21.440  -5.755  -5.699  0.00  0.00     0.249 C 
HETATM    4  N           1     -20.884  -6.678  -4.854  0.00  0.00    -0.345 N 
ENDROOT
BRANCH   3   5
HETATM    5  C           1     -20.559  -4.955  -6.627  0.00  0.00     0.274 C 
BRANCH   5   6
HETATM    6  C           1     -21.375  -3.839  -7.266  0.00  0.00     0.044 C 
BRANCH   6   7
HETATM    7  C           1     -21.471  -4.077  -8.767  0.00  0.00     0.030 C 
BRANCH   7   8
HETATM    8  C           1     -22.928  -4.006  -9.202  0.00  0.00     0.230 C 
BRANCH   8   9
HETATM    9  N           1     -23.814  -4.048  -7.993  0.00  0.00    -0.079 N 
HETATM   10  H           1     -23.435  -4.737  -7.305  0.00  0.00     0.274 HD
HETATM   11  H           1     -24.778  -4.335  -8.278  0.00  0.00     0.274 HD
HETATM   12  H           1     -23.848  -3.100  -7.553  0.00  0.00     0.274 HD
ENDBRANCH   8   9
ENDBRANCH   7   8
ENDBRANCH   6   7
ENDBRANCH   5   6
BRANCH   5  13
HETATM   13  N           1     -20.016  -5.854  -7.697  0.00  0.00    -0.067 N 
HETATM   14  H           1     -18.982  -5.722  -7.771  0.00  0.00     0.275 HD
HETATM   15  H           1     -20.223  -6.849  -7.455  0.00  0.00     0.275 HD
HETATM   16  H           1     -20.462  -5.616  -8.612  0.00  0.00     0.275 HD
ENDBRANCH   5  13
ENDBRANCH   3   5
BRANCH   4  17
HETATM   17  C           1     -21.730  -7.446  -3.962  0.00  0.00     0.186 C 
BRANCH  17  18
HETATM   18  C           1     -21.620  -6.892  -2.562  0.00  0.00     0.196 C 
HETATM   19  O           1     -20.839  -7.418  -1.742  0.00  0.00    -0.646 OA
HETATM   20  O           1     -22.309  -5.905  -2.225  0.00  0.00    -0.646 OA
ENDBRANCH  17  18
BRANCH  17  21
HETATM   21  C           1     -21.284  -8.902  -3.968  0.00  0.00     0.046 C 
BRANCH  21  22
HETATM   22  C           1     -20.025  -9.045  -4.813  0.00  0.00     0.076 C 
BRANCH  22  23
HETATM   23  S           1     -19.009 -10.400  -4.162  0.00  0.00    -0.173 SA
HETATM   24  C           1     -18.118  -9.408  -2.931  0.00  0.00     0.089 C 
ENDBRANCH  22  23
ENDBRANCH  21  22
ENDBRANCH  17  21
ENDBRANCH   4  17
TORSDOF 11
ENDMDL
MODEL 7
REMARK VINA RESULT:      -5.2     14.230     16.603
REMARK  11 active torsions:
REMARK  status: ('A' for Active; 'I' for Inactive)
REMARK    1  A    between atoms: C_1  and  C_24 
REMARK    2  A    between atoms: C_1  and  C_3 
REMARK    3  A    between atoms: C_3  and  C_9 
REMARK    4  A    between atoms: C_7  and  C_12 
REMARK    5  A    between atoms: C_9  and  N_18 
REMARK    6  A    between atoms: N_10  and  C_24 
REMARK    7  A    between atoms: C_11  and  S_20 
REMARK    8  A    between atoms: C_11  and  C_21 
REMARK    9  A    between atoms: C_12  and  C_21 
REMARK   10  A    between atoms: C_12  and  N_17 
REMARK       I    between atoms: C_16  and  N_17 
REMARK   11  A    between atoms: C_16  and  C_24 
ROOT
HETATM    1  O           1     -19.404  -4.654  -6.642  0.00  0.00    -0.271 OA
HETATM    2  H           1     -22.340  -5.759  -6.656  0.00  0.00     0.163 HD
HETATM    3  C           1     -20.546  -4.792  -7.012  0.00  0.00     0.249 C 
HETATM    4  N           1     -21.384  -5.644  -6.345  0.00  0.00    -0.345 N 
ENDROOT
BRANCH   3   5
HETATM    5  C           1     -21.048  -4.024  -8.211  0.00  0.00     0.274 C 
BRANCH   5   6
HETATM    6  C           1     -22.524  -4.331  -8.429  0.00  0.00     0.044 C 
BRANCH   6   7
HETATM    7  C           1     -22.790  -4.513  -9.918  0.00  0.00     0.030 C 
BRANCH   7   8
HETATM    8  C           1     -23.915  -3.584 -10.351  0.00  0.00     0.230 C 
BRANCH   8   9
HETATM    9  N           1     -24.737  -3.201  -9.157  0.00  0.00    -0.079 N 
HETATM   10  H           1     -25.634  -3.737  -9.163  0.00  0.00     0.274 HD
HETATM   11  H           1     -24.944  -2.177  -9.192  0.00  0.00     0.274 HD
HETATM   12  H           1     -24.207  -3.420  -8.284  0.00  0.00     0.274 HD
ENDBRANCH   8   9
ENDBRANCH   7   8
ENDBRANCH   6   7
ENDBRANCH   5   6
BRANCH   5  13
HETATM   13  N           1     -20.268  -4.430  -9.426  0.00  0.00    -0.067 N 
HETATM   14  H           1     -19.507  -5.089  -9.147  0.00  0.00     0.275 HD
HETATM   15  H           1     -20.904  -4.902 -10.107  0.00  0.00     0.275 HD
HETATM   16  H           1     -19.848  -3.581  -9.869  0.00  0.00     0.275 HD
ENDBRANCH   5  13
ENDBRANCH   3   5
BRANCH   4  17
HETATM   17  C           1     -20.901  -6.381  -5.194  0.00  0.00     0.186 C 
BRANCH  17  18
HETATM   18  C           1     -20.462  -7.758  -5.628  0.00  0.00     0.196 C 
HETATM   19  O           1     -19.269  -7.966  -5.935  0.00  0.00    -0.646 OA
HETATM   20  O           1     -21.292  -8.692  -5.678  0.00  0.00    -0.646 OA
ENDBRANCH  17  18
BRANCH  17  21
HETATM   21  C           1     -22.018  -6.505  -4.165  0.00  0.00     0.046 C 
BRANCH  21  22
HETATM   22  C           1     -21.472  -6.184  -2.781  0.00  0.00     0.076 C 
BRANCH  22  23
HETATM   23  S           1     -21.258  -7.723  -1.842  0.00  0.00    -0.173 SA
HETATM   24  C           1     -22.419  -7.307  -0.510  0.00  0.00     0.089 C 
ENDBRANCH  22  23
ENDBRANCH  21  22
ENDBRANCH  17  21
ENDBRANCH   4  17
TORSDOF 11
ENDMDL
MODEL 8
REMARK VINA RESULT:      -4.9     15.371     17.776
REMARK  11 active torsions:
REMARK  status: ('A' for Active; 'I' for Inactive)
REMARK    1  A    between atoms: C_1  and  C_24 
REMARK    2  A    between atoms: C_1  and  C_3 
REMARK    3  A    between atoms: C_3  and  C_9 
REMARK    4  A    between atoms: C_7  and  C_12 
REMARK    5  A    between atoms: C_9  and  N_18 
REMARK    6  A    between atoms: N_10  and  C_24 
REMARK    7  A    between atoms: C_11  and  S_20 
REMARK    8  A    between atoms: C_11  and  C_21 
REMARK    9  A    between atoms: C_12  and  C_21 
REMARK   10  A    between atoms: C_12  and  N_17 
REMARK       I    between atoms: C_16  and  N_17 
REMARK   11  A    between atoms: C_16  and  C_24 
ROOT
HETATM    1  O           1     -21.270  -7.874  -5.813  0.00  0.00    -0.271 OA
HETATM    2  H           1     -20.809  -5.651  -3.648  0.00  0.00     0.163 HD
HETATM    3  C           1     -21.006  -6.781  -5.370  0.00  0.00     0.249 C 
HETATM    4  N           1     -21.030  -6.566  -4.018  0.00  0.00    -0.345 N 
ENDROOT
BRANCH   3   5
HETATM    5  C           1     -20.650  -5.654  -6.307  0.00  0.00     0.274 C 
BRANCH   5   6
HETATM    6  C           1     -21.920  -4.941  -6.751  0.00  0.00     0.044 C 
BRANCH   6   7
HETATM    7  C           1     -21.557  -3.782  -7.671  0.00  0.00     0.030 C 
BRANCH   7   8
HETATM    8  C           1     -22.595  -3.667  -8.778  0.00  0.00     0.230 C 
BRANCH   8   9
HETATM    9  N           1     -23.949  -4.012  -8.235  0.00  0.00    -0.079 N 
HETATM   10  H           1     -23.958  -5.009  -7.925  0.00  0.00     0.274 HD
HETATM   11  H           1     -24.669  -3.872  -8.980  0.00  0.00     0.274 HD
HETATM   12  H           1     -24.165  -3.393  -7.420  0.00  0.00     0.274 HD
ENDBRANCH   8   9
ENDBRANCH   7   8
ENDBRANCH   6   7
ENDBRANCH   5   6
BRANCH   5  13
HETATM   13  N           1     -19.942  -6.208  -7.508  0.00  0.00    -0.067 N 
HETATM   14  H           1     -18.919  -6.279  -7.307  0.00  0.00     0.275 HD
HETATM   15  H           1     -20.320  -7.157  -7.729  0.00  0.00     0.275 HD
HETATM   16  H           1     -20.092  -5.573  -8.324  0.00  0.00     0.275 HD
ENDBRANCH   5  13
ENDBRANCH   3   5
BRANCH   4  17
HETATM   17  C           1     -21.373  -7.650  -3.118  0.00  0.00     0.186 C 
BRANCH  17  18
HETATM   18  C           1     -22.074  -7.092  -1.904  0.00  0.00     0.196 C 
HETATM   19  O           1     -22.526  -5.927  -1.923  0.00  0.00    -0.646 OA
HETATM   20  O           1     -22.203  -7.795  -0.878  0.00  0.00    -0.646 OA
ENDBRANCH  17  18
BRANCH  17  21
HETATM   21  C           1     -20.102  -8.370  -2.685  0.00  0.00     0.046 C 
BRANCH  21  22
HETATM   22  C           1     -20.198  -9.842  -3.063  0.00  0.00     0.076 C 
BRANCH  22  23
HETATM   23  S           1     -19.187 -10.828  -1.923  0.00  0.00    -0.173 SA
HETATM   24  C           1     -20.368 -10.813  -0.546  0.00  0.00     0.089 C 
ENDBRANCH  22  23
ENDBRANCH  21  22
ENDBRANCH  17  21
ENDBRANCH   4  17
TORSDOF 11
ENDMDL
MODEL 9
REMARK VINA RESULT:      -4.8     25.006     26.275
REMARK  11 active torsions:
REMARK  status: ('A' for Active; 'I' for Inactive)
REMARK    1  A    between atoms: C_1  and  C_24 
REMARK    2  A    between atoms: C_1  and  C_3 
REMARK    3  A    between atoms: C_3  and  C_9 
REMARK    4  A    between atoms: C_7  and  C_12 
REMARK    5  A    between atoms: C_9  and  N_18 
REMARK    6  A    between atoms: N_10  and  C_24 
REMARK    7  A    between atoms: C_11  and  S_20 
REMARK    8  A    between atoms: C_11  and  C_21 
REMARK    9  A    between atoms: C_12  and  C_21 
REMARK   10  A    between atoms: C_12  and  N_17 
REMARK       I    between atoms: C_16  and  N_17 
REMARK   11  A    between atoms: C_16  and  C_24 
ROOT
HETATM    1  O           1     -13.073   7.150 -21.695  0.00  0.00    -0.271 OA
HETATM    2  H           1     -12.158   7.084 -18.695  0.00  0.00     0.163 HD
HETATM    3  C           1     -12.852   6.683 -20.603  0.00  0.00     0.249 C 
HETATM    4  N           1     -12.344   7.475 -19.609  0.00  0.00    -0.345 N 
ENDROOT
BRANCH   3   5
HETATM    5  C           1     -13.136   5.225 -20.335  0.00  0.00     0.274 C 
BRANCH   5   6
HETATM    6  C           1     -11.957   4.383 -20.804  0.00  0.00     0.044 C 
BRANCH   6   7
HETATM    7  C           1     -10.998   4.159 -19.643  0.00  0.00     0.030 C 
BRANCH   7   8
HETATM    8  C           1      -9.861   5.167 -19.721  0.00  0.00     0.230 C 
BRANCH   8   9
HETATM    9  N           1      -9.558   5.690 -18.348  0.00  0.00    -0.079 N 
HETATM   10  H           1      -9.892   5.006 -17.632  0.00  0.00     0.274 HD
HETATM   11  H           1     -10.044   6.604 -18.209  0.00  0.00     0.274 HD
HETATM   12  H           1      -8.526   5.823 -18.246  0.00  0.00     0.274 HD
ENDBRANCH   8   9
ENDBRANCH   7   8
ENDBRANCH   6   7
ENDBRANCH   5   6
BRANCH   5  13
HETATM   13  N           1     -14.373   4.813 -21.076  0.00  0.00    -0.067 N 
HETATM   14  H           1     -15.170   4.732 -20.406  0.00  0.00     0.275 HD
HETATM   15  H           1     -14.599   5.530 -21.802  0.00  0.00     0.275 HD
HETATM   16  H           1     -14.211   3.889 -21.536  0.00  0.00     0.275 HD
ENDBRANCH   5  13
ENDBRANCH   3   5
BRANCH   4  17
HETATM   17  C           1     -12.071   8.876 -19.868  0.00  0.00     0.186 C 
BRANCH  17  18
HETATM   18  C           1     -10.616   9.165 -19.587  0.00  0.00     0.196 C 
HETATM   19  O           1      -9.928   9.779 -20.428  0.00  0.00    -0.646 OA
HETATM   20  O           1     -10.102   8.789 -18.511  0.00  0.00    -0.646 OA
ENDBRANCH  17  18
BRANCH  17  21
HETATM   21  C           1     -12.944   9.738 -18.964  0.00  0.00     0.046 C 
BRANCH  21  22
HETATM   22  C           1     -13.507  10.905 -19.764  0.00  0.00     0.076 C 
BRANCH  22  23
HETATM   23  S           1     -14.914  11.627 -18.873  0.00  0.00    -0.173 SA
HETATM   24  C           1     -14.802  10.549 -17.418  0.00  0.00     0.089 C 
ENDBRANCH  22  23
ENDBRANCH  21  22
ENDBRANCH  17  21
ENDBRANCH   4  17
TORSDOF 11
ENDMDL
