MODEL 1
REMARK VINA RESULT:      -6.8      0.000      0.000
REMARK  11 active torsions:
REMARK  status: ('A' for Active; 'I' for Inactive)
REMARK    1  A    between atoms: C_2  and  C_3 
REMARK    2  A    between atoms: C_2  and  O_15 
REMARK    3  A    between atoms: C_3  and  C_10 
REMARK    4  A    between atoms: C_3  and  N_19 
REMARK    5  A    between atoms: O_7  and  P_14 
REMARK    6  A    between atoms: P_14  and  O_15 
REMARK    7  A    between atoms: N_16  and  C_21 
REMARK       I    between atoms: N_19  and  C_20 
REMARK    8  A    between atoms: C_20  and  C_21 
REMARK    9  A    between atoms: C_21  and  C_22 
REMARK   10  A    between atoms: C_22  and  C_23 
REMARK   11  A    between atoms: C_23  and  C_24 
ROOT
HETATM    1  O           1     -21.421  -3.261  -7.771  0.00  0.00    -0.271 OA
HETATM    2  H           1     -21.787  -5.525  -9.911  0.00  0.00     0.163 HD
HETATM    3  N           1     -21.882  -4.610  -9.489  0.00  0.00    -0.343 N 
HETATM    4  C           1     -21.306  -4.353  -8.274  0.00  0.00     0.249 C 
ENDROOT
BRANCH   3   5
HETATM    5  C           1     -22.630  -3.572 -10.171  0.00  0.00     0.210 C 
BRANCH   5   6
HETATM    6  C           1     -22.329  -3.628 -11.664  0.00  0.00     0.217 C 
BRANCH   6   7
HETATM    7  O           1     -22.830  -2.475 -12.286  0.00  0.00    -0.287 OA
BRANCH   7   8
HETATM    8  P           1     -23.612  -2.707 -13.680  0.00  0.00     0.406 P 
HETATM    9  O           1     -22.631  -2.826 -14.782  0.00  0.00    -0.624 OA
HETATM   10  O           1     -24.414  -3.948 -13.597  0.00  0.00    -0.624 OA
BRANCH   8  11
HETATM   11  O           1     -24.591  -1.454 -13.962  0.00  0.00    -0.300 OA
HETATM   12  H           1     -25.459  -1.780 -13.793  0.00  0.00     0.223 HD
ENDBRANCH   8  11
ENDBRANCH   7   8
ENDBRANCH   6   7
ENDBRANCH   5   6
BRANCH   5  13
HETATM   13  C           1     -24.106  -3.787  -9.947  0.00  0.00     0.198 C 
HETATM   14  O           1     -24.602  -4.925 -10.092  0.00  0.00    -0.646 OA
HETATM   15  O           1     -24.835  -2.825  -9.617  0.00  0.00    -0.646 OA
ENDBRANCH   5  13
ENDBRANCH   3   5
BRANCH   4  16
HETATM   16  C           1     -20.528  -5.434  -7.564  0.00  0.00     0.275 C 
BRANCH  16  17
HETATM   17  N           1     -19.315  -4.834  -6.917  0.00  0.00    -0.066 N 
HETATM   18  H           1     -18.954  -5.486  -6.185  0.00  0.00     0.275 HD
HETATM   19  H           1     -19.571  -3.921  -6.478  0.00  0.00     0.275 HD
HETATM   20  H           1     -18.576  -4.677  -7.640  0.00  0.00     0.275 HD
ENDBRANCH  16  17
BRANCH  16  21
HETATM   21  C           1     -21.406  -6.076  -6.499  0.00  0.00     0.053 C 
BRANCH  21  22
HETATM   22  C           1     -20.942  -5.627  -5.119  0.00  0.00     0.115 C 
BRANCH  22  23
HETATM   23  C           1     -21.595  -6.486  -4.064  0.00  0.00     0.172 C 
HETATM   24  O           1     -22.128  -5.953  -3.066  0.00  0.00    -0.648 OA
HETATM   25  O           1     -21.603  -7.730  -4.188  0.00  0.00    -0.648 OA
ENDBRANCH  22  23
ENDBRANCH  21  22
ENDBRANCH  16  21
ENDBRANCH   4  16
TORSDOF 11
ENDMDL
MODEL 2
REMARK VINA RESULT:      -6.6     12.137     13.533
REMARK  11 active torsions:
REMARK  status: ('A' for Active; 'I' for Inactive)
REMARK    1  A    between atoms: C_2  and  C_3 
REMARK    2  A    between atoms: C_2  and  O_15 
REMARK    3  A    between atoms: C_3  and  C_10 
REMARK    4  A    between atoms: C_3  and  N_19 
REMARK    5  A    between atoms: O_7  and  P_14 
REMARK    6  A    between atoms: P_14  and  O_15 
REMARK    7  A    between atoms: N_16  and  C_21 
REMARK       I    between atoms: N_19  and  C_20 
REMARK    8  A    between atoms: C_20  and  C_21 
REMARK    9  A    between atoms: C_21  and  C_22 
REMARK   10  A    between atoms: C_22  and  C_23 
REMARK   11  A    between atoms: C_23  and  C_24 
ROOT
HETATM    1  O           1     -35.215  -5.529 -13.742  0.00  0.00    -0.271 OA
HETATM    2  H           1     -32.979  -3.344 -14.005  0.00  0.00     0.163 HD
HETATM    3  N           1     -33.698  -3.990 -14.305  0.00  0.00    -0.343 N 
HETATM    4  C           1     -34.357  -4.758 -13.383  0.00  0.00     0.249 C 
ENDROOT
BRANCH   3   5
HETATM    5  C           1     -34.029  -4.103 -15.712  0.00  0.00     0.210 C 
BRANCH   5   6
HETATM    6  C           1     -34.927  -2.939 -16.117  0.00  0.00     0.217 C 
BRANCH   6   7
HETATM    7  O           1     -35.063  -2.057 -15.035  0.00  0.00    -0.287 OA
BRANCH   7   8
HETATM    8  P           1     -35.726  -0.623 -15.372  0.00  0.00     0.406 P 
HETATM    9  O           1     -36.031  -0.548 -16.818  0.00  0.00    -0.624 OA
HETATM   10  O           1     -36.976  -0.461 -14.595  0.00  0.00    -0.624 OA
BRANCH   8  11
HETATM   11  O           1     -34.692   0.553 -14.976  0.00  0.00    -0.300 OA
HETATM   12  H           1     -34.455   0.955 -15.794  0.00  0.00     0.223 HD
ENDBRANCH   8  11
ENDBRANCH   7   8
ENDBRANCH   6   7
ENDBRANCH   5   6
BRANCH   5  13
HETATM   13  C           1     -32.763  -4.069 -16.531  0.00  0.00     0.198 C 
HETATM   14  O           1     -32.637  -3.237 -17.455  0.00  0.00    -0.646 OA
HETATM   15  O           1     -31.839  -4.875 -16.286  0.00  0.00    -0.646 OA
ENDBRANCH   5  13
ENDBRANCH   3   5
BRANCH   4  16
HETATM   16  C           1     -34.012  -4.641 -11.919  0.00  0.00     0.275 C 
BRANCH  16  17
HETATM   17  N           1     -33.240  -5.853 -11.488  0.00  0.00    -0.066 N 
HETATM   18  H           1     -32.742  -6.258 -12.312  0.00  0.00     0.275 HD
HETATM   19  H           1     -33.898  -6.562 -11.093  0.00  0.00     0.275 HD
HETATM   20  H           1     -32.543  -5.581 -10.758  0.00  0.00     0.275 HD
ENDBRANCH  16  17
BRANCH  16  21
HETATM   21  C           1     -33.166  -3.395 -11.694  0.00  0.00     0.053 C 
BRANCH  21  22
HETATM   22  C           1     -33.892  -2.452 -10.744  0.00  0.00     0.115 C 
BRANCH  22  23
HETATM   23  C           1     -34.835  -1.574 -11.528  0.00  0.00     0.172 C 
HETATM   24  O           1     -36.019  -1.934 -11.710  0.00  0.00    -0.648 OA
HETATM   25  O           1     -34.434  -0.486 -11.995  0.00  0.00    -0.648 OA
ENDBRANCH  22  23
ENDBRANCH  21  22
ENDBRANCH  16  21
ENDBRANCH   4  16
TORSDOF 11
ENDMDL
MODEL 3
REMARK VINA RESULT:      -6.5     12.408     13.815
REMARK  11 active torsions:
REMARK  status: ('A' for Active; 'I' for Inactive)
REMARK    1  A    between atoms: C_2  and  C_3 
REMARK    2  A    between atoms: C_2  and  O_15 
REMARK    3  A    between atoms: C_3  and  C_10 
REMARK    4  A    between atoms: C_3  and  N_19 
REMARK    5  A    between atoms: O_7  and  P_14 
REMARK    6  A    between atoms: P_14  and  O_15 
REMARK    7  A    between atoms: N_16  and  C_21 
REMARK       I    between atoms: N_19  and  C_20 
REMARK    8  A    between atoms: C_20  and  C_21 
REMARK    9  A    between atoms: C_21  and  C_22 
REMARK   10  A    between atoms: C_22  and  C_23 
REMARK   11  A    between atoms: C_23  and  C_24 
ROOT
HETATM    1  O           1     -35.796  -3.140 -11.453  0.00  0.00    -0.271 OA
HETATM    2  H           1     -33.782  -2.409 -13.744  0.00  0.00     0.163 HD
HETATM    3  N           1     -34.585  -2.311 -13.136  0.00  0.00    -0.343 N 
HETATM    4  C           1     -34.838  -3.257 -12.179  0.00  0.00     0.249 C 
ENDROOT
BRANCH   3   5
HETATM    5  C           1     -35.468  -1.170 -13.279  0.00  0.00     0.210 C 
BRANCH   5   6
HETATM    6  C           1     -35.081  -0.099 -12.265  0.00  0.00     0.217 C 
BRANCH   6   7
HETATM    7  O           1     -36.225   0.613 -11.878  0.00  0.00    -0.287 OA
BRANCH   7   8
HETATM    8  P           1     -37.023   0.030 -10.601  0.00  0.00     0.406 P 
HETATM    9  O           1     -36.056  -0.483  -9.606  0.00  0.00    -0.624 OA
HETATM   10  O           1     -37.835   1.108  -9.992  0.00  0.00    -0.624 OA
BRANCH   8  11
HETATM   11  O           1     -37.995  -1.169 -11.077  0.00  0.00    -0.300 OA
HETATM   12  H           1     -38.825  -0.757 -11.247  0.00  0.00     0.223 HD
ENDBRANCH   8  11
ENDBRANCH   7   8
ENDBRANCH   6   7
ENDBRANCH   5   6
BRANCH   5  13
HETATM   13  C           1     -35.342  -0.609 -14.674  0.00  0.00     0.198 C 
HETATM   14  O           1     -36.100  -1.014 -15.581  0.00  0.00    -0.646 OA
HETATM   15  O           1     -34.480   0.262 -14.922  0.00  0.00    -0.646 OA
ENDBRANCH   5  13
ENDBRANCH   3   5
BRANCH   4  16
HETATM   16  C           1     -33.919  -4.445 -12.030  0.00  0.00     0.275 C 
BRANCH  16  17
HETATM   17  N           1     -32.517  -3.966 -11.799  0.00  0.00    -0.066 N 
HETATM   18  H           1     -32.337  -3.120 -12.386  0.00  0.00     0.275 HD
HETATM   19  H           1     -31.844  -4.722 -12.059  0.00  0.00     0.275 HD
HETATM   20  H           1     -32.394  -3.723 -10.790  0.00  0.00     0.275 HD
ENDBRANCH  16  17
BRANCH  16  21
HETATM   21  C           1     -34.369  -5.290 -10.846  0.00  0.00     0.053 C 
BRANCH  21  22
HETATM   22  C           1     -33.545  -6.569 -10.792  0.00  0.00     0.115 C 
BRANCH  22  23
HETATM   23  C           1     -34.310  -7.630 -10.040  0.00  0.00     0.172 C 
HETATM   24  O           1     -33.897  -8.810 -10.030  0.00  0.00    -0.648 OA
HETATM   25  O           1     -35.357  -7.329  -9.426  0.00  0.00    -0.648 OA
ENDBRANCH  22  23
ENDBRANCH  21  22
ENDBRANCH  16  21
ENDBRANCH   4  16
TORSDOF 11
ENDMDL
MODEL 4
REMARK VINA RESULT:      -6.3      9.669     12.300
REMARK  11 active torsions:
REMARK  status: ('A' for Active; 'I' for Inactive)
REMARK    1  A    between atoms: C_2  and  C_3 
REMARK    2  A    between atoms: C_2  and  O_15 
REMARK    3  A    between atoms: C_3  and  C_10 
REMARK    4  A    between atoms: C_3  and  N_19 
REMARK    5  A    between atoms: O_7  and  P_14 
REMARK    6  A    between atoms: P_14  and  O_15 
REMARK    7  A    between atoms: N_16  and  C_21 
REMARK       I    between atoms: N_19  and  C_20 
REMARK    8  A    between atoms: C_20  and  C_21 
REMARK    9  A    between atoms: C_21  and  C_22 
REMARK   10  A    between atoms: C_22  and  C_23 
REMARK   11  A    between atoms: C_23  and  C_24 
ROOT
HETATM    1  O           1     -31.790  -7.103 -18.197  0.00  0.00    -0.271 OA
HETATM    2  H           1     -30.921  -5.154 -15.898  0.00  0.00     0.163 HD
HETATM    3  N           1     -31.500  -5.532 -16.636  0.00  0.00    -0.343 N 
HETATM    4  C           1     -31.099  -6.652 -17.315  0.00  0.00     0.249 C 
ENDROOT
BRANCH   3   5
HETATM    5  C           1     -32.753  -4.888 -16.978  0.00  0.00     0.210 C 
BRANCH   5   6
HETATM    6  C           1     -33.671  -4.889 -15.761  0.00  0.00     0.217 C 
BRANCH   6   7
HETATM    7  O           1     -33.089  -4.129 -14.736  0.00  0.00    -0.287 OA
BRANCH   7   8
HETATM    8  P           1     -33.937  -4.024 -13.365  0.00  0.00     0.406 P 
HETATM    9  O           1     -33.016  -4.087 -12.209  0.00  0.00    -0.624 OA
HETATM   10  O           1     -34.676  -2.742 -13.338  0.00  0.00    -0.624 OA
BRANCH   8  11
HETATM   11  O           1     -34.986  -5.249 -13.287  0.00  0.00    -0.300 OA
HETATM   12  H           1     -34.893  -5.703 -14.107  0.00  0.00     0.223 HD
ENDBRANCH   8  11
ENDBRANCH   7   8
ENDBRANCH   6   7
ENDBRANCH   5   6
BRANCH   5  13
HETATM   13  C           1     -32.487  -3.466 -17.405  0.00  0.00     0.198 C 
HETATM   14  O           1     -33.439  -2.671 -17.560  0.00  0.00    -0.646 OA
HETATM   15  O           1     -31.314  -3.083 -17.605  0.00  0.00    -0.646 OA
ENDBRANCH   5  13
ENDBRANCH   3   5
BRANCH   4  16
HETATM   16  C           1     -29.794  -7.322 -16.960  0.00  0.00     0.275 C 
BRANCH  16  17
HETATM   17  N           1     -29.080  -7.723 -18.217  0.00  0.00    -0.066 N 
HETATM   18  H           1     -29.487  -7.205 -19.028  0.00  0.00     0.275 HD
HETATM   19  H           1     -29.190  -8.751 -18.367  0.00  0.00     0.275 HD
HETATM   20  H           1     -28.064  -7.490 -18.129  0.00  0.00     0.275 HD
ENDBRANCH  16  17
BRANCH  16  21
HETATM   21  C           1     -28.925  -6.356 -16.168  0.00  0.00     0.053 C 
BRANCH  21  22
HETATM   22  C           1     -27.870  -7.136 -15.395  0.00  0.00     0.115 C 
BRANCH  22  23
HETATM   23  C           1     -26.498  -6.764 -15.900  0.00  0.00     0.172 C 
HETATM   24  O           1     -25.496  -7.411 -15.524  0.00  0.00    -0.648 OA
HETATM   25  O           1     -26.362  -5.809 -16.695  0.00  0.00    -0.648 OA
ENDBRANCH  22  23
ENDBRANCH  21  22
ENDBRANCH  16  21
ENDBRANCH   4  16
TORSDOF 11
ENDMDL
MODEL 5
REMARK VINA RESULT:      -6.3      2.883      7.535
REMARK  11 active torsions:
REMARK  status: ('A' for Active; 'I' for Inactive)
REMARK    1  A    between atoms: C_2  and  C_3 
REMARK    2  A    between atoms: C_2  and  O_15 
REMARK    3  A    between atoms: C_3  and  C_10 
REMARK    4  A    between atoms: C_3  and  N_19 
REMARK    5  A    between atoms: O_7  and  P_14 
REMARK    6  A    between atoms: P_14  and  O_15 
REMARK    7  A    between atoms: N_16  and  C_21 
REMARK       I    between atoms: N_19  and  C_20 
REMARK    8  A    between atoms: C_20  and  C_21 
REMARK    9  A    between atoms: C_21  and  C_22 
REMARK   10  A    between atoms: C_22  and  C_23 
REMARK   11  A    between atoms: C_23  and  C_24 
ROOT
HETATM    1  O           1     -23.704  -3.975  -7.681  0.00  0.00    -0.271 OA
HETATM    2  H           1     -21.714  -5.352  -9.677  0.00  0.00     0.163 HD
HETATM    3  N           1     -22.031  -4.920  -8.818  0.00  0.00    -0.343 N 
HETATM    4  C           1     -23.326  -4.490  -8.705  0.00  0.00     0.249 C 
ENDROOT
BRANCH   3   5
HETATM    5  C           1     -21.113  -4.755  -7.708  0.00  0.00     0.210 C 
BRANCH   5   6
HETATM    6  C           1     -20.920  -6.095  -7.007  0.00  0.00     0.217 C 
BRANCH   6   7
HETATM    7  O           1     -20.778  -5.885  -5.628  0.00  0.00    -0.287 OA
BRANCH   7   8
HETATM    8  P           1     -21.941  -6.506  -4.695  0.00  0.00     0.406 P 
HETATM    9  O           1     -23.263  -6.090  -5.213  0.00  0.00    -0.624 OA
HETATM   10  O           1     -21.848  -7.983  -4.707  0.00  0.00    -0.624 OA
BRANCH   8  11
HETATM   11  O           1     -21.760  -5.970  -3.183  0.00  0.00    -0.300 OA
HETATM   12  H           1     -21.481  -6.722  -2.689  0.00  0.00     0.223 HD
ENDBRANCH   8  11
ENDBRANCH   7   8
ENDBRANCH   6   7
ENDBRANCH   5   6
BRANCH   5  13
HETATM   13  C           1     -19.784  -4.261  -8.223  0.00  0.00     0.198 C 
HETATM   14  O           1     -18.758  -4.377  -7.520  0.00  0.00    -0.646 OA
HETATM   15  O           1     -19.710  -3.735  -9.355  0.00  0.00    -0.646 OA
ENDBRANCH   5  13
ENDBRANCH   3   5
BRANCH   4  16
HETATM   16  C           1     -24.281  -4.661  -9.861  0.00  0.00     0.275 C 
BRANCH  16  17
HETATM   17  N           1     -25.359  -3.621  -9.777  0.00  0.00    -0.066 N 
HETATM   18  H           1     -26.285  -4.064  -9.972  0.00  0.00     0.275 HD
HETATM   19  H           1     -25.175  -2.872 -10.481  0.00  0.00     0.275 HD
HETATM   20  H           1     -25.367  -3.204  -8.819  0.00  0.00     0.275 HD
ENDBRANCH  16  17
BRANCH  16  21
HETATM   21  C           1     -23.525  -4.503 -11.173  0.00  0.00     0.053 C 
BRANCH  21  22
HETATM   22  C           1     -23.510  -3.036 -11.579  0.00  0.00     0.115 C 
BRANCH  22  23
HETATM   23  C           1     -24.330  -2.851 -12.831  0.00  0.00     0.172 C 
HETATM   24  O           1     -25.579  -2.848 -12.766  0.00  0.00    -0.648 OA
HETATM   25  O           1     -23.762  -2.702 -13.935  0.00  0.00    -0.648 OA
ENDBRANCH  22  23
ENDBRANCH  21  22
ENDBRANCH  16  21
ENDBRANCH   4  16
TORSDOF 11
ENDMDL
MODEL 6
REMARK VINA RESULT:      -6.1      2.559      4.243
REMARK  11 active torsions:
REMARK  status: ('A' for Active; 'I' for Inactive)
REMARK    1  A    between atoms: C_2  and  C_3 
REMARK    2  A    between atoms: C_2  and  O_15 
REMARK    3  A    between atoms: C_3  and  C_10 
REMARK    4  A    between atoms: C_3  and  N_19 
REMARK    5  A    between atoms: O_7  and  P_14 
REMARK    6  A    between atoms: P_14  and  O_15 
REMARK    7  A    between atoms: N_16  and  C_21 
REMARK       I    between atoms: N_19  and  C_20 
REMARK    8  A    between atoms: C_20  and  C_21 
REMARK    9  A    between atoms: C_21  and  C_22 
REMARK   10  A    between atoms: C_22  and  C_23 
REMARK   11  A    between atoms: C_23  and  C_24 
ROOT
HETATM    1  O           1     -21.159  -7.815  -6.290  0.00  0.00    -0.271 OA
HETATM    2  H           1     -22.286  -5.096  -5.203  0.00  0.00     0.163 HD
HETATM    3  N           1     -21.897  -5.749  -5.872  0.00  0.00    -0.343 N 
HETATM    4  C           1     -21.623  -7.036  -5.492  0.00  0.00     0.249 C 
ENDROOT
BRANCH   3   5
HETATM    5  C           1     -21.626  -5.321  -7.230  0.00  0.00     0.210 C 
BRANCH   5   6
HETATM    6  C           1     -22.612  -4.227  -7.622  0.00  0.00     0.217 C 
BRANCH   6   7
HETATM    7  O           1     -22.395  -3.859  -8.958  0.00  0.00    -0.287 OA
BRANCH   7   8
HETATM    8  P           1     -23.712  -3.764  -9.888  0.00  0.00     0.406 P 
HETATM    9  O           1     -23.378  -3.063 -11.147  0.00  0.00    -0.624 OA
HETATM   10  O           1     -24.198  -5.128 -10.196  0.00  0.00    -0.624 OA
BRANCH   8  11
HETATM   11  O           1     -24.865  -2.949  -9.105  0.00  0.00    -0.300 OA
HETATM   12  H           1     -25.587  -3.550  -9.039  0.00  0.00     0.223 HD
ENDBRANCH   8  11
ENDBRANCH   7   8
ENDBRANCH   6   7
ENDBRANCH   5   6
BRANCH   5  13
HETATM   13  C           1     -20.219  -4.785  -7.317  0.00  0.00     0.198 C 
HETATM   14  O           1     -19.641  -4.723  -8.424  0.00  0.00    -0.646 OA
HETATM   15  O           1     -19.631  -4.402  -6.282  0.00  0.00    -0.646 OA
ENDBRANCH   5  13
ENDBRANCH   3   5
BRANCH   4  16
HETATM   16  C           1     -21.905  -7.482  -4.078  0.00  0.00     0.275 C 
BRANCH  16  17
HETATM   17  N           1     -21.374  -8.870  -3.876  0.00  0.00    -0.066 N 
HETATM   18  H           1     -21.944  -9.357  -3.148  0.00  0.00     0.275 HD
HETATM   19  H           1     -20.378  -8.820  -3.566  0.00  0.00     0.275 HD
HETATM   20  H           1     -21.432  -9.400  -4.776  0.00  0.00     0.275 HD
ENDBRANCH  16  17
BRANCH  16  21
HETATM   21  C           1     -21.225  -6.532  -3.102  0.00  0.00     0.053 C 
BRANCH  21  22
HETATM   22  C           1     -22.204  -6.146  -2.001  0.00  0.00     0.115 C 
BRANCH  22  23
HETATM   23  C           1     -22.168  -7.184  -0.908  0.00  0.00     0.172 C 
HETATM   24  O           1     -23.144  -7.313  -0.135  0.00  0.00    -0.648 OA
HETATM   25  O           1     -21.163  -7.915  -0.773  0.00  0.00    -0.648 OA
ENDBRANCH  22  23
ENDBRANCH  21  22
ENDBRANCH  16  21
ENDBRANCH   4  16
TORSDOF 11
ENDMDL
MODEL 7
REMARK VINA RESULT:      -6.0      1.981      2.338
REMARK  11 active torsions:
REMARK  status: ('A' for Active; 'I' for Inactive)
REMARK    1  A    between atoms: C_2  and  C_3 
REMARK    2  A    between atoms: C_2  and  O_15 
REMARK    3  A    between atoms: C_3  and  C_10 
REMARK    4  A    between atoms: C_3  and  N_19 
REMARK    5  A    between atoms: O_7  and  P_14 
REMARK    6  A    between atoms: P_14  and  O_15 
REMARK    7  A    between atoms: N_16  and  C_21 
REMARK       I    between atoms: N_19  and  C_20 
REMARK    8  A    between atoms: C_20  and  C_21 
REMARK    9  A    between atoms: C_21  and  C_22 
REMARK   10  A    between atoms: C_22  and  C_23 
REMARK   11  A    between atoms: C_23  and  C_24 
ROOT
HETATM    1  O           1     -20.944  -5.388  -8.736  0.00  0.00    -0.271 OA
HETATM    2  H           1     -22.768  -2.844  -8.942  0.00  0.00     0.163 HD
HETATM    3  N           1     -22.213  -3.628  -9.262  0.00  0.00    -0.343 N 
HETATM    4  C           1     -21.605  -4.453  -8.354  0.00  0.00     0.249 C 
ENDROOT
BRANCH   3   5
HETATM    5  C           1     -22.061  -3.876 -10.682  0.00  0.00     0.210 C 
BRANCH   5   6
HETATM    6  C           1     -23.080  -3.046 -11.454  0.00  0.00     0.217 C 
BRANCH   6   7
HETATM    7  O           1     -22.521  -2.635 -12.673  0.00  0.00    -0.287 OA
BRANCH   7   8
HETATM    8  P           1     -23.483  -2.746 -13.965  0.00  0.00     0.406 P 
HETATM    9  O           1     -22.657  -2.857 -15.188  0.00  0.00    -0.624 OA
HETATM   10  O           1     -24.343  -3.944 -13.839  0.00  0.00    -0.624 OA
BRANCH   8  11
HETATM   11  O           1     -24.412  -1.428 -14.059  0.00  0.00    -0.300 OA
HETATM   12  H           1     -24.849  -1.496 -14.890  0.00  0.00     0.223 HD
ENDBRANCH   8  11
ENDBRANCH   7   8
ENDBRANCH   6   7
ENDBRANCH   5   6
BRANCH   5  13
HETATM   13  C           1     -20.668  -3.489 -11.113  0.00  0.00     0.198 C 
HETATM   14  O           1     -19.893  -4.355 -11.576  0.00  0.00    -0.646 OA
HETATM   15  O           1     -20.288  -2.303 -11.007  0.00  0.00    -0.646 OA
ENDBRANCH   5  13
ENDBRANCH   3   5
BRANCH   4  16
HETATM   16  C           1     -21.764  -4.194  -6.875  0.00  0.00     0.275 C 
BRANCH  16  17
HETATM   17  N           1     -23.007  -4.873  -6.380  0.00  0.00    -0.066 N 
HETATM   18  H           1     -22.745  -5.743  -5.865  0.00  0.00     0.275 HD
HETATM   19  H           1     -23.617  -5.116  -7.192  0.00  0.00     0.275 HD
HETATM   20  H           1     -23.523  -4.229  -5.737  0.00  0.00     0.275 HD
ENDBRANCH  16  17
BRANCH  16  21
HETATM   21  C           1     -20.555  -4.743  -6.131  0.00  0.00     0.053 C 
BRANCH  21  22
HETATM   22  C           1     -21.021  -5.681  -5.025  0.00  0.00     0.115 C 
BRANCH  22  23
HETATM   23  C           1     -20.695  -7.105  -5.403  0.00  0.00     0.172 C 
HETATM   24  O           1     -19.830  -7.740  -4.760  0.00  0.00    -0.648 OA
HETATM   25  O           1     -21.290  -7.650  -6.358  0.00  0.00    -0.648 OA
ENDBRANCH  22  23
ENDBRANCH  21  22
ENDBRANCH  16  21
ENDBRANCH   4  16
TORSDOF 11
ENDMDL
MODEL 8
REMARK VINA RESULT:      -5.9      2.909      7.819
REMARK  11 active torsions:
REMARK  status: ('A' for Active; 'I' for Inactive)
REMARK    1  A    between atoms: C_2  and  C_3 
REMARK    2  A    between atoms: C_2  and  O_15 
REMARK    3  A    between atoms: C_3  and  C_10 
REMARK    4  A    between atoms: C_3  and  N_19 
REMARK    5  A    between atoms: O_7  and  P_14 
REMARK    6  A    between atoms: P_14  and  O_15 
REMARK    7  A    between atoms: N_16  and  C_21 
REMARK       I    between atoms: N_19  and  C_20 
REMARK    8  A    between atoms: C_20  and  C_21 
REMARK    9  A    between atoms: C_21  and  C_22 
REMARK   10  A    between atoms: C_22  and  C_23 
REMARK   11  A    between atoms: C_23  and  C_24 
ROOT
HETATM    1  O           1     -23.180  -4.531 -10.182  0.00  0.00    -0.271 OA
HETATM    2  H           1     -20.196  -3.866  -9.480  0.00  0.00     0.163 HD
HETATM    3  N           1     -21.116  -4.270  -9.369  0.00  0.00    -0.343 N 
HETATM    4  C           1     -22.081  -4.048 -10.315  0.00  0.00     0.249 C 
ENDROOT
BRANCH   3   5
HETATM    5  C           1     -21.415  -5.085  -8.207  0.00  0.00     0.210 C 
BRANCH   5   6
HETATM    6  C           1     -20.125  -5.691  -7.668  0.00  0.00     0.217 C 
BRANCH   6   7
HETATM    7  O           1     -20.193  -5.768  -6.270  0.00  0.00    -0.287 OA
BRANCH   7   8
HETATM    8  P           1     -20.377  -7.249  -5.652  0.00  0.00     0.406 P 
HETATM    9  O           1     -21.545  -7.905  -6.281  0.00  0.00    -0.624 OA
HETATM   10  O           1     -19.160  -8.049  -5.916  0.00  0.00    -0.624 OA
BRANCH   8  11
HETATM   11  O           1     -20.613  -7.141  -4.058  0.00  0.00    -0.300 OA
HETATM   12  H           1     -20.837  -8.014  -3.784  0.00  0.00     0.223 HD
ENDBRANCH   8  11
ENDBRANCH   7   8
ENDBRANCH   6   7
ENDBRANCH   5   6
BRANCH   5  13
HETATM   13  C           1     -22.051  -4.226  -7.142  0.00  0.00     0.198 C 
HETATM   14  O           1     -23.095  -4.608  -6.571  0.00  0.00    -0.646 OA
HETATM   15  O           1     -21.533  -3.131  -6.830  0.00  0.00    -0.646 OA
ENDBRANCH   5  13
ENDBRANCH   3   5
BRANCH   4  16
HETATM   16  C           1     -21.770  -3.200 -11.524  0.00  0.00     0.275 C 
BRANCH  16  17
HETATM   17  N           1     -21.138  -4.054 -12.584  0.00  0.00    -0.066 N 
HETATM   18  H           1     -21.507  -3.774 -13.521  0.00  0.00     0.275 HD
HETATM   19  H           1     -21.366  -5.057 -12.404  0.00  0.00     0.275 HD
HETATM   20  H           1     -20.102  -3.923 -12.564  0.00  0.00     0.275 HD
ENDBRANCH  16  17
BRANCH  16  21
HETATM   21  C           1     -23.058  -2.592 -12.063  0.00  0.00     0.053 C 
BRANCH  21  22
HETATM   22  C           1     -23.479  -3.331 -13.327  0.00  0.00     0.115 C 
BRANCH  22  23
HETATM   23  C           1     -23.306  -2.425 -14.521  0.00  0.00     0.172 C 
HETATM   24  O           1     -22.437  -2.686 -15.382  0.00  0.00    -0.648 OA
HETATM   25  O           1     -24.031  -1.415 -14.650  0.00  0.00    -0.648 OA
ENDBRANCH  22  23
ENDBRANCH  21  22
ENDBRANCH  16  21
ENDBRANCH   4  16
TORSDOF 11
ENDMDL
MODEL 9
REMARK VINA RESULT:      -5.8     13.344     15.272
REMARK  11 active torsions:
REMARK  status: ('A' for Active; 'I' for Inactive)
REMARK    1  A    between atoms: C_2  and  C_3 
REMARK    2  A    between atoms: C_2  and  O_15 
REMARK    3  A    between atoms: C_3  and  C_10 
REMARK    4  A    between atoms: C_3  and  N_19 
REMARK    5  A    between atoms: O_7  and  P_14 
REMARK    6  A    between atoms: P_14  and  O_15 
REMARK    7  A    between atoms: N_16  and  C_21 
REMARK       I    between atoms: N_19  and  C_20 
REMARK    8  A    between atoms: C_20  and  C_21 
REMARK    9  A    between atoms: C_21  and  C_22 
REMARK   10  A    between atoms: C_22  and  C_23 
REMARK   11  A    between atoms: C_23  and  C_24 
ROOT
HETATM    1  O           1     -34.779  -0.025 -12.144  0.00  0.00    -0.271 OA
HETATM    2  H           1     -37.827  -0.432 -12.765  0.00  0.00     0.163 HD
HETATM    3  N           1     -36.969  -0.453 -12.229  0.00  0.00    -0.343 N 
HETATM    4  C           1     -35.802   0.000 -12.785  0.00  0.00     0.249 C 
ENDROOT
BRANCH   3   5
HETATM    5  C           1     -36.974  -0.964 -10.872  0.00  0.00     0.210 C 
BRANCH   5   6
HETATM    6  C           1     -35.717  -1.794 -10.639  0.00  0.00     0.217 C 
BRANCH   6   7
HETATM    7  O           1     -35.955  -3.121 -11.024  0.00  0.00    -0.287 OA
BRANCH   7   8
HETATM    8  P           1     -34.703  -3.902 -11.680  0.00  0.00     0.406 P 
HETATM    9  O           1     -33.863  -4.479 -10.607  0.00  0.00    -0.624 OA
HETATM   10  O           1     -35.201  -4.988 -12.555  0.00  0.00    -0.624 OA
BRANCH   8  11
HETATM   11  O           1     -33.824  -2.868 -12.556  0.00  0.00    -0.300 OA
HETATM   12  H           1     -34.041  -2.016 -12.218  0.00  0.00     0.223 HD
ENDBRANCH   8  11
ENDBRANCH   7   8
ENDBRANCH   6   7
ENDBRANCH   5   6
BRANCH   5  13
HETATM   13  C           1     -37.003   0.189  -9.900  0.00  0.00     0.198 C 
HETATM   14  O           1     -37.823   1.120 -10.058  0.00  0.00    -0.646 OA
HETATM   15  O           1     -36.207   0.214  -8.936  0.00  0.00    -0.646 OA
ENDBRANCH   5  13
ENDBRANCH   3   5
BRANCH   4  16
HETATM   16  C           1     -35.796   0.533 -14.197  0.00  0.00     0.275 C 
BRANCH  16  17
HETATM   17  N           1     -34.380   0.674 -14.672  0.00  0.00    -0.066 N 
HETATM   18  H           1     -33.799   1.094 -13.912  0.00  0.00     0.275 HD
HETATM   19  H           1     -34.356   1.294 -15.513  0.00  0.00     0.275 HD
HETATM   20  H           1     -34.001  -0.267 -14.922  0.00  0.00     0.275 HD
ENDBRANCH  16  17
BRANCH  16  21
HETATM   21  C           1     -36.543  -0.433 -15.107  0.00  0.00     0.053 C 
BRANCH  21  22
HETATM   22  C           1     -35.756  -0.629 -16.396  0.00  0.00     0.115 C 
BRANCH  22  23
HETATM   23  C           1     -34.921  -1.881 -16.291  0.00  0.00     0.172 C 
HETATM   24  O           1     -34.905  -2.535 -15.224  0.00  0.00    -0.648 OA
HETATM   25  O           1     -34.244  -2.265 -17.269  0.00  0.00    -0.648 OA
ENDBRANCH  22  23
ENDBRANCH  21  22
ENDBRANCH  16  21
ENDBRANCH   4  16
TORSDOF 11
ENDMDL
