MODEL 1
REMARK VINA RESULT:      -7.6      0.000      0.000
REMARK  7 active torsions:
REMARK  status: ('A' for Active; 'I' for Inactive)
REMARK    1  A    between atoms: C_2  and  C_5 
REMARK    2  A    between atoms: C_2  and  N_17 
REMARK    3  A    between atoms: N_4  and  C_11 
REMARK    4  A    between atoms: C_6  and  O_7 
REMARK    5  A    between atoms: C_11  and  C_23 
REMARK    6  A    between atoms: C_11  and  C_16 
REMARK    7  A    between atoms: C_14  and  C_16 
REMARK       I    between atoms: N_17  and  C_23 
ROOT
HETATM    1  C           1     -35.812  -0.647 -11.432  0.00  0.00     0.278 C 
ENDROOT
BRANCH   1   2
HETATM    2  N           1     -36.182   0.458 -10.487  0.00  0.00    -0.066 N 
HETATM    3  H           1     -36.259   0.076  -9.518  0.00  0.00     0.275 HD
HETATM    4  H           1     -35.445   1.198 -10.512  0.00  0.00     0.275 HD
HETATM    5  H           1     -37.100   0.867 -10.773  0.00  0.00     0.275 HD
ENDBRANCH   1   2
BRANCH   1   6
HETATM    6  C           1     -36.477  -0.410 -12.767  0.00  0.00     0.249 C 
HETATM    7  O           1     -37.652  -0.654 -12.906  0.00  0.00    -0.271 OA
HETATM    8  N           1     -35.750   0.079 -13.818  0.00  0.00    -0.345 N 
HETATM    9  H           1     -34.765   0.282 -13.700  0.00  0.00     0.163 HD
BRANCH   8  10
HETATM   10  C           1     -36.390   0.306 -15.099  0.00  0.00     0.181 C 
HETATM   11  C           1     -35.923   1.638 -15.671  0.00  0.00     0.043 C 
BRANCH  10  12
HETATM   12  C           1     -36.018  -0.806 -16.048  0.00  0.00     0.196 C 
HETATM   13  O           1     -36.534  -0.857 -17.186  0.00  0.00    -0.646 OA
HETATM   14  O           1     -35.193  -1.678 -15.698  0.00  0.00    -0.646 OA
ENDBRANCH  10  12
ENDBRANCH   8  10
ENDBRANCH   1   6
BRANCH   1  15
HETATM   15  C           1     -36.276  -1.980 -10.862  0.00  0.00     0.081 C 
BRANCH  15  16
HETATM   16  C           1     -35.205  -3.007 -11.053  0.00  0.00    -0.056 A 
HETATM   17  C           1     -35.504  -4.362 -10.905  0.00  0.00     0.010 A 
HETATM   18  C           1     -34.506  -5.320 -11.084  0.00  0.00     0.037 A 
HETATM   19  C           1     -33.210  -4.923 -11.411  0.00  0.00     0.065 A 
HETATM   20  C           1     -32.911  -3.569 -11.561  0.00  0.00     0.037 A 
HETATM   21  C           1     -33.908  -2.611 -11.382  0.00  0.00     0.010 A 
BRANCH  19  22
HETATM   22  O           1     -32.240  -5.854 -11.586  0.00  0.00    -0.361 OA
HETATM   23  H           1     -31.405  -5.388 -11.762  0.00  0.00     0.217 HD
ENDBRANCH  19  22
ENDBRANCH  15  16
ENDBRANCH   1  15
TORSDOF 7
ENDMDL
MODEL 2
REMARK VINA RESULT:      -7.1      1.588      1.945
REMARK  7 active torsions:
REMARK  status: ('A' for Active; 'I' for Inactive)
REMARK    1  A    between atoms: C_2  and  C_5 
REMARK    2  A    between atoms: C_2  and  N_17 
REMARK    3  A    between atoms: N_4  and  C_11 
REMARK    4  A    between atoms: C_6  and  O_7 
REMARK    5  A    between atoms: C_11  and  C_23 
REMARK    6  A    between atoms: C_11  and  C_16 
REMARK    7  A    between atoms: C_14  and  C_16 
REMARK       I    between atoms: N_17  and  C_23 
ROOT
HETATM    1  C           1     -34.534  -2.486 -11.771  0.00  0.00     0.278 C 
ENDROOT
BRANCH   1   2
HETATM    2  N           1     -33.704  -1.575 -10.914  0.00  0.00    -0.066 N 
HETATM    3  H           1     -33.670  -0.625 -11.347  0.00  0.00     0.275 HD
HETATM    4  H           1     -34.130  -1.509  -9.962  0.00  0.00     0.275 HD
HETATM    5  H           1     -32.734  -1.958 -10.838  0.00  0.00     0.275 HD
ENDBRANCH   1   2
BRANCH   1   6
HETATM    6  C           1     -35.389  -1.658 -12.700  0.00  0.00     0.249 C 
HETATM    7  O           1     -36.561  -1.496 -12.458  0.00  0.00    -0.271 OA
HETATM    8  N           1     -34.836  -1.092 -13.817  0.00  0.00    -0.345 N 
HETATM    9  H           1     -33.853  -1.229 -14.020  0.00  0.00     0.163 HD
BRANCH   8  10
HETATM   10  C           1     -35.657  -0.298 -14.709  0.00  0.00     0.181 C 
HETATM   11  C           1     -35.114   1.123 -14.771  0.00  0.00     0.043 C 
BRANCH  10  12
HETATM   12  C           1     -35.630  -0.906 -16.090  0.00  0.00     0.196 C 
HETATM   13  O           1     -36.549  -0.661 -16.900  0.00  0.00    -0.646 OA
HETATM   14  O           1     -34.686  -1.655 -16.425  0.00  0.00    -0.646 OA
ENDBRANCH  10  12
ENDBRANCH   8  10
ENDBRANCH   1   6
BRANCH   1  15
HETATM   15  C           1     -35.428  -3.341 -10.884  0.00  0.00     0.081 C 
BRANCH  15  16
HETATM   16  C           1     -34.832  -4.706 -10.741  0.00  0.00    -0.056 A 
HETATM   17  C           1     -35.529  -5.703 -10.056  0.00  0.00     0.010 A 
HETATM   18  C           1     -34.974  -6.975  -9.923  0.00  0.00     0.037 A 
HETATM   19  C           1     -33.723  -7.252 -10.474  0.00  0.00     0.065 A 
HETATM   20  C           1     -33.027  -6.257 -11.159  0.00  0.00     0.037 A 
HETATM   21  C           1     -33.581  -4.984 -11.292  0.00  0.00     0.010 A 
BRANCH  19  22
HETATM   22  O           1     -33.184  -8.489 -10.345  0.00  0.00    -0.361 OA
HETATM   23  H           1     -33.192  -8.913 -11.220  0.00  0.00     0.217 HD
ENDBRANCH  19  22
ENDBRANCH  15  16
ENDBRANCH   1  15
TORSDOF 7
ENDMDL
MODEL 3
REMARK VINA RESULT:      -7.0     11.984     14.032
REMARK  7 active torsions:
REMARK  status: ('A' for Active; 'I' for Inactive)
REMARK    1  A    between atoms: C_2  and  C_5 
REMARK    2  A    between atoms: C_2  and  N_17 
REMARK    3  A    between atoms: N_4  and  C_11 
REMARK    4  A    between atoms: C_6  and  O_7 
REMARK    5  A    between atoms: C_11  and  C_23 
REMARK    6  A    between atoms: C_11  and  C_16 
REMARK    7  A    between atoms: C_14  and  C_16 
REMARK       I    between atoms: N_17  and  C_23 
ROOT
HETATM    1  C           1     -21.259  -4.381 -10.668  0.00  0.00     0.278 C 
ENDROOT
BRANCH   1   2
HETATM    2  N           1     -20.082  -3.714 -11.316  0.00  0.00    -0.066 N 
HETATM    3  H           1     -20.129  -2.684 -11.148  0.00  0.00     0.275 HD
HETATM    4  H           1     -19.198  -4.093 -10.906  0.00  0.00     0.275 HD
HETATM    5  H           1     -20.099  -3.900 -12.344  0.00  0.00     0.275 HD
ENDBRANCH   1   2
BRANCH   1   6
HETATM    6  C           1     -22.440  -4.337 -11.608  0.00  0.00     0.249 C 
HETATM    7  O           1     -23.354  -5.114 -11.465  0.00  0.00    -0.271 OA
HETATM    8  N           1     -22.475  -3.417 -12.621  0.00  0.00    -0.345 N 
HETATM    9  H           1     -21.708  -2.767 -12.740  0.00  0.00     0.163 HD
BRANCH   8  10
HETATM   10  C           1     -23.609  -3.376 -13.524  0.00  0.00     0.181 C 
HETATM   11  C           1     -24.827  -2.839 -12.785  0.00  0.00     0.043 C 
BRANCH  10  12
HETATM   12  C           1     -23.290  -2.472 -14.689  0.00  0.00     0.196 C 
HETATM   13  O           1     -22.362  -2.765 -15.473  0.00  0.00    -0.646 OA
HETATM   14  O           1     -23.954  -1.428 -14.871  0.00  0.00    -0.646 OA
ENDBRANCH  10  12
ENDBRANCH   8  10
ENDBRANCH   1   6
BRANCH   1  15
HETATM   15  C           1     -21.608  -3.652  -9.378  0.00  0.00     0.081 C 
BRANCH  15  16
HETATM   16  C           1     -21.287  -4.527  -8.206  0.00  0.00    -0.056 A 
HETATM   17  C           1     -22.225  -4.698  -7.187  0.00  0.00     0.010 A 
HETATM   18  C           1     -21.927  -5.513  -6.095  0.00  0.00     0.037 A 
HETATM   19  C           1     -20.692  -6.157  -6.023  0.00  0.00     0.065 A 
HETATM   20  C           1     -19.755  -5.987  -7.042  0.00  0.00     0.037 A 
HETATM   21  C           1     -20.053  -5.172  -8.134  0.00  0.00     0.010 A 
BRANCH  19  22
HETATM   22  O           1     -20.401  -6.950  -4.962  0.00  0.00    -0.361 OA
HETATM   23  H           1     -20.652  -6.472  -4.154  0.00  0.00     0.217 HD
ENDBRANCH  19  22
ENDBRANCH  15  16
ENDBRANCH   1  15
TORSDOF 7
ENDMDL
MODEL 4
REMARK VINA RESULT:      -7.0     12.440     15.953
REMARK  7 active torsions:
REMARK  status: ('A' for Active; 'I' for Inactive)
REMARK    1  A    between atoms: C_2  and  C_5 
REMARK    2  A    between atoms: C_2  and  N_17 
REMARK    3  A    between atoms: N_4  and  C_11 
REMARK    4  A    between atoms: C_6  and  O_7 
REMARK    5  A    between atoms: C_11  and  C_23 
REMARK    6  A    between atoms: C_11  and  C_16 
REMARK    7  A    between atoms: C_14  and  C_16 
REMARK       I    between atoms: N_17  and  C_23 
ROOT
HETATM    1  C           1     -21.904  -4.440  -7.307  0.00  0.00     0.278 C 
ENDROOT
BRANCH   1   2
HETATM    2  N           1     -21.593  -2.978  -7.186  0.00  0.00    -0.066 N 
HETATM    3  H           1     -21.300  -2.605  -8.117  0.00  0.00     0.275 HD
HETATM    4  H           1     -22.444  -2.467  -6.858  0.00  0.00     0.275 HD
HETATM    5  H           1     -20.817  -2.843  -6.498  0.00  0.00     0.275 HD
ENDBRANCH   1   2
BRANCH   1   6
HETATM    6  C           1     -21.215  -5.194  -6.195  0.00  0.00     0.249 C 
HETATM    7  O           1     -20.013  -5.143  -6.087  0.00  0.00    -0.271 OA
HETATM    8  N           1     -21.951  -5.934  -5.310  0.00  0.00    -0.345 N 
HETATM    9  H           1     -22.959  -5.976  -5.401  0.00  0.00     0.163 HD
BRANCH   8  10
HETATM   10  C           1     -21.289  -6.657  -4.242  0.00  0.00     0.181 C 
HETATM   11  C           1     -21.959  -6.331  -2.914  0.00  0.00     0.043 C 
BRANCH  10  12
HETATM   12  C           1     -21.389  -8.140  -4.504  0.00  0.00     0.196 C 
HETATM   13  O           1     -21.657  -8.924  -3.569  0.00  0.00    -0.646 OA
HETATM   14  O           1     -21.204  -8.585  -5.658  0.00  0.00    -0.646 OA
ENDBRANCH  10  12
ENDBRANCH   8  10
ENDBRANCH   1   6
BRANCH   1  15
HETATM   15  C           1     -21.410  -4.954  -8.652  0.00  0.00     0.081 C 
BRANCH  15  16
HETATM   16  C           1     -22.145  -4.259  -9.754  0.00  0.00    -0.056 A 
HETATM   17  C           1     -23.540  -4.226  -9.749  0.00  0.00     0.010 A 
HETATM   18  C           1     -24.227  -3.578 -10.775  0.00  0.00     0.037 A 
HETATM   19  C           1     -23.518  -2.963 -11.807  0.00  0.00     0.065 A 
HETATM   20  C           1     -22.124  -2.995 -11.813  0.00  0.00     0.037 A 
HETATM   21  C           1     -21.438  -3.643 -10.786  0.00  0.00     0.010 A 
BRANCH  19  22
HETATM   22  O           1     -24.184  -2.333 -12.806  0.00  0.00    -0.361 OA
HETATM   23  H           1     -25.103  -2.650 -12.800  0.00  0.00     0.217 HD
ENDBRANCH  19  22
ENDBRANCH  15  16
ENDBRANCH   1  15
TORSDOF 7
ENDMDL
MODEL 5
REMARK VINA RESULT:      -6.8      2.151      2.973
REMARK  7 active torsions:
REMARK  status: ('A' for Active; 'I' for Inactive)
REMARK    1  A    between atoms: C_2  and  C_5 
REMARK    2  A    between atoms: C_2  and  N_17 
REMARK    3  A    between atoms: N_4  and  C_11 
REMARK    4  A    between atoms: C_6  and  O_7 
REMARK    5  A    between atoms: C_11  and  C_23 
REMARK    6  A    between atoms: C_11  and  C_16 
REMARK    7  A    between atoms: C_14  and  C_16 
REMARK       I    between atoms: N_17  and  C_23 
ROOT
HETATM    1  C           1     -34.146  -2.797 -11.564  0.00  0.00     0.278 C 
ENDROOT
BRANCH   1   2
HETATM    2  N           1     -33.672  -1.684 -10.676  0.00  0.00    -0.066 N 
HETATM    3  H           1     -32.998  -2.063  -9.973  0.00  0.00     0.275 HD
HETATM    4  H           1     -33.198  -0.955 -11.255  0.00  0.00     0.275 HD
HETATM    5  H           1     -34.490  -1.262 -10.181  0.00  0.00     0.275 HD
ENDBRANCH   1   2
BRANCH   1   6
HETATM    6  C           1     -34.741  -2.213 -12.823  0.00  0.00     0.249 C 
HETATM    7  O           1     -34.655  -2.816 -13.867  0.00  0.00    -0.271 OA
HETATM    8  N           1     -35.377  -1.002 -12.783  0.00  0.00    -0.345 N 
HETATM    9  H           1     -35.448  -0.497 -11.908  0.00  0.00     0.163 HD
BRANCH   8  10
HETATM   10  C           1     -35.948  -0.442 -13.992  0.00  0.00     0.181 C 
HETATM   11  C           1     -37.437  -0.198 -13.786  0.00  0.00     0.043 C 
BRANCH  10  12
HETATM   12  C           1     -35.265   0.865 -14.311  0.00  0.00     0.196 C 
HETATM   13  O           1     -35.541   1.475 -15.366  0.00  0.00    -0.646 OA
HETATM   14  O           1     -34.421   1.338 -13.519  0.00  0.00    -0.646 OA
ENDBRANCH  10  12
ENDBRANCH   8  10
ENDBRANCH   1   6
BRANCH   1  15
HETATM   15  C           1     -35.202  -3.615 -10.834  0.00  0.00     0.081 C 
BRANCH  15  16
HETATM   16  C           1     -34.709  -5.016 -10.648  0.00  0.00    -0.056 A 
HETATM   17  C           1     -33.488  -5.405 -11.202  0.00  0.00     0.010 A 
HETATM   18  C           1     -33.028  -6.709 -11.029  0.00  0.00     0.037 A 
HETATM   19  C           1     -33.789  -7.626 -10.302  0.00  0.00     0.065 A 
HETATM   20  C           1     -35.008  -7.238  -9.748  0.00  0.00     0.037 A 
HETATM   21  C           1     -35.468  -5.933  -9.921  0.00  0.00     0.010 A 
BRANCH  19  22
HETATM   22  O           1     -33.342  -8.895 -10.133  0.00  0.00    -0.361 OA
HETATM   23  H           1     -32.605  -9.038 -10.750  0.00  0.00     0.217 HD
ENDBRANCH  19  22
ENDBRANCH  15  16
ENDBRANCH   1  15
TORSDOF 7
ENDMDL
MODEL 6
REMARK VINA RESULT:      -6.7     13.100     15.484
REMARK  7 active torsions:
REMARK  status: ('A' for Active; 'I' for Inactive)
REMARK    1  A    between atoms: C_2  and  C_5 
REMARK    2  A    between atoms: C_2  and  N_17 
REMARK    3  A    between atoms: N_4  and  C_11 
REMARK    4  A    between atoms: C_6  and  O_7 
REMARK    5  A    between atoms: C_11  and  C_23 
REMARK    6  A    between atoms: C_11  and  C_16 
REMARK    7  A    between atoms: C_14  and  C_16 
REMARK       I    between atoms: N_17  and  C_23 
ROOT
HETATM    1  C           1     -21.080  -5.697  -6.761  0.00  0.00     0.278 C 
ENDROOT
BRANCH   1   2
HETATM    2  N           1     -19.809  -6.181  -7.394  0.00  0.00    -0.066 N 
HETATM    3  H           1     -19.113  -6.408  -6.648  0.00  0.00     0.275 HD
HETATM    4  H           1     -20.006  -7.038  -7.958  0.00  0.00     0.275 HD
HETATM    5  H           1     -19.423  -5.434  -8.015  0.00  0.00     0.275 HD
ENDBRANCH   1   2
BRANCH   1   6
HETATM    6  C           1     -21.620  -4.528  -7.550  0.00  0.00     0.249 C 
HETATM    7  O           1     -21.486  -3.403  -7.131  0.00  0.00    -0.271 OA
HETATM    8  N           1     -22.262  -4.743  -8.740  0.00  0.00    -0.345 N 
HETATM    9  H           1     -22.375  -5.687  -9.090  0.00  0.00     0.163 HD
BRANCH   8  10
HETATM   10  C           1     -22.781  -3.621  -9.497  0.00  0.00     0.181 C 
HETATM   11  C           1     -22.090  -3.559 -10.852  0.00  0.00     0.043 C 
BRANCH  10  12
HETATM   12  C           1     -24.266  -3.796  -9.699  0.00  0.00     0.196 C 
HETATM   13  O           1     -25.033  -2.816  -9.583  0.00  0.00    -0.646 OA
HETATM   14  O           1     -24.730  -4.922  -9.981  0.00  0.00    -0.646 OA
ENDBRANCH  10  12
ENDBRANCH   8  10
ENDBRANCH   1   6
BRANCH   1  15
HETATM   15  C           1     -20.800  -5.258  -5.331  0.00  0.00     0.081 C 
BRANCH  15  16
HETATM   16  C           1     -21.113  -6.380  -4.392  0.00  0.00    -0.056 A 
HETATM   17  C           1     -21.267  -7.677  -4.883  0.00  0.00     0.010 A 
HETATM   18  C           1     -21.559  -8.724  -4.009  0.00  0.00     0.037 A 
HETATM   19  C           1     -21.696  -8.474  -2.644  0.00  0.00     0.065 A 
HETATM   20  C           1     -21.542  -7.178  -2.152  0.00  0.00     0.037 A 
HETATM   21  C           1     -21.250  -6.132  -3.026  0.00  0.00     0.010 A 
BRANCH  19  22
HETATM   22  O           1     -21.980  -9.491  -1.794  0.00  0.00    -0.361 OA
HETATM   23  H           1     -22.266  -9.106  -0.949  0.00  0.00     0.217 HD
ENDBRANCH  19  22
ENDBRANCH  15  16
ENDBRANCH   1  15
TORSDOF 7
ENDMDL
MODEL 7
REMARK VINA RESULT:      -6.6      5.590      7.034
REMARK  7 active torsions:
REMARK  status: ('A' for Active; 'I' for Inactive)
REMARK    1  A    between atoms: C_2  and  C_5 
REMARK    2  A    between atoms: C_2  and  N_17 
REMARK    3  A    between atoms: N_4  and  C_11 
REMARK    4  A    between atoms: C_6  and  O_7 
REMARK    5  A    between atoms: C_11  and  C_23 
REMARK    6  A    between atoms: C_11  and  C_16 
REMARK    7  A    between atoms: C_14  and  C_16 
REMARK       I    between atoms: N_17  and  C_23 
ROOT
HETATM    1  C           1     -33.027  -4.495 -16.683  0.00  0.00     0.278 C 
ENDROOT
BRANCH   1   2
HETATM    2  N           1     -33.195  -3.185 -17.394  0.00  0.00    -0.066 N 
HETATM    3  H           1     -33.913  -3.286 -18.146  0.00  0.00     0.275 HD
HETATM    4  H           1     -33.506  -2.456 -16.712  0.00  0.00     0.275 HD
HETATM    5  H           1     -32.284  -2.900 -17.819  0.00  0.00     0.275 HD
ENDBRANCH   1   2
BRANCH   1   6
HETATM    6  C           1     -33.864  -4.494 -15.426  0.00  0.00     0.249 C 
HETATM    7  O           1     -34.997  -4.914 -15.455  0.00  0.00    -0.271 OA
HETATM    8  N           1     -33.341  -4.018 -14.255  0.00  0.00    -0.345 N 
HETATM    9  H           1     -32.392  -3.666 -14.231  0.00  0.00     0.163 HD
BRANCH   8  10
HETATM   10  C           1     -34.145  -4.017 -13.048  0.00  0.00     0.181 C 
HETATM   11  C           1     -33.309  -4.519 -11.879  0.00  0.00     0.043 C 
BRANCH  10  12
HETATM   12  C           1     -34.617  -2.612 -12.762  0.00  0.00     0.196 C 
HETATM   13  O           1     -34.590  -2.169 -11.593  0.00  0.00    -0.646 OA
HETATM   14  O           1     -35.034  -1.891 -13.693  0.00  0.00    -0.646 OA
ENDBRANCH  10  12
ENDBRANCH   8  10
ENDBRANCH   1   6
BRANCH   1  15
HETATM   15  C           1     -31.562  -4.690 -16.318  0.00  0.00     0.081 C 
BRANCH  15  16
HETATM   16  C           1     -30.988  -5.807 -17.132  0.00  0.00    -0.056 A 
HETATM   17  C           1     -31.836  -6.737 -17.735  0.00  0.00     0.010 A 
HETATM   18  C           1     -31.302  -7.778 -18.494  0.00  0.00     0.037 A 
HETATM   19  C           1     -29.921  -7.890 -18.649  0.00  0.00     0.065 A 
HETATM   20  C           1     -29.073  -6.960 -18.047  0.00  0.00     0.037 A 
HETATM   21  C           1     -29.607  -5.919 -17.288  0.00  0.00     0.010 A 
BRANCH  19  22
HETATM   22  O           1     -29.401  -8.902 -19.387  0.00  0.00    -0.361 OA
HETATM   23  H           1     -28.485  -9.046 -19.095  0.00  0.00     0.217 HD
ENDBRANCH  19  22
ENDBRANCH  15  16
ENDBRANCH   1  15
TORSDOF 7
ENDMDL
MODEL 8
REMARK VINA RESULT:      -6.4     14.622     17.083
REMARK  7 active torsions:
REMARK  status: ('A' for Active; 'I' for Inactive)
REMARK    1  A    between atoms: C_2  and  C_5 
REMARK    2  A    between atoms: C_2  and  N_17 
REMARK    3  A    between atoms: N_4  and  C_11 
REMARK    4  A    between atoms: C_6  and  O_7 
REMARK    5  A    between atoms: C_11  and  C_23 
REMARK    6  A    between atoms: C_11  and  C_16 
REMARK    7  A    between atoms: C_14  and  C_16 
REMARK       I    between atoms: N_17  and  C_23 
ROOT
HETATM    1  C           1     -21.368  -7.686  -4.950  0.00  0.00     0.278 C 
ENDROOT
BRANCH   1   2
HETATM    2  N           1     -21.128  -8.774  -5.955  0.00  0.00    -0.066 N 
HETATM    3  H           1     -20.967  -8.349  -6.896  0.00  0.00     0.275 HD
HETATM    4  H           1     -20.287  -9.327  -5.674  0.00  0.00     0.275 HD
HETATM    5  H           1     -21.963  -9.401  -5.994  0.00  0.00     0.275 HD
ENDBRANCH   1   2
BRANCH   1   6
HETATM    6  C           1     -21.082  -6.346  -5.585  0.00  0.00     0.249 C 
HETATM    7  O           1     -20.748  -5.411  -4.896  0.00  0.00    -0.271 OA
HETATM    8  N           1     -21.203  -6.189  -6.939  0.00  0.00    -0.345 N 
HETATM    9  H           1     -21.484  -6.973  -7.515  0.00  0.00     0.163 HD
BRANCH   8  10
HETATM   10  C           1     -20.929  -4.902  -7.547  0.00  0.00     0.181 C 
HETATM   11  C           1     -20.061  -5.098  -8.783  0.00  0.00     0.043 C 
BRANCH  10  12
HETATM   12  C           1     -22.230  -4.249  -7.946  0.00  0.00     0.196 C 
HETATM   13  O           1     -23.251  -4.407  -7.243  0.00  0.00    -0.646 OA
HETATM   14  O           1     -22.287  -3.550  -8.981  0.00  0.00    -0.646 OA
ENDBRANCH  10  12
ENDBRANCH   8  10
ENDBRANCH   1   6
BRANCH   1  15
HETATM   15  C           1     -20.449  -7.888  -3.754  0.00  0.00     0.081 C 
BRANCH  15  16
HETATM   16  C           1     -21.264  -7.941  -2.500  0.00  0.00    -0.056 A 
HETATM   17  C           1     -21.719  -6.759  -1.914  0.00  0.00     0.010 A 
HETATM   18  C           1     -22.479  -6.807  -0.746  0.00  0.00     0.037 A 
HETATM   19  C           1     -22.785  -8.038  -0.163  0.00  0.00     0.065 A 
HETATM   20  C           1     -22.331  -9.219  -0.749  0.00  0.00     0.037 A 
HETATM   21  C           1     -21.571  -9.171  -1.917  0.00  0.00     0.010 A 
BRANCH  19  22
HETATM   22  O           1     -23.524  -8.085   0.972  0.00  0.00    -0.361 OA
HETATM   23  H           1     -23.200  -8.828   1.510  0.00  0.00     0.217 HD
ENDBRANCH  19  22
ENDBRANCH  15  16
ENDBRANCH   1  15
TORSDOF 7
ENDMDL
MODEL 9
REMARK VINA RESULT:      -6.1     14.224     17.755
REMARK  7 active torsions:
REMARK  status: ('A' for Active; 'I' for Inactive)
REMARK    1  A    between atoms: C_2  and  C_5 
REMARK    2  A    between atoms: C_2  and  N_17 
REMARK    3  A    between atoms: N_4  and  C_11 
REMARK    4  A    between atoms: C_6  and  O_7 
REMARK    5  A    between atoms: C_11  and  C_23 
REMARK    6  A    between atoms: C_11  and  C_16 
REMARK    7  A    between atoms: C_14  and  C_16 
REMARK       I    between atoms: N_17  and  C_23 
ROOT
HETATM    1  C           1     -21.160  -6.059  -5.491  0.00  0.00     0.278 C 
ENDROOT
BRANCH   1   2
HETATM    2  N           1     -21.612  -5.901  -4.069  0.00  0.00    -0.066 N 
HETATM    3  H           1     -21.329  -4.960  -3.716  0.00  0.00     0.275 HD
HETATM    4  H           1     -22.653  -5.991  -4.024  0.00  0.00     0.275 HD
HETATM    5  H           1     -21.170  -6.642  -3.479  0.00  0.00     0.275 HD
ENDBRANCH   1   2
BRANCH   1   6
HETATM    6  C           1     -20.173  -7.199  -5.579  0.00  0.00     0.249 C 
HETATM    7  O           1     -19.459  -7.305  -6.548  0.00  0.00    -0.271 OA
HETATM    8  N           1     -20.087  -8.111  -4.563  0.00  0.00    -0.345 N 
HETATM    9  H           1     -20.686  -8.022  -3.751  0.00  0.00     0.163 HD
BRANCH   8  10
HETATM   10  C           1     -19.140  -9.205  -4.648  0.00  0.00     0.181 C 
HETATM   11  C           1     -18.423  -9.362  -3.314  0.00  0.00     0.043 C 
BRANCH  10  12
HETATM   12  C           1     -19.876 -10.481  -4.976  0.00  0.00     0.196 C 
HETATM   13  O           1     -20.421 -10.621  -6.092  0.00  0.00    -0.646 OA
HETATM   14  O           1     -19.941 -11.400  -4.131  0.00  0.00    -0.646 OA
ENDBRANCH  10  12
ENDBRANCH   8  10
ENDBRANCH   1   6
BRANCH   1  15
HETATM   15  C           1     -20.494  -4.772  -5.957  0.00  0.00     0.081 C 
BRANCH  15  16
HETATM   16  C           1     -20.961  -4.439  -7.339  0.00  0.00    -0.056 A 
HETATM   17  C           1     -22.304  -4.132  -7.566  0.00  0.00     0.010 A 
HETATM   18  C           1     -22.740  -3.821  -8.853  0.00  0.00     0.037 A 
HETATM   19  C           1     -21.834  -3.817  -9.914  0.00  0.00     0.065 A 
HETATM   20  C           1     -20.493  -4.123  -9.688  0.00  0.00     0.037 A 
HETATM   21  C           1     -20.056  -4.434  -8.401  0.00  0.00     0.010 A 
BRANCH  19  22
HETATM   22  O           1     -22.258  -3.514 -11.166  0.00  0.00    -0.361 OA
HETATM   23  H           1     -22.092  -2.569 -11.319  0.00  0.00     0.217 HD
ENDBRANCH  19  22
ENDBRANCH  15  16
ENDBRANCH   1  15
TORSDOF 7
ENDMDL
