MODEL 1
REMARK VINA RESULT:      -7.0      0.000      0.000
REMARK  6 active torsions:
REMARK  status: ('A' for Active; 'I' for Inactive)
REMARK    1  A    between atoms: C_2  and  C_3 
REMARK    2  A    between atoms: C_3  and  C_14 
REMARK    3  A    between atoms: C_3  and  N_13 
REMARK       I    between atoms: N_8  and  C_10 
REMARK    4  A    between atoms: C_10  and  C_17 
REMARK       I    between atoms: N_13  and  C_20 
REMARK    5  A    between atoms: C_14  and  C_17 
REMARK    6  A    between atoms: C_20  and  C_21 
ROOT
HETATM    1  C           1     -22.716  -3.718 -10.059  0.00  0.00     0.186 C 
ENDROOT
BRANCH   1   2
HETATM    2  C           1     -24.217  -3.867  -9.995  0.00  0.00     0.196 C 
HETATM    3  O           1     -24.932  -2.874  -9.740  0.00  0.00    -0.646 OA
HETATM    4  O           1     -24.744  -4.981 -10.198  0.00  0.00    -0.646 OA
ENDBRANCH   1   2
BRANCH   1   5
HETATM    5  C           1     -22.259  -3.808 -11.509  0.00  0.00     0.045 C 
BRANCH   5   6
HETATM    6  C           1     -22.618  -2.518 -12.235  0.00  0.00     0.105 C 
BRANCH   6   7
HETATM    7  C           1     -23.318  -2.847 -13.530  0.00  0.00     0.215 C 
HETATM    8  N           1     -22.601  -2.928 -14.694  0.00  0.00    -0.370 N 
HETATM    9  H           1     -23.070  -3.149 -15.563  0.00  0.00     0.159 HD
HETATM   10  H           1     -21.602  -2.767 -14.684  0.00  0.00     0.159 HD
HETATM   11  O           1     -24.511  -3.039 -13.541  0.00  0.00    -0.274 OA
ENDBRANCH   6   7
ENDBRANCH   5   6
ENDBRANCH   1   5
BRANCH   1  12
HETATM   12  N           1     -22.094  -4.778  -9.288  0.00  0.00    -0.345 N 
HETATM   13  H           1     -21.749  -5.607  -9.754  0.00  0.00     0.163 HD
HETATM   14  C           1     -21.973  -4.655  -7.930  0.00  0.00     0.251 C 
HETATM   15  O           1     -22.385  -3.666  -7.373  0.00  0.00    -0.271 OA
BRANCH  14  16
HETATM   16  C           1     -21.326  -5.757  -7.128  0.00  0.00     0.311 C 
HETATM   17  N           1     -19.950  -5.978  -7.564  0.00  0.00     0.097 N 
HETATM   18  C           1     -19.181  -4.901  -6.946  0.00  0.00     0.271 C 
HETATM   19  H           1     -19.604  -6.878  -7.230  0.00  0.00     0.317 HD
HETATM   20  C           1     -19.774  -4.786  -5.552  0.00  0.00     0.033 C 
HETATM   21  C           1     -21.183  -5.354  -5.671  0.00  0.00     0.047 C 
ENDBRANCH  14  16
ENDBRANCH   1  12
TORSDOF 6
ENDMDL
MODEL 2
REMARK VINA RESULT:      -6.1      1.724      1.995
REMARK  6 active torsions:
REMARK  status: ('A' for Active; 'I' for Inactive)
REMARK    1  A    between atoms: C_2  and  C_3 
REMARK    2  A    between atoms: C_3  and  C_14 
REMARK    3  A    between atoms: C_3  and  N_13 
REMARK       I    between atoms: N_8  and  C_10 
REMARK    4  A    between atoms: C_10  and  C_17 
REMARK       I    between atoms: N_13  and  C_20 
REMARK    5  A    between atoms: C_14  and  C_17 
REMARK    6  A    between atoms: C_20  and  C_21 
ROOT
HETATM    1  C           1     -23.112  -3.760  -9.424  0.00  0.00     0.186 C 
ENDROOT
BRANCH   1   2
HETATM    2  C           1     -24.615  -3.748  -9.566  0.00  0.00     0.196 C 
HETATM    3  O           1     -25.235  -2.663  -9.558  0.00  0.00    -0.646 OA
HETATM    4  O           1     -25.239  -4.824  -9.692  0.00  0.00    -0.646 OA
ENDBRANCH   1   2
BRANCH   1   5
HETATM    5  C           1     -22.526  -4.839 -10.325  0.00  0.00     0.045 C 
BRANCH   5   6
HETATM    6  C           1     -22.485  -4.333 -11.761  0.00  0.00     0.105 C 
BRANCH   6   7
HETATM    7  C           1     -21.789  -2.995 -11.804  0.00  0.00     0.215 C 
HETATM    8  N           1     -20.457  -2.906 -11.497  0.00  0.00    -0.370 N 
HETATM    9  H           1     -19.990  -2.009 -11.526  0.00  0.00     0.159 HD
HETATM   10  H           1     -19.941  -3.738 -11.241  0.00  0.00     0.159 HD
HETATM   11  O           1     -22.405  -2.002 -12.111  0.00  0.00    -0.274 OA
ENDBRANCH   6   7
ENDBRANCH   5   6
ENDBRANCH   1   5
BRANCH   1  12
HETATM   12  N           1     -22.761  -4.036  -8.045  0.00  0.00    -0.345 N 
HETATM   13  H           1     -23.486  -4.221  -7.365  0.00  0.00     0.163 HD
HETATM   14  C           1     -21.445  -4.049  -7.663  0.00  0.00     0.251 C 
HETATM   15  O           1     -20.579  -3.828  -8.475  0.00  0.00    -0.271 OA
BRANCH  14  16
HETATM   16  C           1     -21.079  -4.337  -6.228  0.00  0.00     0.311 C 
HETATM   17  N           1     -21.912  -5.405  -5.684  0.00  0.00     0.097 N 
HETATM   18  C           1     -21.337  -6.639  -6.213  0.00  0.00     0.271 C 
HETATM   19  H           1     -21.865  -5.418  -4.665  0.00  0.00     0.317 HD
HETATM   20  C           1     -19.838  -6.407  -6.126  0.00  0.00     0.033 C 
HETATM   21  C           1     -19.670  -4.892  -6.130  0.00  0.00     0.047 C 
ENDBRANCH  14  16
ENDBRANCH   1  12
TORSDOF 6
ENDMDL
MODEL 3
REMARK VINA RESULT:      -5.9      2.043      2.420
REMARK  6 active torsions:
REMARK  status: ('A' for Active; 'I' for Inactive)
REMARK    1  A    between atoms: C_2  and  C_3 
REMARK    2  A    between atoms: C_3  and  C_14 
REMARK    3  A    between atoms: C_3  and  N_13 
REMARK       I    between atoms: N_8  and  C_10 
REMARK    4  A    between atoms: C_10  and  C_17 
REMARK       I    between atoms: N_13  and  C_20 
REMARK    5  A    between atoms: C_14  and  C_17 
REMARK    6  A    between atoms: C_20  and  C_21 
ROOT
HETATM    1  C           1     -22.092  -4.452 -10.324  0.00  0.00     0.186 C 
ENDROOT
BRANCH   1   2
HETATM    2  C           1     -21.103  -3.630 -11.114  0.00  0.00     0.196 C 
HETATM    3  O           1     -21.381  -2.455 -11.433  0.00  0.00    -0.646 OA
HETATM    4  O           1     -20.006  -4.126 -11.450  0.00  0.00    -0.646 OA
ENDBRANCH   1   2
BRANCH   1   5
HETATM    5  C           1     -23.501  -4.173 -10.829  0.00  0.00     0.045 C 
BRANCH   5   6
HETATM    6  C           1     -23.647  -4.709 -12.247  0.00  0.00     0.105 C 
BRANCH   6   7
HETATM    7  C           1     -23.968  -3.572 -13.185  0.00  0.00     0.215 C 
HETATM    8  N           1     -23.070  -3.211 -14.155  0.00  0.00    -0.370 N 
HETATM    9  H           1     -23.285  -2.449 -14.785  0.00  0.00     0.159 HD
HETATM   10  H           1     -22.192  -3.707 -14.240  0.00  0.00     0.159 HD
HETATM   11  O           1     -25.016  -2.981 -13.084  0.00  0.00    -0.274 OA
ENDBRANCH   6   7
ENDBRANCH   5   6
ENDBRANCH   1   5
BRANCH   1  12
HETATM   12  N           1     -22.000  -4.098  -8.921  0.00  0.00    -0.345 N 
HETATM   13  H           1     -22.644  -3.424  -8.525  0.00  0.00     0.163 HD
HETATM   14  C           1     -21.043  -4.676  -8.129  0.00  0.00     0.251 C 
HETATM   15  O           1     -20.275  -5.480  -8.601  0.00  0.00    -0.271 OA
BRANCH  14  16
HETATM   16  C           1     -20.948  -4.307  -6.669  0.00  0.00     0.311 C 
HETATM   17  N           1     -22.108  -4.801  -5.932  0.00  0.00     0.097 N 
HETATM   18  C           1     -21.844  -6.223  -5.723  0.00  0.00     0.271 C 
HETATM   19  H           1     -22.189  -4.334  -5.029  0.00  0.00     0.317 HD
HETATM   20  C           1     -20.362  -6.272  -5.391  0.00  0.00     0.033 C 
HETATM   21  C           1     -19.775  -5.009  -6.010  0.00  0.00     0.047 C 
ENDBRANCH  14  16
ENDBRANCH   1  12
TORSDOF 6
ENDMDL
MODEL 4
REMARK VINA RESULT:      -5.8      2.466      3.703
REMARK  6 active torsions:
REMARK  status: ('A' for Active; 'I' for Inactive)
REMARK    1  A    between atoms: C_2  and  C_3 
REMARK    2  A    between atoms: C_3  and  C_14 
REMARK    3  A    between atoms: C_3  and  N_13 
REMARK       I    between atoms: N_8  and  C_10 
REMARK    4  A    between atoms: C_10  and  C_17 
REMARK       I    between atoms: N_13  and  C_20 
REMARK    5  A    between atoms: C_14  and  C_17 
REMARK    6  A    between atoms: C_20  and  C_21 
ROOT
HETATM    1  C           1     -21.645  -4.724  -8.486  0.00  0.00     0.186 C 
ENDROOT
BRANCH   1   2
HETATM    2  C           1     -20.315  -4.281  -9.044  0.00  0.00     0.196 C 
HETATM    3  O           1     -19.890  -4.773 -10.111  0.00  0.00    -0.646 OA
HETATM    4  O           1     -19.638  -3.422  -8.438  0.00  0.00    -0.646 OA
ENDBRANCH   1   2
BRANCH   1   5
HETATM    5  C           1     -22.709  -3.691  -8.833  0.00  0.00     0.045 C 
BRANCH   5   6
HETATM    6  C           1     -23.037  -3.779 -10.318  0.00  0.00     0.105 C 
BRANCH   6   7
HETATM    7  C           1     -24.497  -3.461 -10.531  0.00  0.00     0.215 C 
HETATM    8  N           1     -25.382  -3.578  -9.493  0.00  0.00    -0.370 N 
HETATM    9  H           1     -26.360  -3.365  -9.635  0.00  0.00     0.159 HD
HETATM   10  H           1     -25.056  -3.879  -8.583  0.00  0.00     0.159 HD
HETATM   11  O           1     -24.885  -3.101 -11.617  0.00  0.00    -0.274 OA
ENDBRANCH   6   7
ENDBRANCH   5   6
ENDBRANCH   1   5
BRANCH   1  12
HETATM   12  N           1     -21.545  -4.852  -7.045  0.00  0.00    -0.345 N 
HETATM   13  H           1     -22.005  -4.181  -6.444  0.00  0.00     0.163 HD
HETATM   14  C           1     -20.829  -5.884  -6.498  0.00  0.00     0.251 C 
HETATM   15  O           1     -20.281  -6.685  -7.215  0.00  0.00    -0.271 OA
BRANCH  14  16
HETATM   16  C           1     -20.725  -6.017  -4.998  0.00  0.00     0.311 C 
HETATM   17  N           1     -22.043  -5.924  -4.376  0.00  0.00     0.097 N 
HETATM   18  C           1     -22.651  -7.236  -4.580  0.00  0.00     0.271 C 
HETATM   19  H           1     -21.958  -5.740  -3.376  0.00  0.00     0.317 HD
HETATM   20  C           1     -21.506  -8.207  -4.341  0.00  0.00     0.033 C 
HETATM   21  C           1     -20.240  -7.403  -4.611  0.00  0.00     0.047 C 
ENDBRANCH  14  16
ENDBRANCH   1  12
TORSDOF 6
ENDMDL
MODEL 5
REMARK VINA RESULT:      -5.6      6.637      9.396
REMARK  6 active torsions:
REMARK  status: ('A' for Active; 'I' for Inactive)
REMARK    1  A    between atoms: C_2  and  C_3 
REMARK    2  A    between atoms: C_3  and  C_14 
REMARK    3  A    between atoms: C_3  and  N_13 
REMARK       I    between atoms: N_8  and  C_10 
REMARK    4  A    between atoms: C_10  and  C_17 
REMARK       I    between atoms: N_13  and  C_20 
REMARK    5  A    between atoms: C_14  and  C_17 
REMARK    6  A    between atoms: C_20  and  C_21 
ROOT
HETATM    1  C           1     -21.192  -7.880  -1.707  0.00  0.00     0.186 C 
ENDROOT
BRANCH   1   2
HETATM    2  C           1     -22.304  -6.957  -1.273  0.00  0.00     0.196 C 
HETATM    3  O           1     -22.546  -5.920  -1.927  0.00  0.00    -0.646 OA
HETATM    4  O           1     -22.983  -7.229  -0.260  0.00  0.00    -0.646 OA
ENDBRANCH   1   2
BRANCH   1   5
HETATM    5  C           1     -20.593  -7.373  -3.012  0.00  0.00     0.045 C 
BRANCH   5   6
HETATM    6  C           1     -21.147  -8.187  -4.174  0.00  0.00     0.105 C 
BRANCH   6   7
HETATM    7  C           1     -21.646  -7.254  -5.250  0.00  0.00     0.215 C 
HETATM    8  N           1     -22.580  -6.300  -4.949  0.00  0.00    -0.370 N 
HETATM    9  H           1     -22.915  -5.674  -5.670  0.00  0.00     0.159 HD
HETATM   10  H           1     -22.935  -6.220  -4.005  0.00  0.00     0.159 HD
HETATM   11  O           1     -21.221  -7.349  -6.377  0.00  0.00    -0.274 OA
ENDBRANCH   6   7
ENDBRANCH   5   6
ENDBRANCH   1   5
BRANCH   1  12
HETATM   12  N           1     -21.723  -9.215  -1.903  0.00  0.00    -0.345 N 
HETATM   13  H           1     -22.416  -9.384  -2.620  0.00  0.00     0.163 HD
HETATM   14  C           1     -21.285 -10.248  -1.118  0.00  0.00     0.251 C 
HETATM   15  O           1     -20.457 -10.047  -0.262  0.00  0.00    -0.271 OA
BRANCH  14  16
HETATM   16  C           1     -21.837 -11.638  -1.322  0.00  0.00     0.311 C 
HETATM   17  N           1     -22.232 -12.232  -0.048  0.00  0.00     0.097 N 
HETATM   18  C           1     -23.523 -11.625   0.267  0.00  0.00     0.271 C 
HETATM   19  H           1     -22.344 -13.241  -0.139  0.00  0.00     0.317 HD
HETATM   20  C           1     -24.239 -11.581  -1.072  0.00  0.00     0.033 C 
HETATM   21  C           1     -23.129 -11.594  -2.117  0.00  0.00     0.047 C 
ENDBRANCH  14  16
ENDBRANCH   1  12
TORSDOF 6
ENDMDL
MODEL 6
REMARK VINA RESULT:      -5.6      4.125      7.778
REMARK  6 active torsions:
REMARK  status: ('A' for Active; 'I' for Inactive)
REMARK    1  A    between atoms: C_2  and  C_3 
REMARK    2  A    between atoms: C_3  and  C_14 
REMARK    3  A    between atoms: C_3  and  N_13 
REMARK       I    between atoms: N_8  and  C_10 
REMARK    4  A    between atoms: C_10  and  C_17 
REMARK       I    between atoms: N_13  and  C_20 
REMARK    5  A    between atoms: C_14  and  C_17 
REMARK    6  A    between atoms: C_20  and  C_21 
ROOT
HETATM    1  C           1     -21.658  -7.179  -4.117  0.00  0.00     0.186 C 
ENDROOT
BRANCH   1   2
HETATM    2  C           1     -21.675  -6.888  -2.636  0.00  0.00     0.196 C 
HETATM    3  O           1     -20.956  -7.554  -1.860  0.00  0.00    -0.646 OA
HETATM    4  O           1     -22.409  -5.983  -2.186  0.00  0.00    -0.646 OA
ENDBRANCH   1   2
BRANCH   1   5
HETATM    5  C           1     -21.051  -8.556  -4.355  0.00  0.00     0.045 C 
BRANCH   5   6
HETATM    6  C           1     -19.685  -8.402  -5.010  0.00  0.00     0.105 C 
BRANCH   6   7
HETATM    7  C           1     -18.677  -9.257  -4.283  0.00  0.00     0.215 C 
HETATM    8  N           1     -18.566  -9.174  -2.920  0.00  0.00    -0.370 N 
HETATM    9  H           1     -17.891  -9.748  -2.432  0.00  0.00     0.159 HD
HETATM   10  H           1     -19.159  -8.538  -2.402  0.00  0.00     0.159 HD
HETATM   11  O           1     -17.970 -10.017  -4.901  0.00  0.00    -0.274 OA
ENDBRANCH   6   7
ENDBRANCH   5   6
ENDBRANCH   1   5
BRANCH   1  12
HETATM   12  N           1     -20.863  -6.175  -4.796  0.00  0.00    -0.345 N 
HETATM   13  H           1     -19.869  -6.108  -4.617  0.00  0.00     0.163 HD
HETATM   14  C           1     -21.457  -5.315  -5.682  0.00  0.00     0.251 C 
HETATM   15  O           1     -22.643  -5.394  -5.896  0.00  0.00    -0.271 OA
BRANCH  14  16
HETATM   16  C           1     -20.630  -4.270  -6.389  0.00  0.00     0.311 C 
HETATM   17  N           1     -19.501  -4.883  -7.083  0.00  0.00     0.097 N 
HETATM   18  C           1     -20.071  -5.445  -8.306  0.00  0.00     0.271 C 
HETATM   19  H           1     -18.802  -4.181  -7.325  0.00  0.00     0.317 HD
HETATM   20  C           1     -21.063  -4.388  -8.763  0.00  0.00     0.033 C 
HETATM   21  C           1     -21.426  -3.613  -7.502  0.00  0.00     0.047 C 
ENDBRANCH  14  16
ENDBRANCH   1  12
TORSDOF 6
ENDMDL
MODEL 7
REMARK VINA RESULT:      -5.5      7.097      8.829
REMARK  6 active torsions:
REMARK  status: ('A' for Active; 'I' for Inactive)
REMARK    1  A    between atoms: C_2  and  C_3 
REMARK    2  A    between atoms: C_3  and  C_14 
REMARK    3  A    between atoms: C_3  and  N_13 
REMARK       I    between atoms: N_8  and  C_10 
REMARK    4  A    between atoms: C_10  and  C_17 
REMARK       I    between atoms: N_13  and  C_20 
REMARK    5  A    between atoms: C_14  and  C_17 
REMARK    6  A    between atoms: C_20  and  C_21 
ROOT
HETATM    1  C           1     -21.143  -7.764  -3.773  0.00  0.00     0.186 C 
ENDROOT
BRANCH   1   2
HETATM    2  C           1     -21.904  -6.464  -3.865  0.00  0.00     0.196 C 
HETATM    3  O           1     -22.370  -5.939  -2.832  0.00  0.00    -0.646 OA
HETATM    4  O           1     -22.067  -5.912  -4.975  0.00  0.00    -0.646 OA
ENDBRANCH   1   2
BRANCH   1   5
HETATM    5  C           1     -21.305  -8.539  -5.075  0.00  0.00     0.045 C 
BRANCH   5   6
HETATM    6  C           1     -20.412  -9.771  -5.047  0.00  0.00     0.105 C 
BRANCH   6   7
HETATM    7  C           1     -18.968  -9.350  -5.165  0.00  0.00     0.215 C 
HETATM    8  N           1     -18.120  -9.507  -4.101  0.00  0.00    -0.370 N 
HETATM    9  H           1     -17.151  -9.225  -4.180  0.00  0.00     0.159 HD
HETATM   10  H           1     -18.463  -9.904  -3.235  0.00  0.00     0.159 HD
HETATM   11  O           1     -18.558  -8.876  -6.198  0.00  0.00    -0.274 OA
ENDBRANCH   6   7
ENDBRANCH   5   6
ENDBRANCH   1   5
BRANCH   1  12
HETATM   12  N           1     -21.664  -8.551  -2.673  0.00  0.00    -0.345 N 
HETATM   13  H           1     -22.633  -8.841  -2.672  0.00  0.00     0.163 HD
HETATM   14  C           1     -20.844  -8.903  -1.634  0.00  0.00     0.251 C 
HETATM   15  O           1     -19.687  -8.557  -1.635  0.00  0.00    -0.271 OA
BRANCH  14  16
HETATM   16  C           1     -21.386  -9.722  -0.488  0.00  0.00     0.311 C 
HETATM   17  N           1     -21.030  -9.121   0.794  0.00  0.00     0.097 N 
HETATM   18  C           1     -21.971  -8.017   0.968  0.00  0.00     0.271 C 
HETATM   19  H           1     -21.148  -9.792   1.553  0.00  0.00     0.317 HD
HETATM   20  C           1     -23.290  -8.583   0.470  0.00  0.00     0.033 C 
HETATM   21  C           1     -22.904  -9.708  -0.485  0.00  0.00     0.047 C 
ENDBRANCH  14  16
ENDBRANCH   1  12
TORSDOF 6
ENDMDL
MODEL 8
REMARK VINA RESULT:      -5.4      5.288      7.910
REMARK  6 active torsions:
REMARK  status: ('A' for Active; 'I' for Inactive)
REMARK    1  A    between atoms: C_2  and  C_3 
REMARK    2  A    between atoms: C_3  and  C_14 
REMARK    3  A    between atoms: C_3  and  N_13 
REMARK       I    between atoms: N_8  and  C_10 
REMARK    4  A    between atoms: C_10  and  C_17 
REMARK       I    between atoms: N_13  and  C_20 
REMARK    5  A    between atoms: C_14  and  C_17 
REMARK    6  A    between atoms: C_20  and  C_21 
ROOT
HETATM    1  C           1     -21.529  -7.684  -3.891  0.00  0.00     0.186 C 
ENDROOT
BRANCH   1   2
HETATM    2  C           1     -21.498  -8.995  -4.639  0.00  0.00     0.196 C 
HETATM    3  O           1     -21.933 -10.033  -4.098  0.00  0.00    -0.646 OA
HETATM    4  O           1     -21.038  -9.040  -5.800  0.00  0.00    -0.646 OA
ENDBRANCH   1   2
BRANCH   1   5
HETATM    5  C           1     -20.339  -6.832  -4.313  0.00  0.00     0.045 C 
BRANCH   5   6
HETATM    6  C           1     -20.839  -5.521  -4.906  0.00  0.00     0.105 C 
BRANCH   6   7
HETATM    7  C           1     -20.320  -5.376  -6.316  0.00  0.00     0.215 C 
HETATM    8  N           1     -19.921  -6.484  -7.016  0.00  0.00    -0.370 N 
HETATM    9  H           1     -19.574  -6.387  -7.961  0.00  0.00     0.159 HD
HETATM   10  H           1     -19.974  -7.399  -6.587  0.00  0.00     0.159 HD
HETATM   11  O           1     -20.257  -4.284  -6.828  0.00  0.00    -0.274 OA
ENDBRANCH   6   7
ENDBRANCH   5   6
ENDBRANCH   1   5
BRANCH   1  12
HETATM   12  N           1     -21.459  -7.941  -2.466  0.00  0.00    -0.345 N 
HETATM   13  H           1     -20.918  -8.722  -2.118  0.00  0.00     0.163 HD
HETATM   14  C           1     -22.125  -7.126  -1.589  0.00  0.00     0.251 C 
HETATM   15  O           1     -22.772  -6.194  -2.005  0.00  0.00    -0.271 OA
BRANCH  14  16
HETATM   16  C           1     -22.053  -7.394  -0.106  0.00  0.00     0.311 C 
HETATM   17  N           1     -23.337  -7.872   0.398  0.00  0.00     0.097 N 
HETATM   18  C           1     -23.391  -9.281   0.016  0.00  0.00     0.271 C 
HETATM   19  H           1     -23.378  -7.793   1.414  0.00  0.00     0.317 HD
HETATM   20  C           1     -21.978  -9.779   0.267  0.00  0.00     0.033 C 
HETATM   21  C           1     -21.099  -8.537   0.191  0.00  0.00     0.047 C 
ENDBRANCH  14  16
ENDBRANCH   1  12
TORSDOF 6
ENDMDL
MODEL 9
REMARK VINA RESULT:      -5.4      5.433      8.044
REMARK  6 active torsions:
REMARK  status: ('A' for Active; 'I' for Inactive)
REMARK    1  A    between atoms: C_2  and  C_3 
REMARK    2  A    between atoms: C_3  and  C_14 
REMARK    3  A    between atoms: C_3  and  N_13 
REMARK       I    between atoms: N_8  and  C_10 
REMARK    4  A    between atoms: C_10  and  C_17 
REMARK       I    between atoms: N_13  and  C_20 
REMARK    5  A    between atoms: C_14  and  C_17 
REMARK    6  A    between atoms: C_20  and  C_21 
ROOT
HETATM    1  C           1     -20.697  -8.169  -4.105  0.00  0.00     0.186 C 
ENDROOT
BRANCH   1   2
HETATM    2  C           1     -19.399  -8.638  -4.716  0.00  0.00     0.196 C 
HETATM    3  O           1     -19.234  -8.580  -5.954  0.00  0.00    -0.646 OA
HETATM    4  O           1     -18.490  -9.086  -3.985  0.00  0.00    -0.646 OA
ENDBRANCH   1   2
BRANCH   1   5
HETATM    5  C           1     -20.858  -6.674  -4.347  0.00  0.00     0.045 C 
BRANCH   5   6
HETATM    6  C           1     -22.039  -6.435  -5.279  0.00  0.00     0.105 C 
BRANCH   6   7
HETATM    7  C           1     -21.565  -5.722  -6.521  0.00  0.00     0.215 C 
HETATM    8  N           1     -20.532  -6.241  -7.256  0.00  0.00    -0.370 N 
HETATM    9  H           1     -20.214  -5.763  -8.090  0.00  0.00     0.159 HD
HETATM   10  H           1     -20.088  -7.102  -6.965  0.00  0.00     0.159 HD
HETATM   11  O           1     -22.096  -4.694  -6.868  0.00  0.00    -0.274 OA
ENDBRANCH   6   7
ENDBRANCH   5   6
ENDBRANCH   1   5
BRANCH   1  12
HETATM   12  N           1     -20.680  -8.430  -2.679  0.00  0.00    -0.345 N 
HETATM   13  H           1     -20.066  -7.900  -2.074  0.00  0.00     0.163 HD
HETATM   14  C           1     -21.497  -9.394  -2.150  0.00  0.00     0.251 C 
HETATM   15  O           1     -22.230 -10.027  -2.872  0.00  0.00    -0.271 OA
BRANCH  14  16
HETATM   16  C           1     -21.480  -9.666  -0.666  0.00  0.00     0.311 C 
HETATM   17  N           1     -21.093  -8.470   0.077  0.00  0.00     0.097 N 
HETATM   18  C           1     -22.296  -7.641   0.111  0.00  0.00     0.271 C 
HETATM   19  H           1     -20.817  -8.710   1.029  0.00  0.00     0.317 HD
HETATM   20  C           1     -23.416  -8.639   0.351  0.00  0.00     0.033 C 
HETATM   21  C           1     -22.877  -9.971  -0.157  0.00  0.00     0.047 C 
ENDBRANCH  14  16
ENDBRANCH   1  12
TORSDOF 6
ENDMDL
