MODEL 1
REMARK VINA RESULT:      -6.9      0.000      0.000
REMARK  16 active torsions:
REMARK  status: ('A' for Active; 'I' for Inactive)
REMARK    1  A    between atoms: C_5  and  C_19 
REMARK    2  A    between atoms: C_5  and  C_6 
REMARK    3  A    between atoms: C_6  and  C_7 
REMARK    4  A    between atoms: C_7  and  N_8 
REMARK       I    between atoms: N_8  and  C_9 
REMARK       I    between atoms: C_9  and  N_10 
REMARK    5  A    between atoms: N_12  and  C_19 
REMARK    6  A    between atoms: C_13  and  C_20 
REMARK    7  A    between atoms: C_13  and  C_14 
REMARK    8  A    between atoms: C_13  and  N_28 
REMARK    9  A    between atoms: C_19  and  C_29 
REMARK   10  A    between atoms: C_20  and  C_21 
REMARK   11  A    between atoms: C_21  and  S_22 
REMARK   12  A    between atoms: C_24  and  C_25 
REMARK   13  A    between atoms: C_25  and  C_26 
REMARK   14  A    between atoms: C_25  and  N_30 
REMARK   15  A    between atoms: C_26  and  C_27 
REMARK   16  A    between atoms: C_27  and  N_28 
REMARK       I    between atoms: C_29  and  N_30 
ROOT
HETATM    1  O           1     -19.791  -4.828  -6.909  0.00  0.00    -0.271 OA
HETATM    2  H           1     -22.636  -6.106  -6.568  0.00  0.00     0.163 HD
HETATM    3  C           1     -20.935  -5.098  -7.185  0.00  0.00     0.249 C 
HETATM    4  N           1     -21.678  -5.878  -6.338  0.00  0.00    -0.345 N 
ENDROOT
BRANCH   3   5
HETATM    5  C           1     -21.548  -4.579  -8.462  0.00  0.00     0.274 C 
BRANCH   5   6
HETATM    6  C           1     -20.461  -3.966  -9.334  0.00  0.00     0.044 C 
BRANCH   6   7
HETATM    7  C           1     -20.708  -4.336 -10.790  0.00  0.00     0.023 C 
BRANCH   7   8
HETATM    8  C           1     -21.841  -3.484 -11.347  0.00  0.00     0.138 C 
BRANCH   8   9
HETATM    9  N           1     -21.813  -3.531 -12.816  0.00  0.00    -0.227 N 
HETATM   10  C           1     -22.709  -2.938 -13.485  0.00  0.00     0.665 C 
HETATM   11  N           1     -22.686  -2.977 -14.750  0.00  0.00    -0.235 N 
HETATM   12  N           1     -23.654  -2.286 -12.872  0.00  0.00    -0.235 N 
HETATM   13  H           1     -23.429  -2.485 -15.305  0.00  0.00     0.174 HD
HETATM   14  H           1     -21.924  -3.503 -15.244  0.00  0.00     0.174 HD
HETATM   15  H           1     -24.393  -1.797 -13.425  0.00  0.00     0.174 HD
HETATM   16  H           1     -23.673  -2.253 -11.828  0.00  0.00     0.174 HD
HETATM   17  H           1     -21.051  -4.056 -13.310  0.00  0.00     0.177 HD
ENDBRANCH   8   9
ENDBRANCH   7   8
ENDBRANCH   6   7
ENDBRANCH   5   6
BRANCH   5  18
HETATM   18  N           1     -22.573  -3.533  -8.134  0.00  0.00    -0.067 N 
HETATM   19  H           1     -22.755  -2.946  -8.979  0.00  0.00     0.275 HD
HETATM   20  H           1     -23.461  -3.998  -7.837  0.00  0.00     0.275 HD
HETATM   21  H           1     -22.219  -2.929  -7.360  0.00  0.00     0.275 HD
ENDBRANCH   5  18
ENDBRANCH   3   5
BRANCH   4  22
HETATM   22  C           1     -21.088  -6.378  -5.110  0.00  0.00     0.187 C 
BRANCH  22  23
HETATM   23  C           1     -20.702  -7.825  -5.291  0.00  0.00     0.196 C 
HETATM   24  O           1     -19.538  -8.123  -5.635  0.00  0.00    -0.646 OA
HETATM   25  O           1     -21.546  -8.726  -5.099  0.00  0.00    -0.646 OA
ENDBRANCH  22  23
BRANCH  22  26
HETATM   26  C           1     -22.100  -6.260  -3.978  0.00  0.00     0.066 C 
BRANCH  26  27
HETATM   27  C           1     -21.373  -6.298  -2.641  0.00  0.00     0.273 C 
BRANCH  27  28
HETATM   28  N           1     -22.293  -6.685  -1.605  0.00  0.00     0.098 N 
HETATM   29  H           1     -23.243  -6.692  -1.978  0.00  0.00     0.317 HD
BRANCH  28  30
HETATM   30  C           1     -21.937  -8.010  -1.177  0.00  0.00     0.321 C 
BRANCH  30  31
HETATM   31  C           1     -20.456  -8.249  -1.442  0.00  0.00     0.057 C 
BRANCH  31  32
HETATM   32  C           1     -20.263  -9.643  -2.026  0.00  0.00     0.076 C 
BRANCH  32  33
HETATM   33  S           1     -18.546  -9.834  -2.582  0.00  0.00    -0.173 SA
HETATM   34  C           1     -18.201 -11.351  -1.649  0.00  0.00     0.089 C 
ENDBRANCH  32  33
ENDBRANCH  31  32
ENDBRANCH  30  31
BRANCH  30  35
HETATM   35  C           1     -22.212  -8.151   0.300  0.00  0.00     0.207 C 
HETATM   36  O           1     -23.388  -8.112   0.723  0.00  0.00    -0.646 OA
HETATM   37  O           1     -21.265  -8.306   1.101  0.00  0.00    -0.646 OA
ENDBRANCH  30  35
ENDBRANCH  28  30
ENDBRANCH  27  28
ENDBRANCH  26  27
ENDBRANCH  22  26
ENDBRANCH   4  22
TORSDOF 16
ENDMDL
MODEL 2
REMARK VINA RESULT:      -6.8      1.563      1.731
REMARK  16 active torsions:
REMARK  status: ('A' for Active; 'I' for Inactive)
REMARK    1  A    between atoms: C_5  and  C_19 
REMARK    2  A    between atoms: C_5  and  C_6 
REMARK    3  A    between atoms: C_6  and  C_7 
REMARK    4  A    between atoms: C_7  and  N_8 
REMARK       I    between atoms: N_8  and  C_9 
REMARK       I    between atoms: C_9  and  N_10 
REMARK    5  A    between atoms: N_12  and  C_19 
REMARK    6  A    between atoms: C_13  and  C_20 
REMARK    7  A    between atoms: C_13  and  C_14 
REMARK    8  A    between atoms: C_13  and  N_28 
REMARK    9  A    between atoms: C_19  and  C_29 
REMARK   10  A    between atoms: C_20  and  C_21 
REMARK   11  A    between atoms: C_21  and  S_22 
REMARK   12  A    between atoms: C_24  and  C_25 
REMARK   13  A    between atoms: C_25  and  C_26 
REMARK   14  A    between atoms: C_25  and  N_30 
REMARK   15  A    between atoms: C_26  and  C_27 
REMARK   16  A    between atoms: C_27  and  N_28 
REMARK       I    between atoms: C_29  and  N_30 
ROOT
HETATM    1  O           1     -19.913  -4.604  -6.139  0.00  0.00    -0.271 OA
HETATM    2  H           1     -22.137  -6.768  -6.596  0.00  0.00     0.163 HD
HETATM    3  C           1     -20.825  -5.170  -6.693  0.00  0.00     0.249 C 
HETATM    4  N           1     -21.374  -6.293  -6.133  0.00  0.00    -0.345 N 
ENDROOT
BRANCH   3   5
HETATM    5  C           1     -21.360  -4.641  -8.000  0.00  0.00     0.274 C 
BRANCH   5   6
HETATM    6  C           1     -20.206  -4.131  -8.852  0.00  0.00     0.044 C 
BRANCH   6   7
HETATM    7  C           1     -20.416  -4.553 -10.299  0.00  0.00     0.023 C 
BRANCH   7   8
HETATM    8  C           1     -20.611  -3.317 -11.168  0.00  0.00     0.138 C 
BRANCH   8   9
HETATM    9  N           1     -22.033  -2.945 -11.179  0.00  0.00    -0.227 N 
HETATM   10  C           1     -22.689  -2.985 -12.261  0.00  0.00     0.665 C 
HETATM   11  N           1     -23.914  -2.666 -12.270  0.00  0.00    -0.235 N 
HETATM   12  N           1     -22.106  -3.356 -13.362  0.00  0.00    -0.235 N 
HETATM   13  H           1     -24.459  -2.699 -13.167  0.00  0.00     0.174 HD
HETATM   14  H           1     -24.386  -2.366 -11.381  0.00  0.00     0.174 HD
HETATM   15  H           1     -22.647  -3.389 -14.254  0.00  0.00     0.174 HD
HETATM   16  H           1     -21.095  -3.620 -13.353  0.00  0.00     0.174 HD
HETATM   17  H           1     -22.504  -2.647 -10.290  0.00  0.00     0.177 HD
ENDBRANCH   8   9
ENDBRANCH   7   8
ENDBRANCH   6   7
ENDBRANCH   5   6
BRANCH   5  18
HETATM   18  N           1     -22.316  -3.516  -7.730  0.00  0.00    -0.067 N 
HETATM   19  H           1     -22.173  -2.759  -8.437  0.00  0.00     0.275 HD
HETATM   20  H           1     -23.297  -3.871  -7.795  0.00  0.00     0.275 HD
HETATM   21  H           1     -22.144  -3.135  -6.773  0.00  0.00     0.275 HD
ENDBRANCH   5  18
ENDBRANCH   3   5
BRANCH   4  22
HETATM   22  C           1     -20.860  -6.802  -4.876  0.00  0.00     0.187 C 
BRANCH  22  23
HETATM   23  C           1     -20.405  -8.229  -5.060  0.00  0.00     0.196 C 
HETATM   24  O           1     -19.468  -8.681  -4.368  0.00  0.00    -0.646 OA
HETATM   25  O           1     -20.966  -8.959  -5.905  0.00  0.00    -0.646 OA
ENDBRANCH  22  23
BRANCH  22  26
HETATM   26  C           1     -21.957  -6.749  -3.821  0.00  0.00     0.066 C 
BRANCH  26  27
HETATM   27  C           1     -21.354  -6.354  -2.480  0.00  0.00     0.273 C 
BRANCH  27  28
HETATM   28  N           1     -20.812  -7.520  -1.835  0.00  0.00     0.098 N 
HETATM   29  H           1     -20.264  -7.236  -1.023  0.00  0.00     0.317 HD
BRANCH  28  30
HETATM   30  C           1     -21.916  -8.336  -1.408  0.00  0.00     0.321 C 
BRANCH  30  31
HETATM   31  C           1     -21.505  -9.802  -1.438  0.00  0.00     0.057 C 
BRANCH  31  32
HETATM   32  C           1     -22.748 -10.677  -1.545  0.00  0.00     0.076 C 
BRANCH  32  33
HETATM   33  S           1     -22.900 -11.696  -0.051  0.00  0.00    -0.173 SA
HETATM   34  C           1     -21.157 -11.590   0.441  0.00  0.00     0.089 C 
ENDBRANCH  32  33
ENDBRANCH  31  32
ENDBRANCH  30  31
BRANCH  30  35
HETATM   35  C           1     -22.309  -7.953  -0.002  0.00  0.00     0.207 C 
HETATM   36  O           1     -23.449  -7.493   0.224  0.00  0.00    -0.646 OA
HETATM   37  O           1     -21.494  -8.093   0.935  0.00  0.00    -0.646 OA
ENDBRANCH  30  35
ENDBRANCH  28  30
ENDBRANCH  27  28
ENDBRANCH  26  27
ENDBRANCH  22  26
ENDBRANCH   4  22
TORSDOF 16
ENDMDL
MODEL 3
REMARK VINA RESULT:      -6.7      1.562      1.988
REMARK  16 active torsions:
REMARK  status: ('A' for Active; 'I' for Inactive)
REMARK    1  A    between atoms: C_5  and  C_19 
REMARK    2  A    between atoms: C_5  and  C_6 
REMARK    3  A    between atoms: C_6  and  C_7 
REMARK    4  A    between atoms: C_7  and  N_8 
REMARK       I    between atoms: N_8  and  C_9 
REMARK       I    between atoms: C_9  and  N_10 
REMARK    5  A    between atoms: N_12  and  C_19 
REMARK    6  A    between atoms: C_13  and  C_20 
REMARK    7  A    between atoms: C_13  and  C_14 
REMARK    8  A    between atoms: C_13  and  N_28 
REMARK    9  A    between atoms: C_19  and  C_29 
REMARK   10  A    between atoms: C_20  and  C_21 
REMARK   11  A    between atoms: C_21  and  S_22 
REMARK   12  A    between atoms: C_24  and  C_25 
REMARK   13  A    between atoms: C_25  and  C_26 
REMARK   14  A    between atoms: C_25  and  N_30 
REMARK   15  A    between atoms: C_26  and  C_27 
REMARK   16  A    between atoms: C_27  and  N_28 
REMARK       I    between atoms: C_29  and  N_30 
ROOT
HETATM    1  O           1     -21.919  -3.354  -7.600  0.00  0.00    -0.271 OA
HETATM    2  H           1     -22.902  -6.308  -7.214  0.00  0.00     0.163 HD
HETATM    3  C           1     -22.543  -4.363  -7.827  0.00  0.00     0.249 C 
HETATM    4  N           1     -22.382  -5.462  -7.025  0.00  0.00    -0.345 N 
ENDROOT
BRANCH   3   5
HETATM    5  C           1     -23.498  -4.416  -8.993  0.00  0.00     0.274 C 
BRANCH   5   6
HETATM    6  C           1     -22.734  -4.173 -10.288  0.00  0.00     0.044 C 
BRANCH   6   7
HETATM    7  C           1     -23.263  -2.915 -10.963  0.00  0.00     0.023 C 
BRANCH   7   8
HETATM    8  C           1     -24.089  -3.301 -12.183  0.00  0.00     0.138 C 
BRANCH   8   9
HETATM    9  N           1     -23.194  -3.550 -13.322  0.00  0.00    -0.227 N 
HETATM   10  C           1     -23.120  -2.707 -14.264  0.00  0.00     0.665 C 
HETATM   11  N           1     -22.349  -2.921 -15.245  0.00  0.00    -0.235 N 
HETATM   12  N           1     -23.836  -1.622 -14.224  0.00  0.00    -0.235 N 
HETATM   13  H           1     -22.288  -2.222 -16.027  0.00  0.00     0.174 HD
HETATM   14  H           1     -21.772  -3.797 -15.278  0.00  0.00     0.174 HD
HETATM   15  H           1     -23.775  -0.928 -15.002  0.00  0.00     0.174 HD
HETATM   16  H           1     -24.472  -1.446 -13.414  0.00  0.00     0.174 HD
HETATM   17  H           1     -22.616  -4.425 -13.354  0.00  0.00     0.177 HD
ENDBRANCH   8   9
ENDBRANCH   7   8
ENDBRANCH   6   7
ENDBRANCH   5   6
BRANCH   5  18
HETATM   18  N           1     -24.547  -3.356  -8.827  0.00  0.00    -0.067 N 
HETATM   19  H           1     -24.310  -2.756  -8.005  0.00  0.00     0.275 HD
HETATM   20  H           1     -24.585  -2.766  -9.689  0.00  0.00     0.275 HD
HETATM   21  H           1     -25.477  -3.807  -8.671  0.00  0.00     0.275 HD
ENDBRANCH   5  18
ENDBRANCH   3   5
BRANCH   4  22
HETATM   22  C           1     -21.463  -5.412  -5.904  0.00  0.00     0.187 C 
BRANCH  22  23
HETATM   23  C           1     -20.089  -5.838  -6.361  0.00  0.00     0.196 C 
HETATM   24  O           1     -19.824  -7.052  -6.498  0.00  0.00    -0.646 OA
HETATM   25  O           1     -19.216  -4.977  -6.601  0.00  0.00    -0.646 OA
ENDBRANCH  22  23
BRANCH  22  26
HETATM   26  C           1     -21.948  -6.351  -4.808  0.00  0.00     0.066 C 
BRANCH  26  27
HETATM   27  C           1     -21.217  -6.040  -3.510  0.00  0.00     0.273 C 
BRANCH  27  28
HETATM   28  N           1     -22.087  -6.296  -2.395  0.00  0.00     0.098 N 
HETATM   29  H           1     -23.058  -6.276  -2.708  0.00  0.00     0.317 HD
BRANCH  28  30
HETATM   30  C           1     -21.775  -7.605  -1.888  0.00  0.00     0.321 C 
BRANCH  30  31
HETATM   31  C           1     -20.276  -7.850  -2.005  0.00  0.00     0.057 C 
BRANCH  31  32
HETATM   32  C           1     -20.028  -9.296  -2.415  0.00  0.00     0.076 C 
BRANCH  32  33
HETATM   33  S           1     -21.420  -9.890  -3.416  0.00  0.00    -0.173 SA
HETATM   34  C           1     -21.827 -11.314  -2.367  0.00  0.00     0.089 C 
ENDBRANCH  32  33
ENDBRANCH  31  32
ENDBRANCH  30  31
BRANCH  30  35
HETATM   35  C           1     -22.188  -7.696  -0.440  0.00  0.00     0.207 C 
HETATM   36  O           1     -23.276  -7.203  -0.069  0.00  0.00    -0.646 OA
HETATM   37  O           1     -21.443  -8.262   0.389  0.00  0.00    -0.646 OA
ENDBRANCH  30  35
ENDBRANCH  28  30
ENDBRANCH  27  28
ENDBRANCH  26  27
ENDBRANCH  22  26
ENDBRANCH   4  22
TORSDOF 16
ENDMDL
MODEL 4
REMARK VINA RESULT:      -6.5      2.254      2.886
REMARK  16 active torsions:
REMARK  status: ('A' for Active; 'I' for Inactive)
REMARK    1  A    between atoms: C_5  and  C_19 
REMARK    2  A    between atoms: C_5  and  C_6 
REMARK    3  A    between atoms: C_6  and  C_7 
REMARK    4  A    between atoms: C_7  and  N_8 
REMARK       I    between atoms: N_8  and  C_9 
REMARK       I    between atoms: C_9  and  N_10 
REMARK    5  A    between atoms: N_12  and  C_19 
REMARK    6  A    between atoms: C_13  and  C_20 
REMARK    7  A    between atoms: C_13  and  C_14 
REMARK    8  A    between atoms: C_13  and  N_28 
REMARK    9  A    between atoms: C_19  and  C_29 
REMARK   10  A    between atoms: C_20  and  C_21 
REMARK   11  A    between atoms: C_21  and  S_22 
REMARK   12  A    between atoms: C_24  and  C_25 
REMARK   13  A    between atoms: C_25  and  C_26 
REMARK   14  A    between atoms: C_25  and  N_30 
REMARK   15  A    between atoms: C_26  and  C_27 
REMARK   16  A    between atoms: C_27  and  N_28 
REMARK       I    between atoms: C_29  and  N_30 
ROOT
HETATM    1  O           1     -20.801  -5.543  -4.776  0.00  0.00    -0.271 OA
HETATM    2  H           1     -19.584  -7.196  -7.148  0.00  0.00     0.163 HD
HETATM    3  C           1     -20.404  -5.767  -5.895  0.00  0.00     0.249 C 
HETATM    4  N           1     -19.918  -7.008  -6.212  0.00  0.00    -0.345 N 
ENDROOT
BRANCH   3   5
HETATM    5  C           1     -20.441  -4.681  -6.942  0.00  0.00     0.274 C 
BRANCH   5   6
HETATM    6  C           1     -21.316  -5.128  -8.105  0.00  0.00     0.044 C 
BRANCH   6   7
HETATM    7  C           1     -20.876  -4.414  -9.376  0.00  0.00     0.023 C 
BRANCH   7   8
HETATM    8  C           1     -22.032  -4.380 -10.367  0.00  0.00     0.138 C 
BRANCH   8   9
HETATM    9  N           1     -23.299  -4.225  -9.639  0.00  0.00    -0.227 N 
HETATM   10  C           1     -24.289  -3.671 -10.202  0.00  0.00     0.665 C 
HETATM   11  N           1     -25.380  -3.538  -9.575  0.00  0.00    -0.235 N 
HETATM   12  N           1     -24.184  -3.240 -11.424  0.00  0.00    -0.235 N 
HETATM   13  H           1     -26.202  -3.079 -10.042  0.00  0.00     0.174 HD
HETATM   14  H           1     -25.465  -3.886  -8.589  0.00  0.00     0.174 HD
HETATM   15  H           1     -25.000  -2.783 -11.888  0.00  0.00     0.174 HD
HETATM   16  H           1     -23.282  -3.350 -11.941  0.00  0.00     0.174 HD
HETATM   17  H           1     -23.384  -4.573  -8.653  0.00  0.00     0.177 HD
ENDBRANCH   8   9
ENDBRANCH   7   8
ENDBRANCH   6   7
ENDBRANCH   5   6
BRANCH   5  18
HETATM   18  N           1     -19.049  -4.418  -7.437  0.00  0.00    -0.067 N 
HETATM   19  H           1     -18.410  -5.173  -7.100  0.00  0.00     0.275 HD
HETATM   20  H           1     -19.050  -4.402  -8.482  0.00  0.00     0.275 HD
HETATM   21  H           1     -18.719  -3.495  -7.073  0.00  0.00     0.275 HD
ENDBRANCH   5  18
ENDBRANCH   3   5
BRANCH   4  22
HETATM   22  C           1     -19.882  -8.051  -5.206  0.00  0.00     0.187 C 
BRANCH  22  23
HETATM   23  C           1     -18.657  -8.907  -5.414  0.00  0.00     0.196 C 
HETATM   24  O           1     -18.175  -9.043  -6.559  0.00  0.00    -0.646 OA
HETATM   25  O           1     -18.123  -9.482  -4.440  0.00  0.00    -0.646 OA
ENDBRANCH  22  23
BRANCH  22  26
HETATM   26  C           1     -21.131  -8.914  -5.325  0.00  0.00     0.066 C 
BRANCH  26  27
HETATM   27  C           1     -21.810  -9.015  -3.966  0.00  0.00     0.273 C 
BRANCH  27  28
HETATM   28  N           1     -21.202  -8.084  -3.055  0.00  0.00     0.098 N 
HETATM   29  H           1     -21.376  -7.131  -3.375  0.00  0.00     0.317 HD
BRANCH  28  30
HETATM   30  C           1     -21.809  -8.274  -1.765  0.00  0.00     0.321 C 
BRANCH  30  31
HETATM   31  C           1     -20.764  -8.788  -0.783  0.00  0.00     0.057 C 
BRANCH  31  32
HETATM   32  C           1     -21.018 -10.263  -0.496  0.00  0.00     0.076 C 
BRANCH  32  33
HETATM   33  S           1     -22.806 -10.573  -0.455  0.00  0.00    -0.173 SA
HETATM   34  C           1     -22.810 -11.877  -1.717  0.00  0.00     0.089 C 
ENDBRANCH  32  33
ENDBRANCH  31  32
ENDBRANCH  30  31
BRANCH  30  35
HETATM   35  C           1     -22.361  -6.960  -1.271  0.00  0.00     0.207 C 
HETATM   36  O           1     -22.258  -5.934  -1.978  0.00  0.00    -0.646 OA
HETATM   37  O           1     -22.920  -6.897  -0.154  0.00  0.00    -0.646 OA
ENDBRANCH  30  35
ENDBRANCH  28  30
ENDBRANCH  27  28
ENDBRANCH  26  27
ENDBRANCH  22  26
ENDBRANCH   4  22
TORSDOF 16
ENDMDL
MODEL 5
REMARK VINA RESULT:      -6.4      2.506      3.293
REMARK  16 active torsions:
REMARK  status: ('A' for Active; 'I' for Inactive)
REMARK    1  A    between atoms: C_5  and  C_19 
REMARK    2  A    between atoms: C_5  and  C_6 
REMARK    3  A    between atoms: C_6  and  C_7 
REMARK    4  A    between atoms: C_7  and  N_8 
REMARK       I    between atoms: N_8  and  C_9 
REMARK       I    between atoms: C_9  and  N_10 
REMARK    5  A    between atoms: N_12  and  C_19 
REMARK    6  A    between atoms: C_13  and  C_20 
REMARK    7  A    between atoms: C_13  and  C_14 
REMARK    8  A    between atoms: C_13  and  N_28 
REMARK    9  A    between atoms: C_19  and  C_29 
REMARK   10  A    between atoms: C_20  and  C_21 
REMARK   11  A    between atoms: C_21  and  S_22 
REMARK   12  A    between atoms: C_24  and  C_25 
REMARK   13  A    between atoms: C_25  and  C_26 
REMARK   14  A    between atoms: C_25  and  N_30 
REMARK   15  A    between atoms: C_26  and  C_27 
REMARK   16  A    between atoms: C_27  and  N_28 
REMARK       I    between atoms: C_29  and  N_30 
ROOT
HETATM    1  O           1     -22.088  -5.562  -8.024  0.00  0.00    -0.271 OA
HETATM    2  H           1     -19.439  -5.648  -6.346  0.00  0.00     0.163 HD
HETATM    3  C           1     -20.964  -5.268  -7.693  0.00  0.00     0.249 C 
HETATM    4  N           1     -20.380  -5.894  -6.624  0.00  0.00    -0.345 N 
ENDROOT
BRANCH   3   5
HETATM    5  C           1     -20.204  -4.212  -8.457  0.00  0.00     0.274 C 
BRANCH   5   6
HETATM    6  C           1     -20.154  -4.589  -9.931  0.00  0.00     0.044 C 
BRANCH   6   7
HETATM    7  C           1     -20.909  -3.550 -10.748  0.00  0.00     0.023 C 
BRANCH   7   8
HETATM    8  C           1     -22.201  -4.159 -11.277  0.00  0.00     0.138 C 
BRANCH   8   9
HETATM    9  N           1     -23.254  -4.039 -10.259  0.00  0.00    -0.227 N 
HETATM   10  C           1     -24.401  -3.612 -10.582  0.00  0.00     0.665 C 
HETATM   11  N           1     -25.308  -3.509  -9.705  0.00  0.00    -0.235 N 
HETATM   12  N           1     -24.648  -3.280 -11.815  0.00  0.00    -0.235 N 
HETATM   13  H           1     -26.260  -3.155  -9.972  0.00  0.00     0.174 HD
HETATM   14  H           1     -25.109  -3.777  -8.710  0.00  0.00     0.174 HD
HETATM   15  H           1     -25.594  -2.928 -12.081  0.00  0.00     0.174 HD
HETATM   16  H           1     -23.899  -3.365 -12.538  0.00  0.00     0.174 HD
HETATM   17  H           1     -23.054  -4.307  -9.264  0.00  0.00     0.177 HD
ENDBRANCH   8   9
ENDBRANCH   7   8
ENDBRANCH   6   7
ENDBRANCH   5   6
BRANCH   5  18
HETATM   18  N           1     -18.807  -4.116  -7.919  0.00  0.00    -0.067 N 
HETATM   19  H           1     -18.759  -4.586  -6.986  0.00  0.00     0.275 HD
HETATM   20  H           1     -18.147  -4.586  -8.579  0.00  0.00     0.275 HD
HETATM   21  H           1     -18.541  -3.111  -7.816  0.00  0.00     0.275 HD
ENDBRANCH   5  18
ENDBRANCH   3   5
BRANCH   4  22
HETATM   22  C           1     -21.111  -6.909  -5.890  0.00  0.00     0.187 C 
BRANCH  22  23
HETATM   23  C           1     -21.978  -6.247  -4.847  0.00  0.00     0.196 C 
HETATM   24  O           1     -21.456  -5.733  -3.834  0.00  0.00    -0.646 OA
HETATM   25  O           1     -23.218  -6.214  -4.995  0.00  0.00    -0.646 OA
ENDBRANCH  22  23
BRANCH  22  26
HETATM   26  C           1     -20.126  -7.850  -5.210  0.00  0.00     0.066 C 
BRANCH  26  27
HETATM   27  C           1     -20.792  -9.199  -4.973  0.00  0.00     0.273 C 
BRANCH  27  28
HETATM   28  N           1     -20.976  -9.402  -3.562  0.00  0.00     0.098 N 
HETATM   29  H           1     -20.964 -10.402  -3.357  0.00  0.00     0.317 HD
BRANCH  28  30
HETATM   30  C           1     -19.883  -8.761  -2.882  0.00  0.00     0.321 C 
BRANCH  30  31
HETATM   31  C           1     -20.388  -8.131  -1.591  0.00  0.00     0.057 C 
BRANCH  31  32
HETATM   32  C           1     -21.830  -8.560  -1.347  0.00  0.00     0.076 C 
BRANCH  32  33
HETATM   33  S           1     -21.893  -9.700   0.064  0.00  0.00    -0.173 SA
HETATM   34  C           1     -23.524 -10.398  -0.317  0.00  0.00     0.089 C 
ENDBRANCH  32  33
ENDBRANCH  31  32
ENDBRANCH  30  31
BRANCH  30  35
HETATM   35  C           1     -18.822  -9.785  -2.561  0.00  0.00     0.207 C 
HETATM   36  O           1     -19.149 -10.903  -2.108  0.00  0.00    -0.646 OA
HETATM   37  O           1     -17.615  -9.514  -2.746  0.00  0.00    -0.646 OA
ENDBRANCH  30  35
ENDBRANCH  28  30
ENDBRANCH  27  28
ENDBRANCH  26  27
ENDBRANCH  22  26
ENDBRANCH   4  22
TORSDOF 16
ENDMDL
MODEL 6
REMARK VINA RESULT:      -6.3      2.356      4.200
REMARK  16 active torsions:
REMARK  status: ('A' for Active; 'I' for Inactive)
REMARK    1  A    between atoms: C_5  and  C_19 
REMARK    2  A    between atoms: C_5  and  C_6 
REMARK    3  A    between atoms: C_6  and  C_7 
REMARK    4  A    between atoms: C_7  and  N_8 
REMARK       I    between atoms: N_8  and  C_9 
REMARK       I    between atoms: C_9  and  N_10 
REMARK    5  A    between atoms: N_12  and  C_19 
REMARK    6  A    between atoms: C_13  and  C_20 
REMARK    7  A    between atoms: C_13  and  C_14 
REMARK    8  A    between atoms: C_13  and  N_28 
REMARK    9  A    between atoms: C_19  and  C_29 
REMARK   10  A    between atoms: C_20  and  C_21 
REMARK   11  A    between atoms: C_21  and  S_22 
REMARK   12  A    between atoms: C_24  and  C_25 
REMARK   13  A    between atoms: C_25  and  C_26 
REMARK   14  A    between atoms: C_25  and  N_30 
REMARK   15  A    between atoms: C_26  and  C_27 
REMARK   16  A    between atoms: C_27  and  N_28 
REMARK       I    between atoms: C_29  and  N_30 
ROOT
HETATM    1  O           1     -22.742  -6.179  -5.282  0.00  0.00    -0.271 OA
HETATM    2  H           1     -19.937  -6.449  -3.903  0.00  0.00     0.163 HD
HETATM    3  C           1     -21.552  -6.038  -5.132  0.00  0.00     0.249 C 
HETATM    4  N           1     -20.934  -6.568  -4.031  0.00  0.00    -0.345 N 
ENDROOT
BRANCH   3   5
HETATM    5  C           1     -20.746  -5.277  -6.155  0.00  0.00     0.274 C 
BRANCH   5   6
HETATM    6  C           1     -21.556  -4.089  -6.658  0.00  0.00     0.044 C 
BRANCH   6   7
HETATM    7  C           1     -21.713  -4.184  -8.169  0.00  0.00     0.023 C 
BRANCH   7   8
HETATM    8  C           1     -23.189  -4.100  -8.534  0.00  0.00     0.138 C 
BRANCH   8   9
HETATM    9  N           1     -23.324  -3.783  -9.963  0.00  0.00    -0.227 N 
HETATM   10  C           1     -24.466  -3.534 -10.451  0.00  0.00     0.665 C 
HETATM   11  N           1     -24.582  -3.260 -11.681  0.00  0.00    -0.235 N 
HETATM   12  N           1     -25.518  -3.561  -9.688  0.00  0.00    -0.235 N 
HETATM   13  H           1     -25.529  -3.054 -12.086  0.00  0.00     0.174 HD
HETATM   14  H           1     -23.732  -3.239 -12.297  0.00  0.00     0.174 HD
HETATM   15  H           1     -26.460  -3.356 -10.091  0.00  0.00     0.174 HD
HETATM   16  H           1     -25.422  -3.787  -8.673  0.00  0.00     0.174 HD
HETATM   17  H           1     -22.474  -3.761 -10.578  0.00  0.00     0.177 HD
ENDBRANCH   8   9
ENDBRANCH   7   8
ENDBRANCH   6   7
ENDBRANCH   5   6
BRANCH   5  18
HETATM   18  N           1     -20.420  -6.181  -7.307  0.00  0.00    -0.067 N 
HETATM   19  H           1     -20.798  -5.771  -8.191  0.00  0.00     0.275 HD
HETATM   20  H           1     -19.383  -6.282  -7.386  0.00  0.00     0.275 HD
HETATM   21  H           1     -20.851  -7.119  -7.146  0.00  0.00     0.275 HD
ENDBRANCH   5  18
ENDBRANCH   3   5
BRANCH   4  22
HETATM   22  C           1     -21.708  -7.299  -3.047  0.00  0.00     0.187 C 
BRANCH  22  23
HETATM   23  C           1     -22.131  -6.362  -1.942  0.00  0.00     0.196 C 
HETATM   24  O           1     -21.824  -5.152  -1.998  0.00  0.00    -0.646 OA
HETATM   25  O           1     -22.787  -6.796  -0.971  0.00  0.00    -0.646 OA
ENDBRANCH  22  23
BRANCH  22  26
HETATM   26  C           1     -20.859  -8.421  -2.464  0.00  0.00     0.066 C 
BRANCH  26  27
HETATM   27  C           1     -21.081  -9.696  -3.266  0.00  0.00     0.273 C 
BRANCH  27  28
HETATM   28  N           1     -19.828 -10.380  -3.437  0.00  0.00     0.098 N 
HETATM   29  H           1     -19.933 -11.116  -4.136  0.00  0.00     0.317 HD
BRANCH  28  30
HETATM   30  C           1     -18.863  -9.418  -3.896  0.00  0.00     0.321 C 
BRANCH  30  31
HETATM   31  C           1     -17.476  -9.819  -3.411  0.00  0.00     0.057 C 
BRANCH  31  32
HETATM   32  C           1     -17.552 -11.173  -2.718  0.00  0.00     0.076 C 
BRANCH  32  33
HETATM   33  S           1     -16.012 -11.474  -1.806  0.00  0.00    -0.173 SA
HETATM   34  C           1     -14.989 -11.844  -3.260  0.00  0.00     0.089 C 
ENDBRANCH  32  33
ENDBRANCH  31  32
ENDBRANCH  30  31
BRANCH  30  35
HETATM   35  C           1     -18.877  -9.373  -5.404  0.00  0.00     0.207 C 
HETATM   36  O           1     -18.776 -10.432  -6.061  0.00  0.00    -0.646 OA
HETATM   37  O           1     -18.987  -8.278  -5.996  0.00  0.00    -0.646 OA
ENDBRANCH  30  35
ENDBRANCH  28  30
ENDBRANCH  27  28
ENDBRANCH  26  27
ENDBRANCH  22  26
ENDBRANCH   4  22
TORSDOF 16
ENDMDL
MODEL 7
REMARK VINA RESULT:      -6.3      2.457      3.556
REMARK  16 active torsions:
REMARK  status: ('A' for Active; 'I' for Inactive)
REMARK    1  A    between atoms: C_5  and  C_19 
REMARK    2  A    between atoms: C_5  and  C_6 
REMARK    3  A    between atoms: C_6  and  C_7 
REMARK    4  A    between atoms: C_7  and  N_8 
REMARK       I    between atoms: N_8  and  C_9 
REMARK       I    between atoms: C_9  and  N_10 
REMARK    5  A    between atoms: N_12  and  C_19 
REMARK    6  A    between atoms: C_13  and  C_20 
REMARK    7  A    between atoms: C_13  and  C_14 
REMARK    8  A    between atoms: C_13  and  N_28 
REMARK    9  A    between atoms: C_19  and  C_29 
REMARK   10  A    between atoms: C_20  and  C_21 
REMARK   11  A    between atoms: C_21  and  S_22 
REMARK   12  A    between atoms: C_24  and  C_25 
REMARK   13  A    between atoms: C_25  and  C_26 
REMARK   14  A    between atoms: C_25  and  N_30 
REMARK   15  A    between atoms: C_26  and  C_27 
REMARK   16  A    between atoms: C_27  and  N_28 
REMARK       I    between atoms: C_29  and  N_30 
ROOT
HETATM    1  O           1     -19.593  -7.413  -6.335  0.00  0.00    -0.271 OA
HETATM    2  H           1     -21.147  -7.971  -3.668  0.00  0.00     0.163 HD
HETATM    3  C           1     -20.384  -7.225  -5.442  0.00  0.00     0.249 C 
HETATM    4  N           1     -20.485  -8.127  -4.416  0.00  0.00    -0.345 N 
ENDROOT
BRANCH   3   5
HETATM    5  C           1     -21.261  -5.998  -5.456  0.00  0.00     0.274 C 
BRANCH   5   6
HETATM    6  C           1     -20.400  -4.760  -5.668  0.00  0.00     0.044 C 
BRANCH   6   7
HETATM    7  C           1     -20.935  -3.965  -6.851  0.00  0.00     0.023 C 
BRANCH   7   8
HETATM    8  C           1     -21.976  -4.793  -7.593  0.00  0.00     0.138 C 
BRANCH   8   9
HETATM    9  N           1     -22.084  -4.317  -8.979  0.00  0.00    -0.227 N 
HETATM   10  C           1     -23.171  -3.815  -9.392  0.00  0.00     0.665 C 
HETATM   11  N           1     -23.264  -3.403 -10.585  0.00  0.00    -0.235 N 
HETATM   12  N           1     -24.190  -3.721  -8.590  0.00  0.00    -0.235 N 
HETATM   13  H           1     -24.165  -2.987 -10.929  0.00  0.00     0.174 HD
HETATM   14  H           1     -22.442  -3.479 -11.233  0.00  0.00     0.174 HD
HETATM   15  H           1     -25.086  -3.307  -8.931  0.00  0.00     0.174 HD
HETATM   16  H           1     -24.112  -4.060  -7.605  0.00  0.00     0.174 HD
HETATM   17  H           1     -21.261  -4.392  -9.626  0.00  0.00     0.177 HD
ENDBRANCH   8   9
ENDBRANCH   7   8
ENDBRANCH   6   7
ENDBRANCH   5   6
BRANCH   5  18
HETATM   18  N           1     -21.982  -5.885  -4.145  0.00  0.00    -0.067 N 
HETATM   19  H           1     -21.286  -5.846  -3.366  0.00  0.00     0.275 HD
HETATM   20  H           1     -22.559  -5.014  -4.140  0.00  0.00     0.275 HD
HETATM   21  H           1     -22.602  -6.716  -4.016  0.00  0.00     0.275 HD
ENDBRANCH   5  18
ENDBRANCH   3   5
BRANCH   4  22
HETATM   22  C           1     -19.642  -9.307  -4.403  0.00  0.00     0.187 C 
BRANCH  22  23
HETATM   23  C           1     -20.445 -10.504  -4.850  0.00  0.00     0.196 C 
HETATM   24  O           1     -20.518 -10.789  -6.065  0.00  0.00    -0.646 OA
HETATM   25  O           1     -21.039 -11.209  -4.006  0.00  0.00    -0.646 OA
ENDBRANCH  22  23
BRANCH  22  26
HETATM   26  C           1     -19.121  -9.543  -2.992  0.00  0.00     0.066 C 
BRANCH  26  27
HETATM   27  C           1     -19.899  -8.676  -2.012  0.00  0.00     0.273 C 
BRANCH  27  28
HETATM   28  N           1     -20.722  -9.512  -1.180  0.00  0.00     0.098 N 
HETATM   29  H           1     -20.414  -9.436  -0.210  0.00  0.00     0.317 HD
BRANCH  28  30
HETATM   30  C           1     -22.076  -9.043  -1.291  0.00  0.00     0.321 C 
BRANCH  30  31
HETATM   31  C           1     -23.025 -10.093  -0.729  0.00  0.00     0.057 C 
BRANCH  31  32
HETATM   32  C           1     -22.312 -11.437  -0.659  0.00  0.00     0.076 C 
BRANCH  32  33
HETATM   33  S           1     -23.526 -12.776  -0.820  0.00  0.00    -0.173 SA
HETATM   34  C           1     -22.404 -14.121  -0.343  0.00  0.00     0.089 C 
ENDBRANCH  32  33
ENDBRANCH  31  32
ENDBRANCH  30  31
BRANCH  30  35
HETATM   35  C           1     -22.228  -7.759  -0.514  0.00  0.00     0.207 C 
HETATM   36  O           1     -22.607  -6.718  -1.094  0.00  0.00    -0.646 OA
HETATM   37  O           1     -21.974  -7.735   0.710  0.00  0.00    -0.646 OA
ENDBRANCH  30  35
ENDBRANCH  28  30
ENDBRANCH  27  28
ENDBRANCH  26  27
ENDBRANCH  22  26
ENDBRANCH   4  22
TORSDOF 16
ENDMDL
MODEL 8
REMARK VINA RESULT:      -6.2      3.891     10.143
REMARK  16 active torsions:
REMARK  status: ('A' for Active; 'I' for Inactive)
REMARK    1  A    between atoms: C_5  and  C_19 
REMARK    2  A    between atoms: C_5  and  C_6 
REMARK    3  A    between atoms: C_6  and  C_7 
REMARK    4  A    between atoms: C_7  and  N_8 
REMARK       I    between atoms: N_8  and  C_9 
REMARK       I    between atoms: C_9  and  N_10 
REMARK    5  A    between atoms: N_12  and  C_19 
REMARK    6  A    between atoms: C_13  and  C_20 
REMARK    7  A    between atoms: C_13  and  C_14 
REMARK    8  A    between atoms: C_13  and  N_28 
REMARK    9  A    between atoms: C_19  and  C_29 
REMARK   10  A    between atoms: C_20  and  C_21 
REMARK   11  A    between atoms: C_21  and  S_22 
REMARK   12  A    between atoms: C_24  and  C_25 
REMARK   13  A    between atoms: C_25  and  C_26 
REMARK   14  A    between atoms: C_25  and  N_30 
REMARK   15  A    between atoms: C_26  and  C_27 
REMARK   16  A    between atoms: C_27  and  N_28 
REMARK       I    between atoms: C_29  and  N_30 
ROOT
HETATM    1  O           1     -21.924  -7.244  -4.693  0.00  0.00    -0.271 OA
HETATM    2  H           1     -20.367  -4.529  -4.473  0.00  0.00     0.163 HD
HETATM    3  C           1     -21.355  -6.322  -4.160  0.00  0.00     0.249 C 
HETATM    4  N           1     -20.844  -5.302  -4.918  0.00  0.00    -0.345 N 
ENDROOT
BRANCH   3   5
HETATM    5  C           1     -21.207  -6.291  -2.659  0.00  0.00     0.274 C 
BRANCH   5   6
HETATM    6  C           1     -20.730  -7.652  -2.168  0.00  0.00     0.044 C 
BRANCH   6   7
HETATM    7  C           1     -21.789  -8.266  -1.263  0.00  0.00     0.023 C 
BRANCH   7   8
HETATM    8  C           1     -22.093  -9.685  -1.724  0.00  0.00     0.138 C 
BRANCH   8   9
HETATM    9  N           1     -22.591 -10.474  -0.588  0.00  0.00    -0.227 N 
HETATM   10  C           1     -22.049 -11.581  -0.300  0.00  0.00     0.665 C 
HETATM   11  N           1     -22.478 -12.260   0.678  0.00  0.00    -0.235 N 
HETATM   12  N           1     -21.051 -12.020  -1.009  0.00  0.00    -0.235 N 
HETATM   13  H           1     -22.028 -13.179   0.917  0.00  0.00     0.174 HD
HETATM   14  H           1     -23.283 -11.906   1.251  0.00  0.00     0.174 HD
HETATM   15  H           1     -20.604 -12.934  -0.772  0.00  0.00     0.174 HD
HETATM   16  H           1     -20.698 -11.459  -1.817  0.00  0.00     0.174 HD
HETATM   17  H           1     -23.396 -10.119  -0.016  0.00  0.00     0.177 HD
ENDBRANCH   8   9
ENDBRANCH   7   8
ENDBRANCH   6   7
ENDBRANCH   5   6
BRANCH   5  18
HETATM   18  N           1     -22.533  -5.972  -2.032  0.00  0.00    -0.067 N 
HETATM   19  H           1     -22.535  -6.291  -1.037  0.00  0.00     0.275 HD
HETATM   20  H           1     -22.693  -4.940  -2.067  0.00  0.00     0.275 HD
HETATM   21  H           1     -23.292  -6.462  -2.556  0.00  0.00     0.275 HD
ENDBRANCH   5  18
ENDBRANCH   3   5
BRANCH   4  22
HETATM   22  C           1     -20.986  -5.331  -6.361  0.00  0.00     0.187 C 
BRANCH  22  23
HETATM   23  C           1     -19.658  -5.672  -6.990  0.00  0.00     0.196 C 
HETATM   24  O           1     -19.313  -6.867  -7.115  0.00  0.00    -0.646 OA
HETATM   25  O           1     -18.901  -4.760  -7.385  0.00  0.00    -0.646 OA
ENDBRANCH  22  23
BRANCH  22  26
HETATM   26  C           1     -21.446  -3.965  -6.853  0.00  0.00     0.066 C 
BRANCH  26  27
HETATM   27  C           1     -22.735  -4.118  -7.649  0.00  0.00     0.273 C 
BRANCH  27  28
HETATM   28  N           1     -22.430  -4.604  -8.967  0.00  0.00     0.098 N 
HETATM   29  H           1     -22.799  -5.550  -9.076  0.00  0.00     0.317 HD
BRANCH  28  30
HETATM   30  C           1     -23.066  -3.729  -9.914  0.00  0.00     0.321 C 
BRANCH  30  31
HETATM   31  C           1     -22.513  -4.000 -11.307  0.00  0.00     0.057 C 
BRANCH  31  32
HETATM   32  C           1     -22.245  -2.677 -12.013  0.00  0.00     0.076 C 
BRANCH  32  33
HETATM   33  S           1     -23.516  -2.397 -13.278  0.00  0.00    -0.173 SA
HETATM   34  C           1     -24.036  -4.130 -13.424  0.00  0.00     0.089 C 
ENDBRANCH  32  33
ENDBRANCH  31  32
ENDBRANCH  30  31
BRANCH  30  35
HETATM   35  C           1     -24.554  -3.978  -9.906  0.00  0.00     0.207 C 
HETATM   36  O           1     -24.992  -5.143  -9.790  0.00  0.00    -0.646 OA
HETATM   37  O           1     -25.349  -3.020 -10.017  0.00  0.00    -0.646 OA
ENDBRANCH  30  35
ENDBRANCH  28  30
ENDBRANCH  27  28
ENDBRANCH  26  27
ENDBRANCH  22  26
ENDBRANCH   4  22
TORSDOF 16
ENDMDL
MODEL 9
REMARK VINA RESULT:      -6.2      2.535      3.043
REMARK  16 active torsions:
REMARK  status: ('A' for Active; 'I' for Inactive)
REMARK    1  A    between atoms: C_5  and  C_19 
REMARK    2  A    between atoms: C_5  and  C_6 
REMARK    3  A    between atoms: C_6  and  C_7 
REMARK    4  A    between atoms: C_7  and  N_8 
REMARK       I    between atoms: N_8  and  C_9 
REMARK       I    between atoms: C_9  and  N_10 
REMARK    5  A    between atoms: N_12  and  C_19 
REMARK    6  A    between atoms: C_13  and  C_20 
REMARK    7  A    between atoms: C_13  and  C_14 
REMARK    8  A    between atoms: C_13  and  N_28 
REMARK    9  A    between atoms: C_19  and  C_29 
REMARK   10  A    between atoms: C_20  and  C_21 
REMARK   11  A    between atoms: C_21  and  S_22 
REMARK   12  A    between atoms: C_24  and  C_25 
REMARK   13  A    between atoms: C_25  and  C_26 
REMARK   14  A    between atoms: C_25  and  N_30 
REMARK   15  A    between atoms: C_26  and  C_27 
REMARK   16  A    between atoms: C_27  and  N_28 
REMARK       I    between atoms: C_29  and  N_30 
ROOT
HETATM    1  O           1     -22.629  -5.729  -5.568  0.00  0.00    -0.271 OA
HETATM    2  H           1     -19.821  -6.948  -4.880  0.00  0.00     0.163 HD
HETATM    3  C           1     -21.436  -5.904  -5.647  0.00  0.00     0.249 C 
HETATM    4  N           1     -20.819  -6.801  -4.816  0.00  0.00    -0.345 N 
ENDROOT
BRANCH   3   5
HETATM    5  C           1     -20.625  -5.135  -6.660  0.00  0.00     0.274 C 
BRANCH   5   6
HETATM    6  C           1     -21.559  -4.322  -7.547  0.00  0.00     0.044 C 
BRANCH   6   7
HETATM    7  C           1     -21.150  -4.488  -9.004  0.00  0.00     0.023 C 
BRANCH   7   8
HETATM    8  C           1     -22.311  -4.091  -9.907  0.00  0.00     0.138 C 
BRANCH   8   9
HETATM    9  N           1     -21.842  -4.001 -11.297  0.00  0.00    -0.227 N 
HETATM   10  C           1     -22.554  -3.422 -12.169  0.00  0.00     0.665 C 
HETATM   11  N           1     -22.151  -3.344 -13.366  0.00  0.00    -0.235 N 
HETATM   12  N           1     -23.701  -2.907 -11.834  0.00  0.00    -0.235 N 
HETATM   13  H           1     -22.741  -2.863 -14.089  0.00  0.00     0.174 HD
HETATM   14  H           1     -21.225  -3.759 -13.636  0.00  0.00     0.174 HD
HETATM   15  H           1     -24.288  -2.430 -12.554  0.00  0.00     0.174 HD
HETATM   16  H           1     -24.033  -2.972 -10.846  0.00  0.00     0.174 HD
HETATM   17  H           1     -20.917  -4.416 -11.567  0.00  0.00     0.177 HD
ENDBRANCH   8   9
ENDBRANCH   7   8
ENDBRANCH   6   7
ENDBRANCH   5   6
BRANCH   5  18
HETATM   18  N           1     -19.845  -6.096  -7.508  0.00  0.00    -0.067 N 
HETATM   19  H           1     -18.834  -5.832  -7.494  0.00  0.00     0.275 HD
HETATM   20  H           1     -19.956  -7.064  -7.129  0.00  0.00     0.275 HD
HETATM   21  H           1     -20.200  -6.063  -8.490  0.00  0.00     0.275 HD
ENDBRANCH   5  18
ENDBRANCH   3   5
BRANCH   4  22
HETATM   22  C           1     -21.599  -7.540  -3.841  0.00  0.00     0.187 C 
BRANCH  22  23
HETATM   23  C           1     -21.569  -6.814  -2.518  0.00  0.00     0.196 C 
HETATM   24  O           1     -20.647  -7.037  -1.704  0.00  0.00    -0.646 OA
HETATM   25  O           1     -22.465  -5.990  -2.237  0.00  0.00    -0.646 OA
ENDBRANCH  22  23
BRANCH  22  26
HETATM   26  C           1     -21.007  -8.933  -3.669  0.00  0.00     0.066 C 
BRANCH  26  27
HETATM   27  C           1     -22.026  -9.838  -2.992  0.00  0.00     0.273 C 
BRANCH  27  28
HETATM   28  N           1     -21.564 -10.180  -1.674  0.00  0.00     0.098 N 
HETATM   29  H           1     -20.860  -9.505  -1.374  0.00  0.00     0.317 HD
BRANCH  28  30
HETATM   30  C           1     -22.693 -10.121  -0.786  0.00  0.00     0.321 C 
BRANCH  30  31
HETATM   31  C           1     -22.854 -11.461  -0.080  0.00  0.00     0.057 C 
BRANCH  31  32
HETATM   32  C           1     -21.620 -12.319  -0.331  0.00  0.00     0.076 C 
BRANCH  32  33
HETATM   33  S           1     -21.702 -13.813   0.696  0.00  0.00    -0.173 SA
HETATM   34  C           1     -23.292 -13.427   1.482  0.00  0.00     0.089 C 
ENDBRANCH  32  33
ENDBRANCH  31  32
ENDBRANCH  30  31
BRANCH  30  35
HETATM   35  C           1     -22.470  -9.036   0.239  0.00  0.00     0.207 C 
HETATM   36  O           1     -23.343  -8.160   0.422  0.00  0.00    -0.646 OA
HETATM   37  O           1     -21.411  -9.012   0.903  0.00  0.00    -0.646 OA
ENDBRANCH  30  35
ENDBRANCH  28  30
ENDBRANCH  27  28
ENDBRANCH  26  27
ENDBRANCH  22  26
ENDBRANCH   4  22
TORSDOF 16
ENDMDL
