MODEL 1
REMARK VINA RESULT:      -5.7      0.000      0.000
REMARK  4 active torsions:
REMARK  status: ('A' for Active; 'I' for Inactive)
REMARK    1  A    between atoms: N_1  and  C_9 
REMARK       I    between atoms: C_2  and  N_3 
REMARK    2  A    between atoms: C_2  and  C_9 
REMARK    3  A    between atoms: N_3  and  C_6 
REMARK    4  A    between atoms: C_6  and  C_8 
ROOT
HETATM    1  C           1     -23.450  -2.360 -14.216  0.00  0.00     0.243 C 
HETATM    2  N           1     -23.091  -2.316 -12.897  0.00  0.00    -0.345 N 
HETATM    3  H           1     -22.824  -1.437 -12.473  0.00  0.00     0.163 HD
HETATM    4  O           1     -23.770  -3.410 -14.722  0.00  0.00    -0.272 OA
ENDROOT
BRANCH   1   5
HETATM    5  C           1     -23.446  -1.096 -15.042  0.00  0.00     0.332 C 
BRANCH   5   6
HETATM    6  N           1     -24.670  -0.288 -14.726  0.00  0.00    -0.071 N 
HETATM    7  H           1     -24.594   0.650 -15.178  0.00  0.00     0.274 HD
HETATM    8  H           1     -25.516  -0.782 -15.090  0.00  0.00     0.274 HD
HETATM    9  H           1     -24.752  -0.171 -13.691  0.00  0.00     0.274 HD
ENDBRANCH   5   6
ENDBRANCH   1   5
BRANCH   2  10
HETATM   10  C           1     -23.095  -3.531 -12.104  0.00  0.00     0.181 C 
HETATM   11  C           1     -21.671  -3.861 -11.675  0.00  0.00     0.043 C 
BRANCH  10  12
HETATM   12  C           1     -23.955  -3.330 -10.880  0.00  0.00     0.196 C 
HETATM   13  O           1     -25.175  -3.086 -11.006  0.00  0.00    -0.646 OA
HETATM   14  O           1     -23.448  -3.407  -9.740  0.00  0.00    -0.646 OA
ENDBRANCH  10  12
ENDBRANCH   2  10
TORSDOF 4
ENDMDL
MODEL 2
REMARK VINA RESULT:      -5.1     15.813     16.726
REMARK  4 active torsions:
REMARK  status: ('A' for Active; 'I' for Inactive)
REMARK    1  A    between atoms: N_1  and  C_9 
REMARK       I    between atoms: C_2  and  N_3 
REMARK    2  A    between atoms: C_2  and  C_9 
REMARK    3  A    between atoms: N_3  and  C_6 
REMARK    4  A    between atoms: C_6  and  C_8 
ROOT
HETATM    1  C           1     -29.735 -14.546 -19.601  0.00  0.00     0.243 C 
HETATM    2  N           1     -30.439 -15.530 -20.240  0.00  0.00    -0.345 N 
HETATM    3  H           1     -30.955 -16.214 -19.702  0.00  0.00     0.163 HD
HETATM    4  O           1     -29.120 -13.728 -20.243  0.00  0.00    -0.272 OA
ENDROOT
BRANCH   1   5
HETATM    5  C           1     -29.727 -14.482 -18.093  0.00  0.00     0.332 C 
BRANCH   5   6
HETATM    6  N           1     -28.415 -14.994 -17.577  0.00  0.00    -0.071 N 
HETATM    7  H           1     -28.569 -15.495 -16.673  0.00  0.00     0.274 HD
HETATM    8  H           1     -28.001 -15.652 -18.274  0.00  0.00     0.274 HD
HETATM    9  H           1     -27.764 -14.191 -17.424  0.00  0.00     0.274 HD
ENDBRANCH   5   6
ENDBRANCH   1   5
BRANCH   2  10
HETATM   10  C           1     -30.447 -15.591 -21.689  0.00  0.00     0.181 C 
HETATM   11  C           1     -30.293 -17.039 -22.136  0.00  0.00     0.043 C 
BRANCH  10  12
HETATM   12  C           1     -31.752 -15.039 -22.209  0.00  0.00     0.196 C 
HETATM   13  O           1     -31.927 -13.803 -22.274  0.00  0.00    -0.646 OA
HETATM   14  O           1     -32.658 -15.818 -22.575  0.00  0.00    -0.646 OA
ENDBRANCH  10  12
ENDBRANCH   2  10
TORSDOF 4
ENDMDL
MODEL 3
REMARK VINA RESULT:      -5.0      7.116      8.103
REMARK  4 active torsions:
REMARK  status: ('A' for Active; 'I' for Inactive)
REMARK    1  A    between atoms: N_1  and  C_9 
REMARK       I    between atoms: C_2  and  N_3 
REMARK    2  A    between atoms: C_2  and  C_9 
REMARK    3  A    between atoms: N_3  and  C_6 
REMARK    4  A    between atoms: C_6  and  C_8 
ROOT
HETATM    1  C           1     -26.794  -6.530 -16.641  0.00  0.00     0.243 C 
HETATM    2  N           1     -28.033  -7.111 -16.598  0.00  0.00    -0.345 N 
HETATM    3  H           1     -28.211  -7.876 -15.960  0.00  0.00     0.163 HD
HETATM    4  O           1     -26.581  -5.617 -17.403  0.00  0.00    -0.272 OA
ENDROOT
BRANCH   1   5
HETATM    5  C           1     -25.694  -7.031 -15.737  0.00  0.00     0.332 C 
BRANCH   5   6
HETATM    6  N           1     -24.515  -7.446 -16.566  0.00  0.00    -0.071 N 
HETATM    7  H           1     -24.252  -6.668 -17.211  0.00  0.00     0.274 HD
HETATM    8  H           1     -23.709  -7.667 -15.939  0.00  0.00     0.274 HD
HETATM    9  H           1     -24.764  -8.293 -17.126  0.00  0.00     0.274 HD
ENDBRANCH   5   6
ENDBRANCH   1   5
BRANCH   2  10
HETATM   10  C           1     -29.090  -6.630 -17.467  0.00  0.00     0.181 C 
HETATM   11  C           1     -29.700  -7.804 -18.220  0.00  0.00     0.043 C 
BRANCH  10  12
HETATM   12  C           1     -30.155  -5.955 -16.636  0.00  0.00     0.196 C 
HETATM   13  O           1     -29.880  -5.528 -15.494  0.00  0.00    -0.646 OA
HETATM   14  O           1     -31.312  -5.825 -17.090  0.00  0.00    -0.646 OA
ENDBRANCH  10  12
ENDBRANCH   2  10
TORSDOF 4
ENDMDL
MODEL 4
REMARK VINA RESULT:      -4.9      2.190      4.537
REMARK  4 active torsions:
REMARK  status: ('A' for Active; 'I' for Inactive)
REMARK    1  A    between atoms: N_1  and  C_9 
REMARK       I    between atoms: C_2  and  N_3 
REMARK    2  A    between atoms: C_2  and  C_9 
REMARK    3  A    between atoms: N_3  and  C_6 
REMARK    4  A    between atoms: C_6  and  C_8 
ROOT
HETATM    1  C           1     -21.740  -4.134 -11.677  0.00  0.00     0.243 C 
HETATM    2  N           1     -21.967  -3.337 -12.765  0.00  0.00    -0.345 N 
HETATM    3  H           1     -21.234  -2.731 -13.111  0.00  0.00     0.163 HD
HETATM    4  O           1     -22.615  -4.858 -11.264  0.00  0.00    -0.272 OA
ENDROOT
BRANCH   1   5
HETATM    5  C           1     -20.396  -4.110 -10.991  0.00  0.00     0.332 C 
BRANCH   5   6
HETATM    6  N           1     -20.561  -4.498  -9.551  0.00  0.00    -0.071 N 
HETATM    7  H           1     -21.120  -3.766  -9.056  0.00  0.00     0.274 HD
HETATM    8  H           1     -21.058  -5.414  -9.493  0.00  0.00     0.274 HD
HETATM    9  H           1     -19.621  -4.580  -9.103  0.00  0.00     0.274 HD
ENDBRANCH   5   6
ENDBRANCH   1   5
BRANCH   2  10
HETATM   10  C           1     -23.259  -3.360 -13.424  0.00  0.00     0.181 C 
HETATM   11  C           1     -24.324  -2.835 -12.471  0.00  0.00     0.043 C 
BRANCH  10  12
HETATM   12  C           1     -23.211  -2.488 -14.656  0.00  0.00     0.196 C 
HETATM   13  O           1     -24.013  -1.538 -14.781  0.00  0.00    -0.646 OA
HETATM   14  O           1     -22.368  -2.717 -15.550  0.00  0.00    -0.646 OA
ENDBRANCH  10  12
ENDBRANCH   2  10
TORSDOF 4
ENDMDL
MODEL 5
REMARK VINA RESULT:      -4.9     12.135     13.172
REMARK  4 active torsions:
REMARK  status: ('A' for Active; 'I' for Inactive)
REMARK    1  A    between atoms: N_1  and  C_9 
REMARK       I    between atoms: C_2  and  N_3 
REMARK    2  A    between atoms: C_2  and  C_9 
REMARK    3  A    between atoms: N_3  and  C_6 
REMARK    4  A    between atoms: C_6  and  C_8 
ROOT
HETATM    1  C           1     -37.278   0.026 -10.847  0.00  0.00     0.243 C 
HETATM    2  N           1     -36.071   0.297 -11.431  0.00  0.00    -0.345 N 
HETATM    3  H           1     -35.427   0.940 -10.988  0.00  0.00     0.163 HD
HETATM    4  O           1     -38.047  -0.741 -11.376  0.00  0.00    -0.272 OA
ENDROOT
BRANCH   1   5
HETATM    5  C           1     -37.650   0.686  -9.541  0.00  0.00     0.332 C 
BRANCH   5   6
HETATM    6  N           1     -36.440   1.351  -8.954  0.00  0.00    -0.071 N 
HETATM    7  H           1     -36.296   2.278  -9.415  0.00  0.00     0.274 HD
HETATM    8  H           1     -36.583   1.491  -7.929  0.00  0.00     0.274 HD
HETATM    9  H           1     -35.601   0.749  -9.112  0.00  0.00     0.274 HD
ENDBRANCH   5   6
ENDBRANCH   1   5
BRANCH   2  10
HETATM   10  C           1     -35.714  -0.336 -12.687  0.00  0.00     0.181 C 
HETATM   11  C           1     -35.010   0.674 -13.582  0.00  0.00     0.043 C 
BRANCH  10  12
HETATM   12  C           1     -34.792  -1.501 -12.417  0.00  0.00     0.196 C 
HETATM   13  O           1     -34.128  -1.541 -11.359  0.00  0.00    -0.646 OA
HETATM   14  O           1     -34.692  -2.425 -13.253  0.00  0.00    -0.646 OA
ENDBRANCH  10  12
ENDBRANCH   2  10
TORSDOF 4
ENDMDL
MODEL 6
REMARK VINA RESULT:      -4.8      1.749      2.274
REMARK  4 active torsions:
REMARK  status: ('A' for Active; 'I' for Inactive)
REMARK    1  A    between atoms: N_1  and  C_9 
REMARK       I    between atoms: C_2  and  N_3 
REMARK    2  A    between atoms: C_2  and  C_9 
REMARK    3  A    between atoms: N_3  and  C_6 
REMARK    4  A    between atoms: C_6  and  C_8 
ROOT
HETATM    1  C           1     -23.234  -2.760 -13.659  0.00  0.00     0.243 C 
HETATM    2  N           1     -22.324  -3.402 -12.864  0.00  0.00    -0.345 N 
HETATM    3  H           1     -21.410  -3.637 -13.228  0.00  0.00     0.163 HD
HETATM    4  O           1     -24.326  -2.480 -13.224  0.00  0.00    -0.272 OA
ENDROOT
BRANCH   1   5
HETATM    5  C           1     -22.874  -2.402 -15.081  0.00  0.00     0.332 C 
BRANCH   5   6
HETATM    6  N           1     -23.537  -1.109 -15.454  0.00  0.00    -0.071 N 
HETATM    7  H           1     -24.562  -1.268 -15.580  0.00  0.00     0.274 HD
HETATM    8  H           1     -23.383  -0.408 -14.696  0.00  0.00     0.274 HD
HETATM    9  H           1     -23.127  -0.754 -16.347  0.00  0.00     0.274 HD
ENDBRANCH   5   6
ENDBRANCH   1   5
BRANCH   2  10
HETATM   10  C           1     -22.670  -3.747 -11.498  0.00  0.00     0.181 C 
HETATM   11  C           1     -23.445  -5.058 -11.487  0.00  0.00     0.043 C 
BRANCH  10  12
HETATM   12  C           1     -21.409  -3.900 -10.684  0.00  0.00     0.196 C 
HETATM   13  O           1     -21.468  -3.912  -9.435  0.00  0.00    -0.646 OA
HETATM   14  O           1     -20.305  -4.014 -11.258  0.00  0.00    -0.646 OA
ENDBRANCH  10  12
ENDBRANCH   2  10
TORSDOF 4
ENDMDL
MODEL 7
REMARK VINA RESULT:      -4.8     11.163     11.900
REMARK  4 active torsions:
REMARK  status: ('A' for Active; 'I' for Inactive)
REMARK    1  A    between atoms: N_1  and  C_9 
REMARK       I    between atoms: C_2  and  N_3 
REMARK    2  A    between atoms: C_2  and  C_9 
REMARK    3  A    between atoms: N_3  and  C_6 
REMARK    4  A    between atoms: C_6  and  C_8 
ROOT
HETATM    1  C           1     -35.075  -0.293 -13.442  0.00  0.00     0.243 C 
HETATM    2  N           1     -34.580  -0.510 -12.185  0.00  0.00    -0.345 N 
HETATM    3  H           1     -34.109   0.237 -11.691  0.00  0.00     0.163 HD
HETATM    4  O           1     -35.638  -1.185 -14.031  0.00  0.00    -0.272 OA
ENDROOT
BRANCH   1   5
HETATM    5  C           1     -34.919   1.060 -14.092  0.00  0.00     0.332 C 
BRANCH   5   6
HETATM    6  N           1     -36.008   1.257 -15.106  0.00  0.00    -0.071 N 
HETATM    7  H           1     -35.720   0.825 -16.013  0.00  0.00     0.274 HD
HETATM    8  H           1     -36.885   0.802 -14.766  0.00  0.00     0.274 HD
HETATM    9  H           1     -36.174   2.279 -15.244  0.00  0.00     0.274 HD
ENDBRANCH   5   6
ENDBRANCH   1   5
BRANCH   2  10
HETATM   10  C           1     -34.729  -1.810 -11.560  0.00  0.00     0.181 C 
HETATM   11  C           1     -33.441  -2.175 -10.834  0.00  0.00     0.043 C 
BRANCH  10  12
HETATM   12  C           1     -35.870  -1.765 -10.572  0.00  0.00     0.196 C 
HETATM   13  O           1     -35.955  -0.819  -9.759  0.00  0.00    -0.646 OA
HETATM   14  O           1     -36.728  -2.673 -10.567  0.00  0.00    -0.646 OA
ENDBRANCH  10  12
ENDBRANCH   2  10
TORSDOF 4
ENDMDL
MODEL 8
REMARK VINA RESULT:      -4.8     10.830     11.541
REMARK  4 active torsions:
REMARK  status: ('A' for Active; 'I' for Inactive)
REMARK    1  A    between atoms: N_1  and  C_9 
REMARK       I    between atoms: C_2  and  N_3 
REMARK    2  A    between atoms: C_2  and  C_9 
REMARK    3  A    between atoms: N_3  and  C_6 
REMARK    4  A    between atoms: C_6  and  C_8 
ROOT
HETATM    1  C           1     -35.038  -1.321 -12.940  0.00  0.00     0.243 C 
HETATM    2  N           1     -34.714  -2.043 -11.824  0.00  0.00    -0.345 N 
HETATM    3  H           1     -34.728  -1.601 -10.914  0.00  0.00     0.163 HD
HETATM    4  O           1     -35.023  -1.849 -14.027  0.00  0.00    -0.272 OA
ENDROOT
BRANCH   1   5
HETATM    5  C           1     -35.415   0.135 -12.814  0.00  0.00     0.332 C 
BRANCH   5   6
HETATM    6  N           1     -35.791   0.434 -11.393  0.00  0.00    -0.071 N 
HETATM    7  H           1     -36.592  -0.174 -11.110  0.00  0.00     0.274 HD
HETATM    8  H           1     -34.974   0.245 -10.770  0.00  0.00     0.274 HD
HETATM    9  H           1     -36.069   1.437 -11.310  0.00  0.00     0.274 HD
ENDBRANCH   5   6
ENDBRANCH   1   5
BRANCH   2  10
HETATM   10  C           1     -34.352  -3.442 -11.945  0.00  0.00     0.181 C 
HETATM   11  C           1     -32.881  -3.618 -11.591  0.00  0.00     0.043 C 
BRANCH  10  12
HETATM   12  C           1     -35.198  -4.264 -11.002  0.00  0.00     0.196 C 
HETATM   13  O           1     -34.773  -5.358 -10.572  0.00  0.00    -0.646 OA
HETATM   14  O           1     -36.324  -3.850 -10.652  0.00  0.00    -0.646 OA
ENDBRANCH  10  12
ENDBRANCH   2  10
TORSDOF 4
ENDMDL
MODEL 9
REMARK VINA RESULT:      -4.7      7.447      8.693
REMARK  4 active torsions:
REMARK  status: ('A' for Active; 'I' for Inactive)
REMARK    1  A    between atoms: N_1  and  C_9 
REMARK       I    between atoms: C_2  and  N_3 
REMARK    2  A    between atoms: C_2  and  C_9 
REMARK    3  A    between atoms: N_3  and  C_6 
REMARK    4  A    between atoms: C_6  and  C_8 
ROOT
HETATM    1  C           1     -27.130  -7.039 -15.842  0.00  0.00     0.243 C 
HETATM    2  N           1     -27.874  -6.712 -16.943  0.00  0.00    -0.345 N 
HETATM    3  H           1     -27.471  -6.141 -17.675  0.00  0.00     0.163 HD
HETATM    4  O           1     -27.611  -7.721 -14.968  0.00  0.00    -0.272 OA
ENDROOT
BRANCH   1   5
HETATM    5  C           1     -25.708  -6.548 -15.719  0.00  0.00     0.332 C 
BRANCH   5   6
HETATM    6  N           1     -24.813  -7.382 -16.587  0.00  0.00    -0.071 N 
HETATM    7  H           1     -24.814  -8.368 -16.242  0.00  0.00     0.274 HD
HETATM    8  H           1     -25.163  -7.358 -17.571  0.00  0.00     0.274 HD
HETATM    9  H           1     -23.841  -7.001 -16.552  0.00  0.00     0.274 HD
ENDBRANCH   5   6
ENDBRANCH   1   5
BRANCH   2  10
HETATM   10  C           1     -29.241  -7.184 -17.060  0.00  0.00     0.181 C 
HETATM   11  C           1     -30.199  -6.062 -16.682  0.00  0.00     0.043 C 
BRANCH  10  12
HETATM   12  C           1     -29.503  -7.613 -18.484  0.00  0.00     0.196 C 
HETATM   13  O           1     -30.563  -8.209 -18.772  0.00  0.00    -0.646 OA
HETATM   14  O           1     -28.660  -7.371 -19.374  0.00  0.00    -0.646 OA
ENDBRANCH  10  12
ENDBRANCH   2  10
TORSDOF 4
ENDMDL
