MODEL 1
REMARK VINA RESULT:      -6.6      0.000      0.000
REMARK  11 active torsions:
REMARK  status: ('A' for Active; 'I' for Inactive)
REMARK       I    between atoms: C_1  and  N_10 
REMARK    1  A    between atoms: C_1  and  C_8 
REMARK    2  A    between atoms: C_2  and  C_15 
REMARK    3  A    between atoms: N_5  and  C_6 
REMARK    4  A    between atoms: C_6  and  C_7 
REMARK    5  A    between atoms: C_7  and  C_14 
REMARK    6  A    between atoms: C_8  and  C_9 
REMARK    7  A    between atoms: C_8  and  N_13 
REMARK    8  A    between atoms: C_9  and  C_25 
REMARK    9  A    between atoms: N_10  and  C_15 
REMARK   10  A    between atoms: C_14  and  C_15 
REMARK       I    between atoms: N_16  and  C_17 
REMARK   11  A    between atoms: C_17  and  C_25 
ROOT
HETATM    1  C           1     -34.116  -2.546 -12.112  0.00  0.00     0.249 C 
HETATM    2  N           1     -34.845  -1.667 -12.868  0.00  0.00    -0.345 N 
HETATM    3  O           1     -33.583  -2.171 -11.095  0.00  0.00    -0.271 OA
HETATM    4  H           1     -35.292  -1.982 -13.719  0.00  0.00     0.163 HD
ENDROOT
BRANCH   1   5
HETATM    5  C           1     -33.979  -3.984 -12.548  0.00  0.00     0.275 C 
BRANCH   5   6
HETATM    6  C           1     -34.892  -4.862 -11.704  0.00  0.00     0.052 C 
BRANCH   6   7
HETATM    7  C           1     -34.081  -5.521 -10.596  0.00  0.00     0.105 C 
BRANCH   7   8
HETATM    8  C           1     -34.648  -6.887 -10.300  0.00  0.00     0.215 C 
HETATM    9  N           1     -35.018  -7.712 -11.328  0.00  0.00    -0.370 N 
HETATM   10  H           1     -35.399  -8.628 -11.130  0.00  0.00     0.159 HD
HETATM   11  H           1     -34.912  -7.406 -12.287  0.00  0.00     0.159 HD
HETATM   12  O           1     -34.775  -7.254  -9.156  0.00  0.00    -0.274 OA
ENDBRANCH   7   8
ENDBRANCH   6   7
ENDBRANCH   5   6
BRANCH   5  13
HETATM   13  N           1     -32.556  -4.425 -12.370  0.00  0.00    -0.066 N 
HETATM   14  H           1     -31.929  -3.820 -12.948  0.00  0.00     0.275 HD
HETATM   15  H           1     -32.289  -4.341 -11.363  0.00  0.00     0.275 HD
HETATM   16  H           1     -32.459  -5.419 -12.677  0.00  0.00     0.275 HD
ENDBRANCH   5  13
ENDBRANCH   1   5
BRANCH   2  17
HETATM   17  C           1     -34.976  -0.285 -12.447  0.00  0.00     0.185 C 
BRANCH  17  18
HETATM   18  C           1     -36.259  -0.117 -11.669  0.00  0.00     0.196 C 
HETATM   19  O           1     -37.326  -0.598 -12.109  0.00  0.00    -0.646 OA
HETATM   20  O           1     -36.254   0.504 -10.585  0.00  0.00    -0.646 OA
ENDBRANCH  17  18
BRANCH  17  21
HETATM   21  C           1     -35.004   0.617 -13.673  0.00  0.00     0.038 C 
BRANCH  21  22
HETATM   22  C           1     -35.390  -0.201 -14.898  0.00  0.00     0.030 C 
BRANCH  22  23
HETATM   23  C           1     -36.685   0.342 -15.485  0.00  0.00     0.230 C 
BRANCH  23  24
HETATM   24  N           1     -36.453   1.725 -16.018  0.00  0.00    -0.079 N 
HETATM   25  H           1     -37.285   2.322 -15.811  0.00  0.00     0.274 HD
HETATM   26  H           1     -35.608   2.136 -15.560  0.00  0.00     0.274 HD
HETATM   27  H           1     -36.304   1.680 -17.051  0.00  0.00     0.274 HD
ENDBRANCH  23  24
ENDBRANCH  22  23
ENDBRANCH  21  22
ENDBRANCH  17  21
ENDBRANCH   2  17
TORSDOF 11
ENDMDL
MODEL 2
REMARK VINA RESULT:      -6.5     12.318     13.878
REMARK  11 active torsions:
REMARK  status: ('A' for Active; 'I' for Inactive)
REMARK       I    between atoms: C_1  and  N_10 
REMARK    1  A    between atoms: C_1  and  C_8 
REMARK    2  A    between atoms: C_2  and  C_15 
REMARK    3  A    between atoms: N_5  and  C_6 
REMARK    4  A    between atoms: C_6  and  C_7 
REMARK    5  A    between atoms: C_7  and  C_14 
REMARK    6  A    between atoms: C_8  and  C_9 
REMARK    7  A    between atoms: C_8  and  N_13 
REMARK    8  A    between atoms: C_9  and  C_25 
REMARK    9  A    between atoms: N_10  and  C_15 
REMARK   10  A    between atoms: C_14  and  C_15 
REMARK       I    between atoms: N_16  and  C_17 
REMARK   11  A    between atoms: C_17  and  C_25 
ROOT
HETATM    1  C           1     -21.667  -4.723  -7.735  0.00  0.00     0.249 C 
HETATM    2  N           1     -22.222  -4.946  -8.967  0.00  0.00    -0.345 N 
HETATM    3  O           1     -21.596  -3.598  -7.300  0.00  0.00    -0.271 OA
HETATM    4  H           1     -22.282  -5.888  -9.332  0.00  0.00     0.163 HD
ENDROOT
BRANCH   1   5
HETATM    5  C           1     -21.143  -5.881  -6.922  0.00  0.00     0.275 C 
BRANCH   5   6
HETATM    6  C           1     -21.186  -5.524  -5.442  0.00  0.00     0.052 C 
BRANCH   6   7
HETATM    7  C           1     -22.155  -6.453  -4.723  0.00  0.00     0.105 C 
BRANCH   7   8
HETATM    8  C           1     -21.731  -6.608  -3.284  0.00  0.00     0.215 C 
HETATM    9  N           1     -22.370  -5.901  -2.301  0.00  0.00    -0.370 N 
HETATM   10  H           1     -22.085  -6.004  -1.336  0.00  0.00     0.159 HD
HETATM   11  H           1     -23.127  -5.273  -2.540  0.00  0.00     0.159 HD
HETATM   12  O           1     -20.828  -7.357  -2.997  0.00  0.00    -0.274 OA
ENDBRANCH   7   8
ENDBRANCH   6   7
ENDBRANCH   5   6
BRANCH   5  13
HETATM   13  N           1     -19.728  -6.174  -7.325  0.00  0.00    -0.066 N 
HETATM   14  H           1     -19.705  -7.039  -7.911  0.00  0.00     0.275 HD
HETATM   15  H           1     -19.349  -5.370  -7.875  0.00  0.00     0.275 HD
HETATM   16  H           1     -19.146  -6.318  -6.470  0.00  0.00     0.275 HD
ENDBRANCH   5  13
ENDBRANCH   1   5
BRANCH   2  17
HETATM   17  C           1     -22.725  -3.833  -9.749  0.00  0.00     0.185 C 
BRANCH  17  18
HETATM   18  C           1     -24.234  -3.839  -9.718  0.00  0.00     0.196 C 
HETATM   19  O           1     -24.860  -2.774  -9.521  0.00  0.00    -0.646 OA
HETATM   20  O           1     -24.859  -4.907  -9.888  0.00  0.00    -0.646 OA
ENDBRANCH  17  18
BRANCH  17  21
HETATM   21  C           1     -22.246  -3.966 -11.187  0.00  0.00     0.038 C 
BRANCH  21  22
HETATM   22  C           1     -22.331  -2.612 -11.879  0.00  0.00     0.030 C 
BRANCH  22  23
HETATM   23  C           1     -23.264  -2.711 -13.078  0.00  0.00     0.230 C 
BRANCH  23  24
HETATM   24  N           1     -22.479  -3.101 -14.294  0.00  0.00    -0.079 N 
HETATM   25  H           1     -22.214  -2.242 -14.827  0.00  0.00     0.274 HD
HETATM   26  H           1     -21.614  -3.609 -14.001  0.00  0.00     0.274 HD
HETATM   27  H           1     -23.061  -3.721 -14.901  0.00  0.00     0.274 HD
ENDBRANCH  23  24
ENDBRANCH  22  23
ENDBRANCH  21  22
ENDBRANCH  17  21
ENDBRANCH   2  17
TORSDOF 11
ENDMDL
MODEL 3
REMARK VINA RESULT:      -6.4      2.100      6.874
REMARK  11 active torsions:
REMARK  status: ('A' for Active; 'I' for Inactive)
REMARK       I    between atoms: C_1  and  N_10 
REMARK    1  A    between atoms: C_1  and  C_8 
REMARK    2  A    between atoms: C_2  and  C_15 
REMARK    3  A    between atoms: N_5  and  C_6 
REMARK    4  A    between atoms: C_6  and  C_7 
REMARK    5  A    between atoms: C_7  and  C_14 
REMARK    6  A    between atoms: C_8  and  C_9 
REMARK    7  A    between atoms: C_8  and  N_13 
REMARK    8  A    between atoms: C_9  and  C_25 
REMARK    9  A    between atoms: N_10  and  C_15 
REMARK   10  A    between atoms: C_14  and  C_15 
REMARK       I    between atoms: N_16  and  C_17 
REMARK   11  A    between atoms: C_17  and  C_25 
ROOT
HETATM    1  C           1     -35.370  -1.803 -10.898  0.00  0.00     0.249 C 
HETATM    2  N           1     -35.432  -3.043 -11.476  0.00  0.00    -0.345 N 
HETATM    3  O           1     -34.451  -1.523 -10.166  0.00  0.00    -0.271 OA
HETATM    4  H           1     -36.202  -3.277 -12.090  0.00  0.00     0.163 HD
ENDROOT
BRANCH   1   5
HETATM    5  C           1     -36.451  -0.786 -11.174  0.00  0.00     0.275 C 
BRANCH   5   6
HETATM    6  C           1     -36.464  -0.448 -12.658  0.00  0.00     0.052 C 
BRANCH   6   7
HETATM    7  C           1     -35.194   0.313 -13.017  0.00  0.00     0.105 C 
BRANCH   7   8
HETATM    8  C           1     -35.147   0.540 -14.508  0.00  0.00     0.215 C 
HETATM    9  N           1     -35.655   1.694 -15.043  0.00  0.00    -0.370 N 
HETATM   10  H           1     -35.624   1.845 -16.042  0.00  0.00     0.159 HD
HETATM   11  H           1     -36.064   2.394 -14.437  0.00  0.00     0.159 HD
HETATM   12  O           1     -34.659  -0.296 -15.231  0.00  0.00    -0.274 OA
ENDBRANCH   7   8
ENDBRANCH   6   7
ENDBRANCH   5   6
BRANCH   5  13
HETATM   13  N           1     -36.179   0.457 -10.380  0.00  0.00    -0.066 N 
HETATM   14  H           1     -35.434   1.017 -10.854  0.00  0.00     0.275 HD
HETATM   15  H           1     -37.053   1.027 -10.314  0.00  0.00     0.275 HD
HETATM   16  H           1     -35.858   0.195  -9.421  0.00  0.00     0.275 HD
ENDBRANCH   5  13
ENDBRANCH   1   5
BRANCH   2  17
HETATM   17  C           1     -34.393  -4.020 -11.210  0.00  0.00     0.185 C 
BRANCH  17  18
HETATM   18  C           1     -33.393  -4.010 -12.341  0.00  0.00     0.196 C 
HETATM   19  O           1     -33.776  -3.800 -13.513  0.00  0.00    -0.646 OA
HETATM   20  O           1     -32.183  -4.212 -12.107  0.00  0.00    -0.646 OA
ENDBRANCH  17  18
BRANCH  17  21
HETATM   21  C           1     -35.017  -5.404 -11.095  0.00  0.00     0.038 C 
BRANCH  21  22
HETATM   22  C           1     -33.990  -6.379 -10.535  0.00  0.00     0.030 C 
BRANCH  22  23
HETATM   23  C           1     -34.678  -7.688 -10.173  0.00  0.00     0.230 C 
BRANCH  23  24
HETATM   24  N           1     -33.684  -8.810 -10.236  0.00  0.00    -0.079 N 
HETATM   25  H           1     -32.748  -8.465  -9.926  0.00  0.00     0.274 HD
HETATM   26  H           1     -33.995  -9.585  -9.607  0.00  0.00     0.274 HD
HETATM   27  H           1     -33.618  -9.161 -11.217  0.00  0.00     0.274 HD
ENDBRANCH  23  24
ENDBRANCH  22  23
ENDBRANCH  21  22
ENDBRANCH  17  21
ENDBRANCH   2  17
TORSDOF 11
ENDMDL
MODEL 4
REMARK VINA RESULT:      -6.0     11.858     14.560
REMARK  11 active torsions:
REMARK  status: ('A' for Active; 'I' for Inactive)
REMARK       I    between atoms: C_1  and  N_10 
REMARK    1  A    between atoms: C_1  and  C_8 
REMARK    2  A    between atoms: C_2  and  C_15 
REMARK    3  A    between atoms: N_5  and  C_6 
REMARK    4  A    between atoms: C_6  and  C_7 
REMARK    5  A    between atoms: C_7  and  C_14 
REMARK    6  A    between atoms: C_8  and  C_9 
REMARK    7  A    between atoms: C_8  and  N_13 
REMARK    8  A    between atoms: C_9  and  C_25 
REMARK    9  A    between atoms: N_10  and  C_15 
REMARK   10  A    between atoms: C_14  and  C_15 
REMARK       I    between atoms: N_16  and  C_17 
REMARK   11  A    between atoms: C_17  and  C_25 
ROOT
HETATM    1  C           1     -23.364  -4.521  -8.693  0.00  0.00     0.249 C 
HETATM    2  N           1     -22.048  -4.844  -8.890  0.00  0.00    -0.345 N 
HETATM    3  O           1     -23.737  -4.142  -7.608  0.00  0.00    -0.271 OA
HETATM    4  H           1     -21.735  -5.161  -9.799  0.00  0.00     0.163 HD
ENDROOT
BRANCH   1   5
HETATM    5  C           1     -24.349  -4.638  -9.830  0.00  0.00     0.275 C 
BRANCH   5   6
HETATM    6  C           1     -23.614  -4.497 -11.157  0.00  0.00     0.052 C 
BRANCH   6   7
HETATM    7  C           1     -23.591  -3.032 -11.572  0.00  0.00     0.105 C 
BRANCH   7   8
HETATM    8  C           1     -24.005  -2.911 -13.017  0.00  0.00     0.215 C 
HETATM    9  N           1     -23.946  -1.697 -13.648  0.00  0.00    -0.370 N 
HETATM   10  H           1     -24.224  -1.616 -14.617  0.00  0.00     0.159 HD
HETATM   11  H           1     -23.625  -0.880 -13.144  0.00  0.00     0.159 HD
HETATM   12  O           1     -24.388  -3.886 -13.620  0.00  0.00    -0.274 OA
ENDBRANCH   7   8
ENDBRANCH   6   7
ENDBRANCH   5   6
BRANCH   5  13
HETATM   13  N           1     -25.378  -3.553  -9.712  0.00  0.00    -0.066 N 
HETATM   14  H           1     -25.211  -3.010  -8.834  0.00  0.00     0.275 HD
HETATM   15  H           1     -25.307  -2.913 -10.535  0.00  0.00     0.275 HD
HETATM   16  H           1     -26.331  -3.980  -9.680  0.00  0.00     0.275 HD
ENDBRANCH   5  13
ENDBRANCH   1   5
BRANCH   2  17
HETATM   17  C           1     -21.102  -4.731  -7.797  0.00  0.00     0.185 C 
BRANCH  17  18
HETATM   18  C           1     -19.744  -4.364  -8.343  0.00  0.00     0.196 C 
HETATM   19  O           1     -19.622  -4.029  -9.542  0.00  0.00    -0.646 OA
HETATM   20  O           1     -18.741  -4.395  -7.599  0.00  0.00    -0.646 OA
ENDBRANCH  17  18
BRANCH  17  21
HETATM   21  C           1     -21.012  -6.063  -7.065  0.00  0.00     0.038 C 
BRANCH  21  22
HETATM   22  C           1     -20.961  -5.816  -5.563  0.00  0.00     0.030 C 
BRANCH  22  23
HETATM   23  C           1     -22.080  -6.591  -4.882  0.00  0.00     0.230 C 
BRANCH  23  24
HETATM   24  N           1     -23.404  -5.987  -5.248  0.00  0.00    -0.079 N 
HETATM   25  H           1     -23.365  -5.633  -6.230  0.00  0.00     0.274 HD
HETATM   26  H           1     -24.151  -6.713  -5.169  0.00  0.00     0.274 HD
HETATM   27  H           1     -23.616  -5.195  -4.601  0.00  0.00     0.274 HD
ENDBRANCH  23  24
ENDBRANCH  22  23
ENDBRANCH  21  22
ENDBRANCH  17  21
ENDBRANCH   2  17
TORSDOF 11
ENDMDL
MODEL 5
REMARK VINA RESULT:      -5.9     12.664     15.585
REMARK  11 active torsions:
REMARK  status: ('A' for Active; 'I' for Inactive)
REMARK       I    between atoms: C_1  and  N_10 
REMARK    1  A    between atoms: C_1  and  C_8 
REMARK    2  A    between atoms: C_2  and  C_15 
REMARK    3  A    between atoms: N_5  and  C_6 
REMARK    4  A    between atoms: C_6  and  C_7 
REMARK    5  A    between atoms: C_7  and  C_14 
REMARK    6  A    between atoms: C_8  and  C_9 
REMARK    7  A    between atoms: C_8  and  N_13 
REMARK    8  A    between atoms: C_9  and  C_25 
REMARK    9  A    between atoms: N_10  and  C_15 
REMARK   10  A    between atoms: C_14  and  C_15 
REMARK       I    between atoms: N_16  and  C_17 
REMARK   11  A    between atoms: C_17  and  C_25 
ROOT
HETATM    1  C           1     -22.286  -4.356  -7.767  0.00  0.00     0.249 C 
HETATM    2  N           1     -22.216  -5.535  -7.072  0.00  0.00    -0.345 N 
HETATM    3  O           1     -21.634  -3.404  -7.408  0.00  0.00    -0.271 OA
HETATM    4  H           1     -22.761  -6.332  -7.374  0.00  0.00     0.163 HD
ENDROOT
BRANCH   1   5
HETATM    5  C           1     -23.176  -4.246  -8.981  0.00  0.00     0.275 C 
BRANCH   5   6
HETATM    6  C           1     -22.422  -3.544 -10.102  0.00  0.00     0.052 C 
BRANCH   6   7
HETATM    7  C           1     -22.911  -4.066 -11.447  0.00  0.00     0.105 C 
BRANCH   7   8
HETATM    8  C           1     -23.901  -3.092 -12.036  0.00  0.00     0.215 C 
HETATM    9  N           1     -23.509  -2.232 -13.027  0.00  0.00    -0.370 N 
HETATM   10  H           1     -24.172  -1.578 -13.421  0.00  0.00     0.159 HD
HETATM   11  H           1     -22.554  -2.248 -13.363  0.00  0.00     0.159 HD
HETATM   12  O           1     -25.040  -3.072 -11.636  0.00  0.00    -0.274 OA
ENDBRANCH   7   8
ENDBRANCH   6   7
ENDBRANCH   5   6
BRANCH   5  13
HETATM   13  N           1     -24.401  -3.455  -8.630  0.00  0.00    -0.066 N 
HETATM   14  H           1     -24.126  -2.617  -8.068  0.00  0.00     0.275 HD
HETATM   15  H           1     -24.878  -3.145  -9.506  0.00  0.00     0.275 HD
HETATM   16  H           1     -25.051  -4.051  -8.069  0.00  0.00     0.275 HD
ENDBRANCH   5  13
ENDBRANCH   1   5
BRANCH   2  17
HETATM   17  C           1     -21.361  -5.640  -5.906  0.00  0.00     0.185 C 
BRANCH  17  18
HETATM   18  C           1     -20.047  -6.270  -6.302  0.00  0.00     0.196 C 
HETATM   19  O           1     -19.835  -7.478  -6.059  0.00  0.00    -0.646 OA
HETATM   20  O           1     -19.172  -5.585  -6.871  0.00  0.00    -0.646 OA
ENDBRANCH  17  18
BRANCH  17  21
HETATM   21  C           1     -22.042  -6.503  -4.854  0.00  0.00     0.038 C 
BRANCH  21  22
HETATM   22  C           1     -21.504  -6.144  -3.475  0.00  0.00     0.030 C 
BRANCH  22  23
HETATM   23  C           1     -21.021  -7.406  -2.773  0.00  0.00     0.230 C 
BRANCH  23  24
HETATM   24  N           1     -21.402  -8.608  -3.586  0.00  0.00    -0.079 N 
HETATM   25  H           1     -21.920  -8.301  -4.439  0.00  0.00     0.274 HD
HETATM   26  H           1     -20.538  -9.123  -3.868  0.00  0.00     0.274 HD
HETATM   27  H           1     -22.012  -9.235  -3.015  0.00  0.00     0.274 HD
ENDBRANCH  23  24
ENDBRANCH  22  23
ENDBRANCH  21  22
ENDBRANCH  17  21
ENDBRANCH   2  17
TORSDOF 11
ENDMDL
MODEL 6
REMARK VINA RESULT:      -5.9      1.909      6.818
REMARK  11 active torsions:
REMARK  status: ('A' for Active; 'I' for Inactive)
REMARK       I    between atoms: C_1  and  N_10 
REMARK    1  A    between atoms: C_1  and  C_8 
REMARK    2  A    between atoms: C_2  and  C_15 
REMARK    3  A    between atoms: N_5  and  C_6 
REMARK    4  A    between atoms: C_6  and  C_7 
REMARK    5  A    between atoms: C_7  and  C_14 
REMARK    6  A    between atoms: C_8  and  C_9 
REMARK    7  A    between atoms: C_8  and  N_13 
REMARK    8  A    between atoms: C_9  and  C_25 
REMARK    9  A    between atoms: N_10  and  C_15 
REMARK   10  A    between atoms: C_14  and  C_15 
REMARK       I    between atoms: N_16  and  C_17 
REMARK   11  A    between atoms: C_17  and  C_25 
ROOT
HETATM    1  C           1     -36.241  -1.288 -12.303  0.00  0.00     0.249 C 
HETATM    2  N           1     -35.312  -2.281 -12.466  0.00  0.00    -0.345 N 
HETATM    3  O           1     -36.695  -1.060 -11.207  0.00  0.00    -0.271 OA
HETATM    4  H           1     -34.931  -2.471 -13.384  0.00  0.00     0.163 HD
ENDROOT
BRANCH   1   5
HETATM    5  C           1     -36.697  -0.478 -13.492  0.00  0.00     0.275 C 
BRANCH   5   6
HETATM    6  C           1     -35.690   0.629 -13.771  0.00  0.00     0.052 C 
BRANCH   6   7
HETATM    7  C           1     -35.136   0.469 -15.180  0.00  0.00     0.105 C 
BRANCH   7   8
HETATM    8  C           1     -36.275   0.274 -16.150  0.00  0.00     0.215 C 
HETATM    9  N           1     -36.223  -0.736 -17.073  0.00  0.00    -0.370 N 
HETATM   10  H           1     -36.987  -0.866 -17.724  0.00  0.00     0.159 HD
HETATM   11  H           1     -35.421  -1.352 -17.106  0.00  0.00     0.159 HD
HETATM   12  O           1     -37.234   1.008 -16.112  0.00  0.00    -0.274 OA
ENDBRANCH   7   8
ENDBRANCH   6   7
ENDBRANCH   5   6
BRANCH   5  13
HETATM   13  N           1     -38.037   0.128 -13.197  0.00  0.00    -0.066 N 
HETATM   14  H           1     -38.400   0.605 -14.053  0.00  0.00     0.275 HD
HETATM   15  H           1     -38.704  -0.624 -12.909  0.00  0.00     0.275 HD
HETATM   16  H           1     -37.942   0.825 -12.424  0.00  0.00     0.275 HD
ENDBRANCH   5  13
ENDBRANCH   1   5
BRANCH   2  17
HETATM   17  C           1     -34.873  -3.059 -11.323  0.00  0.00     0.185 C 
BRANCH  17  18
HETATM   18  C           1     -33.487  -2.621 -10.919  0.00  0.00     0.196 C 
HETATM   19  O           1     -33.339  -1.669 -10.121  0.00  0.00    -0.646 OA
HETATM   20  O           1     -32.486  -3.207 -11.383  0.00  0.00    -0.646 OA
ENDBRANCH  17  18
BRANCH  17  21
HETATM   21  C           1     -34.852  -4.536 -11.693  0.00  0.00     0.038 C 
BRANCH  21  22
HETATM   22  C           1     -34.658  -5.372 -10.436  0.00  0.00     0.030 C 
BRANCH  22  23
HETATM   23  C           1     -34.696  -6.850 -10.798  0.00  0.00     0.230 C 
BRANCH  23  24
HETATM   24  N           1     -35.058  -7.655  -9.584  0.00  0.00    -0.079 N 
HETATM   25  H           1     -34.938  -7.067  -8.729  0.00  0.00     0.274 HD
HETATM   26  H           1     -36.053  -7.964  -9.657  0.00  0.00     0.274 HD
HETATM   27  H           1     -34.435  -8.491  -9.523  0.00  0.00     0.274 HD
ENDBRANCH  23  24
ENDBRANCH  22  23
ENDBRANCH  21  22
ENDBRANCH  17  21
ENDBRANCH   2  17
TORSDOF 11
ENDMDL
MODEL 7
REMARK VINA RESULT:      -5.8     14.059     17.025
REMARK  11 active torsions:
REMARK  status: ('A' for Active; 'I' for Inactive)
REMARK       I    between atoms: C_1  and  N_10 
REMARK    1  A    between atoms: C_1  and  C_8 
REMARK    2  A    between atoms: C_2  and  C_15 
REMARK    3  A    between atoms: N_5  and  C_6 
REMARK    4  A    between atoms: C_6  and  C_7 
REMARK    5  A    between atoms: C_7  and  C_14 
REMARK    6  A    between atoms: C_8  and  C_9 
REMARK    7  A    between atoms: C_8  and  N_13 
REMARK    8  A    between atoms: C_9  and  C_25 
REMARK    9  A    between atoms: N_10  and  C_15 
REMARK   10  A    between atoms: C_14  and  C_15 
REMARK       I    between atoms: N_16  and  C_17 
REMARK   11  A    between atoms: C_17  and  C_25 
ROOT
HETATM    1  C           1     -21.356  -5.764  -5.676  0.00  0.00     0.249 C 
HETATM    2  N           1     -20.808  -6.679  -4.817  0.00  0.00    -0.345 N 
HETATM    3  O           1     -22.553  -5.605  -5.706  0.00  0.00    -0.271 OA
HETATM    4  H           1     -19.805  -6.811  -4.792  0.00  0.00     0.163 HD
ENDROOT
BRANCH   1   5
HETATM    5  C           1     -20.465  -4.954  -6.586  0.00  0.00     0.275 C 
BRANCH   5   6
HETATM    6  C           1     -21.261  -3.801  -7.182  0.00  0.00     0.052 C 
BRANCH   6   7
HETATM    7  C           1     -21.525  -4.075  -8.657  0.00  0.00     0.105 C 
BRANCH   7   8
HETATM    8  C           1     -22.985  -3.842  -8.959  0.00  0.00     0.215 C 
HETATM    9  N           1     -23.931  -4.097  -8.002  0.00  0.00    -0.370 N 
HETATM   10  H           1     -24.910  -3.941  -8.205  0.00  0.00     0.159 HD
HETATM   11  H           1     -23.652  -4.442  -7.093  0.00  0.00     0.159 HD
HETATM   12  O           1     -23.319  -3.429 -10.044  0.00  0.00    -0.274 OA
ENDBRANCH   7   8
ENDBRANCH   6   7
ENDBRANCH   5   6
BRANCH   5  13
HETATM   13  N           1     -19.952  -5.831  -7.690  0.00  0.00    -0.066 N 
HETATM   14  H           1     -19.100  -5.397  -8.112  0.00  0.00     0.275 HD
HETATM   15  H           1     -19.708  -6.771  -7.303  0.00  0.00     0.275 HD
HETATM   16  H           1     -20.689  -5.935  -8.423  0.00  0.00     0.275 HD
ENDBRANCH   5  13
ENDBRANCH   1   5
BRANCH   2  17
HETATM   17  C           1     -21.665  -7.457  -3.942  0.00  0.00     0.185 C 
BRANCH  17  18
HETATM   18  C           1     -21.641  -6.861  -2.556  0.00  0.00     0.196 C 
HETATM   19  O           1     -22.352  -5.867  -2.289  0.00  0.00    -0.646 OA
HETATM   20  O           1     -20.909  -7.359  -1.674  0.00  0.00    -0.646 OA
ENDBRANCH  17  18
BRANCH  17  21
HETATM   21  C           1     -21.163  -8.893  -3.887  0.00  0.00     0.038 C 
BRANCH  21  22
HETATM   22  C           1     -19.842  -8.999  -4.638  0.00  0.00     0.030 C 
BRANCH  22  23
HETATM   23  C           1     -18.722  -9.305  -3.654  0.00  0.00     0.230 C 
BRANCH  23  24
HETATM   24  N           1     -19.306  -9.830  -2.376  0.00  0.00    -0.079 N 
HETATM   25  H           1     -18.695 -10.590  -2.000  0.00  0.00     0.274 HD
HETATM   26  H           1     -19.367  -9.055  -1.678  0.00  0.00     0.274 HD
HETATM   27  H           1     -20.261 -10.211  -2.561  0.00  0.00     0.274 HD
ENDBRANCH  23  24
ENDBRANCH  22  23
ENDBRANCH  21  22
ENDBRANCH  17  21
ENDBRANCH   2  17
TORSDOF 11
ENDMDL
MODEL 8
REMARK VINA RESULT:      -5.8     14.087     16.799
REMARK  11 active torsions:
REMARK  status: ('A' for Active; 'I' for Inactive)
REMARK       I    between atoms: C_1  and  N_10 
REMARK    1  A    between atoms: C_1  and  C_8 
REMARK    2  A    between atoms: C_2  and  C_15 
REMARK    3  A    between atoms: N_5  and  C_6 
REMARK    4  A    between atoms: C_6  and  C_7 
REMARK    5  A    between atoms: C_7  and  C_14 
REMARK    6  A    between atoms: C_8  and  C_9 
REMARK    7  A    between atoms: C_8  and  N_13 
REMARK    8  A    between atoms: C_9  and  C_25 
REMARK    9  A    between atoms: N_10  and  C_15 
REMARK   10  A    between atoms: C_14  and  C_15 
REMARK       I    between atoms: N_16  and  C_17 
REMARK   11  A    between atoms: C_17  and  C_25 
ROOT
HETATM    1  C           1     -21.394  -5.166  -6.424  0.00  0.00     0.249 C 
HETATM    2  N           1     -21.810  -6.277  -5.741  0.00  0.00    -0.345 N 
HETATM    3  O           1     -20.510  -4.476  -5.975  0.00  0.00    -0.271 OA
HETATM    4  H           1     -22.550  -6.855  -6.117  0.00  0.00     0.163 HD
ENDROOT
BRANCH   1   5
HETATM    5  C           1     -22.040  -4.802  -7.739  0.00  0.00     0.275 C 
BRANCH   5   6
HETATM    6  C           1     -21.182  -3.772  -8.460  0.00  0.00     0.052 C 
BRANCH   6   7
HETATM    7  C           1     -20.395  -4.454  -9.571  0.00  0.00     0.105 C 
BRANCH   7   8
HETATM    8  C           1     -20.944  -4.029 -10.911  0.00  0.00     0.215 C 
HETATM    9  N           1     -20.405  -2.951 -11.561  0.00  0.00    -0.370 N 
HETATM   10  H           1     -20.773  -2.666 -12.459  0.00  0.00     0.159 HD
HETATM   11  H           1     -19.639  -2.438 -11.143  0.00  0.00     0.159 HD
HETATM   12  O           1     -21.858  -4.640 -11.412  0.00  0.00    -0.274 OA
ENDBRANCH   7   8
ENDBRANCH   6   7
ENDBRANCH   5   6
BRANCH   5  13
HETATM   13  N           1     -23.402  -4.227  -7.482  0.00  0.00    -0.066 N 
HETATM   14  H           1     -24.121  -4.981  -7.572  0.00  0.00     0.275 HD
HETATM   15  H           1     -23.436  -3.829  -6.516  0.00  0.00     0.275 HD
HETATM   16  H           1     -23.599  -3.474  -8.179  0.00  0.00     0.275 HD
ENDBRANCH   5  13
ENDBRANCH   1   5
BRANCH   2  17
HETATM   17  C           1     -21.188  -6.627  -4.478  0.00  0.00     0.185 C 
BRANCH  17  18
HETATM   18  C           1     -20.404  -7.906  -4.641  0.00  0.00     0.196 C 
HETATM   19  O           1     -20.483  -8.803  -3.773  0.00  0.00    -0.646 OA
HETATM   20  O           1     -19.674  -8.068  -5.642  0.00  0.00    -0.646 OA
ENDBRANCH  17  18
BRANCH  17  21
HETATM   21  C           1     -22.265  -6.822  -3.420  0.00  0.00     0.038 C 
BRANCH  21  22
HETATM   22  C           1     -21.875  -6.074  -2.152  0.00  0.00     0.030 C 
BRANCH  22  23
HETATM   23  C           1     -22.312  -6.875  -0.934  0.00  0.00     0.230 C 
BRANCH  23  24
HETATM   24  N           1     -21.813  -8.284  -1.055  0.00  0.00    -0.079 N 
HETATM   25  H           1     -20.847  -8.346  -0.660  0.00  0.00     0.274 HD
HETATM   26  H           1     -22.447  -8.924  -0.526  0.00  0.00     0.274 HD
HETATM   27  H           1     -21.795  -8.562  -2.061  0.00  0.00     0.274 HD
ENDBRANCH  23  24
ENDBRANCH  22  23
ENDBRANCH  21  22
ENDBRANCH  17  21
ENDBRANCH   2  17
TORSDOF 11
ENDMDL
MODEL 9
REMARK VINA RESULT:      -5.5     25.500     26.646
REMARK  11 active torsions:
REMARK  status: ('A' for Active; 'I' for Inactive)
REMARK       I    between atoms: C_1  and  N_10 
REMARK    1  A    between atoms: C_1  and  C_8 
REMARK    2  A    between atoms: C_2  and  C_15 
REMARK    3  A    between atoms: N_5  and  C_6 
REMARK    4  A    between atoms: C_6  and  C_7 
REMARK    5  A    between atoms: C_7  and  C_14 
REMARK    6  A    between atoms: C_8  and  C_9 
REMARK    7  A    between atoms: C_8  and  N_13 
REMARK    8  A    between atoms: C_9  and  C_25 
REMARK    9  A    between atoms: N_10  and  C_15 
REMARK   10  A    between atoms: C_14  and  C_15 
REMARK       I    between atoms: N_16  and  C_17 
REMARK   11  A    between atoms: C_17  and  C_25 
ROOT
HETATM    1  C           1     -12.559   6.744 -20.736  0.00  0.00     0.249 C 
HETATM    2  N           1     -12.462   7.519 -19.611  0.00  0.00    -0.345 N 
HETATM    3  O           1     -12.409   7.241 -21.827  0.00  0.00    -0.271 OA
HETATM    4  H           1     -12.587   7.102 -18.698  0.00  0.00     0.163 HD
ENDROOT
BRANCH   1   5
HETATM    5  C           1     -12.852   5.269 -20.614  0.00  0.00     0.275 C 
BRANCH   5   6
HETATM    6  C           1     -11.909   4.645 -19.595  0.00  0.00     0.052 C 
BRANCH   6   7
HETATM    7  C           1     -10.519   4.511 -20.204  0.00  0.00     0.105 C 
BRANCH   7   8
HETATM    8  C           1      -9.595   5.527 -19.580  0.00  0.00     0.215 C 
HETATM    9  N           1      -9.561   5.678 -18.219  0.00  0.00    -0.370 N 
HETATM   10  H           1      -8.942   6.359 -17.802  0.00  0.00     0.159 HD
HETATM   11  H           1     -10.157   5.108 -17.632  0.00  0.00     0.159 HD
HETATM   12  O           1      -8.883   6.206 -20.280  0.00  0.00    -0.274 OA
ENDBRANCH   7   8
ENDBRANCH   6   7
ENDBRANCH   5   6
BRANCH   5  13
HETATM   13  N           1     -12.655   4.610 -21.947  0.00  0.00    -0.066 N 
HETATM   14  H           1     -11.731   4.897 -22.344  0.00  0.00     0.275 HD
HETATM   15  H           1     -12.675   3.572 -21.829  0.00  0.00     0.275 HD
HETATM   16  H           1     -13.418   4.903 -22.597  0.00  0.00     0.275 HD
ENDBRANCH   5  13
ENDBRANCH   1   5
BRANCH   2  17
HETATM   17  C           1     -12.180   8.937 -19.729  0.00  0.00     0.185 C 
BRANCH  17  18
HETATM   18  C           1     -10.708   9.177 -19.499  0.00  0.00     0.196 C 
HETATM   19  O           1     -10.022   9.745 -20.377  0.00  0.00    -0.646 OA
HETATM   20  O           1     -10.174   8.808 -18.431  0.00  0.00    -0.646 OA
ENDBRANCH  17  18
BRANCH  17  21
HETATM   21  C           1     -12.988   9.702 -18.691  0.00  0.00     0.038 C 
BRANCH  21  22
HETATM   22  C           1     -13.715  10.859 -19.364  0.00  0.00     0.030 C 
BRANCH  22  23
HETATM   23  C           1     -14.619  11.549 -18.351  0.00  0.00     0.230 C 
BRANCH  23  24
HETATM   24  N           1     -14.921  10.606 -17.225  0.00  0.00    -0.079 N 
HETATM   25  H           1     -15.497  11.098 -16.504  0.00  0.00     0.274 HD
HETATM   26  H           1     -15.452   9.784 -17.592  0.00  0.00     0.274 HD
HETATM   27  H           1     -14.027  10.281 -16.793  0.00  0.00     0.274 HD
ENDBRANCH  23  24
ENDBRANCH  22  23
ENDBRANCH  21  22
ENDBRANCH  17  21
ENDBRANCH   2  17
TORSDOF 11
ENDMDL
