MODEL 1
REMARK VINA RESULT:      -5.9      0.000      0.000
REMARK  12 active torsions:
REMARK  status: ('A' for Active; 'I' for Inactive)
REMARK    1  A    between atoms: C_1  and  C_2 
REMARK    2  A    between atoms: C_1  and  C_20 
REMARK    3  A    between atoms: C_1  and  N_17 
REMARK    4  A    between atoms: C_2  and  C_3 
REMARK    5  A    between atoms: C_3  and  C_4 
REMARK    6  A    between atoms: C_4  and  C_5 
REMARK    7  A    between atoms: C_5  and  N_21 
REMARK    8  A    between atoms: N_10  and  C_15 
REMARK    9  A    between atoms: Se_12  and  C_13 
REMARK   10  A    between atoms: C_13  and  C_14 
REMARK   11  A    between atoms: C_14  and  C_15 
REMARK   12  A    between atoms: C_15  and  C_16 
REMARK       I    between atoms: C_16  and  N_17 
ROOT
HETATM    1  O           1     -21.265  -3.719  -7.365  0.00  0.00    -0.271 OA
HETATM    2  C           1     -21.563  -4.850  -7.667  0.00  0.00     0.249 C 
HETATM    3  N           1     -22.305  -5.085  -8.793  0.00  0.00    -0.345 N 
HETATM    4  H           1     -22.555  -6.033  -9.045  0.00  0.00     0.163 HD
ENDROOT
BRANCH   3   5
HETATM    5  C           1     -22.733  -3.977  -9.623  0.00  0.00     0.185 C 
BRANCH   5   6
HETATM    6  C           1     -22.211  -4.173 -11.040  0.00  0.00     0.036 C 
BRANCH   6   7
HETATM    7  C           1     -21.631  -2.861 -11.554  0.00  0.00     0.004 C 
BRANCH   7   8
HETATM    8  C           1     -22.664  -2.154 -12.421  0.00  0.00     0.027 C 
BRANCH   8   9
HETATM    9  C           1     -23.236  -3.137 -13.434  0.00  0.00     0.229 C 
BRANCH   9  10
HETATM   10  N           1     -22.497  -3.003 -14.733  0.00  0.00    -0.079 N 
HETATM   11  H           1     -22.529  -3.913 -15.246  0.00  0.00     0.274 HD
HETATM   12  H           1     -21.503  -2.744 -14.542  0.00  0.00     0.274 HD
HETATM   13  H           1     -22.945  -2.259 -15.314  0.00  0.00     0.274 HD
ENDBRANCH   9  10
ENDBRANCH   8   9
ENDBRANCH   7   8
ENDBRANCH   6   7
ENDBRANCH   5   6
BRANCH   5  14
HETATM   14  C           1     -24.241  -3.918  -9.646  0.00  0.00     0.196 C 
HETATM   15  O           1     -24.826  -2.820  -9.527  0.00  0.00    -0.646 OA
HETATM   16  O           1     -24.905  -4.967  -9.787  0.00  0.00    -0.646 OA
ENDBRANCH   5  14
ENDBRANCH   3   5
BRANCH   2  17
HETATM   17  C           1     -21.117  -6.004  -6.803  0.00  0.00     0.274 C 
BRANCH  17  18
HETATM   18  N           1     -19.690  -6.341  -7.117  0.00  0.00    -0.067 N 
HETATM   19  H           1     -19.385  -5.811  -7.964  0.00  0.00     0.275 HD
HETATM   20  H           1     -19.084  -6.079  -6.306  0.00  0.00     0.275 HD
HETATM   21  H           1     -19.606  -7.366  -7.299  0.00  0.00     0.275 HD
ENDBRANCH  17  18
BRANCH  17  22
HETATM   22  C           1     -21.236  -5.615  -5.334  0.00  0.00     0.042 C 
BRANCH  22  23
HETATM   23  C           1     -22.140  -6.611  -4.617  0.00  0.00     0.003 C 
BRANCH  23  24
HETATM   24 Se           1     -21.194  -7.364  -3.089  0.00  0.00     0.000 Se
HETATM   25  C           1     -22.176  -6.327  -1.763  0.00  0.00     0.000 C 
ENDBRANCH  23  24
ENDBRANCH  22  23
ENDBRANCH  17  22
ENDBRANCH   2  17
TORSDOF 12
ENDMDL
MODEL 2
REMARK VINA RESULT:      -5.6      2.150      2.883
REMARK  12 active torsions:
REMARK  status: ('A' for Active; 'I' for Inactive)
REMARK    1  A    between atoms: C_1  and  C_2 
REMARK    2  A    between atoms: C_1  and  C_20 
REMARK    3  A    between atoms: C_1  and  N_17 
REMARK    4  A    between atoms: C_2  and  C_3 
REMARK    5  A    between atoms: C_3  and  C_4 
REMARK    6  A    between atoms: C_4  and  C_5 
REMARK    7  A    between atoms: C_5  and  N_21 
REMARK    8  A    between atoms: N_10  and  C_15 
REMARK    9  A    between atoms: Se_12  and  C_13 
REMARK   10  A    between atoms: C_13  and  C_14 
REMARK   11  A    between atoms: C_14  and  C_15 
REMARK   12  A    between atoms: C_15  and  C_16 
REMARK       I    between atoms: C_16  and  N_17 
ROOT
HETATM    1  O           1     -20.881  -6.820  -7.151  0.00  0.00    -0.271 OA
HETATM    2  C           1     -21.379  -5.914  -6.527  0.00  0.00     0.249 C 
HETATM    3  N           1     -21.902  -4.834  -7.186  0.00  0.00    -0.345 N 
HETATM    4  H           1     -22.320  -4.076  -6.663  0.00  0.00     0.163 HD
ENDROOT
BRANCH   3   5
HETATM    5  C           1     -21.858  -4.778  -8.634  0.00  0.00     0.185 C 
BRANCH   5   6
HETATM    6  C           1     -22.914  -3.803  -9.136  0.00  0.00     0.036 C 
BRANCH   6   7
HETATM    7  C           1     -23.965  -4.560  -9.937  0.00  0.00     0.004 C 
BRANCH   7   8
HETATM    8  C           1     -23.454  -4.795 -11.352  0.00  0.00     0.027 C 
BRANCH   8   9
HETATM    9  C           1     -22.993  -3.474 -11.953  0.00  0.00     0.229 C 
BRANCH   9  10
HETATM   10  N           1     -21.693  -3.678 -12.673  0.00  0.00    -0.079 N 
HETATM   11  H           1     -21.711  -4.597 -13.169  0.00  0.00     0.274 HD
HETATM   12  H           1     -20.907  -3.669 -11.983  0.00  0.00     0.274 HD
HETATM   13  H           1     -21.554  -2.910 -13.367  0.00  0.00     0.274 HD
ENDBRANCH   9  10
ENDBRANCH   8   9
ENDBRANCH   7   8
ENDBRANCH   6   7
ENDBRANCH   5   6
BRANCH   5  14
HETATM   14  C           1     -20.492  -4.315  -9.078  0.00  0.00     0.196 C 
HETATM   15  O           1     -20.079  -4.596 -10.224  0.00  0.00    -0.646 OA
HETATM   16  O           1     -19.775  -3.648  -8.302  0.00  0.00    -0.646 OA
ENDBRANCH   5  14
ENDBRANCH   3   5
BRANCH   2  17
HETATM   17  C           1     -21.425  -5.972  -5.020  0.00  0.00     0.274 C 
BRANCH  17  18
HETATM   18  N           1     -22.843  -6.156  -4.570  0.00  0.00    -0.067 N 
HETATM   19  H           1     -23.464  -5.502  -5.098  0.00  0.00     0.275 HD
HETATM   20  H           1     -23.142  -7.142  -4.752  0.00  0.00     0.275 HD
HETATM   21  H           1     -22.915  -5.953  -3.548  0.00  0.00     0.275 HD
ENDBRANCH  17  18
BRANCH  17  22
HETATM   22  C           1     -20.581  -7.143  -4.529  0.00  0.00     0.042 C 
BRANCH  22  23
HETATM   23  C           1     -21.435  -8.052  -3.655  0.00  0.00     0.003 C 
BRANCH  23  24
HETATM   24 Se           1     -20.777  -7.998  -1.821  0.00  0.00     0.000 Se
HETATM   25  C           1     -22.219  -6.864  -1.164  0.00  0.00     0.000 C 
ENDBRANCH  23  24
ENDBRANCH  22  23
ENDBRANCH  17  22
ENDBRANCH   2  17
TORSDOF 12
ENDMDL
MODEL 3
REMARK VINA RESULT:      -5.5      3.176      4.475
REMARK  12 active torsions:
REMARK  status: ('A' for Active; 'I' for Inactive)
REMARK    1  A    between atoms: C_1  and  C_2 
REMARK    2  A    between atoms: C_1  and  C_20 
REMARK    3  A    between atoms: C_1  and  N_17 
REMARK    4  A    between atoms: C_2  and  C_3 
REMARK    5  A    between atoms: C_3  and  C_4 
REMARK    6  A    between atoms: C_4  and  C_5 
REMARK    7  A    between atoms: C_5  and  N_21 
REMARK    8  A    between atoms: N_10  and  C_15 
REMARK    9  A    between atoms: Se_12  and  C_13 
REMARK   10  A    between atoms: C_13  and  C_14 
REMARK   11  A    between atoms: C_14  and  C_15 
REMARK   12  A    between atoms: C_15  and  C_16 
REMARK       I    between atoms: C_16  and  N_17 
ROOT
HETATM    1  O           1     -22.038  -7.335  -4.895  0.00  0.00    -0.271 OA
HETATM    2  C           1     -21.491  -6.380  -4.398  0.00  0.00     0.249 C 
HETATM    3  N           1     -21.081  -5.338  -5.186  0.00  0.00    -0.345 N 
HETATM    4  H           1     -20.623  -4.538  -4.769  0.00  0.00     0.163 HD
ENDROOT
BRANCH   3   5
HETATM    5  C           1     -21.304  -5.382  -6.618  0.00  0.00     0.185 C 
BRANCH   5   6
HETATM    6  C           1     -21.864  -4.045  -7.085  0.00  0.00     0.036 C 
BRANCH   6   7
HETATM    7  C           1     -23.163  -4.276  -7.846  0.00  0.00     0.004 C 
BRANCH   7   8
HETATM    8  C           1     -22.893  -4.215  -9.343  0.00  0.00     0.027 C 
BRANCH   8   9
HETATM    9  C           1     -24.171  -4.545 -10.104  0.00  0.00     0.229 C 
BRANCH   9  10
HETATM   10  N           1     -25.283  -3.663  -9.620  0.00  0.00    -0.079 N 
HETATM   11  H           1     -24.943  -3.079  -8.823  0.00  0.00     0.274 HD
HETATM   12  H           1     -26.084  -4.255  -9.302  0.00  0.00     0.274 HD
HETATM   13  H           1     -25.599  -3.040 -10.398  0.00  0.00     0.274 HD
ENDBRANCH   9  10
ENDBRANCH   8   9
ENDBRANCH   7   8
ENDBRANCH   6   7
ENDBRANCH   5   6
BRANCH   5  14
HETATM   14  C           1     -19.997  -5.654  -7.322  0.00  0.00     0.196 C 
HETATM   15  O           1     -19.472  -4.768  -8.030  0.00  0.00    -0.646 OA
HETATM   16  O           1     -19.438  -6.765  -7.196  0.00  0.00    -0.646 OA
ENDBRANCH   5  14
ENDBRANCH   3   5
BRANCH   2  17
HETATM   17  C           1     -21.260  -6.335  -2.908  0.00  0.00     0.274 C 
BRANCH  17  18
HETATM   18  N           1     -22.513  -5.879  -2.222  0.00  0.00    -0.067 N 
HETATM   19  H           1     -22.484  -6.163  -1.216  0.00  0.00     0.275 HD
HETATM   20  H           1     -22.586  -4.838  -2.286  0.00  0.00     0.275 HD
HETATM   21  H           1     -23.342  -6.316  -2.683  0.00  0.00     0.275 HD
ENDBRANCH  17  18
BRANCH  17  22
HETATM   22  C           1     -20.885  -7.724  -2.408  0.00  0.00     0.042 C 
BRANCH  22  23
HETATM   23  C           1     -21.411  -7.913  -0.991  0.00  0.00     0.003 C 
BRANCH  23  24
HETATM   24 Se           1     -22.302  -9.641  -0.853  0.00  0.00     0.000 Se
HETATM   25  C           1     -21.881 -10.187  -2.675  0.00  0.00     0.000 C 
ENDBRANCH  23  24
ENDBRANCH  22  23
ENDBRANCH  17  22
ENDBRANCH   2  17
TORSDOF 12
ENDMDL
MODEL 4
REMARK VINA RESULT:      -5.4      3.612      7.939
REMARK  12 active torsions:
REMARK  status: ('A' for Active; 'I' for Inactive)
REMARK    1  A    between atoms: C_1  and  C_2 
REMARK    2  A    between atoms: C_1  and  C_20 
REMARK    3  A    between atoms: C_1  and  N_17 
REMARK    4  A    between atoms: C_2  and  C_3 
REMARK    5  A    between atoms: C_3  and  C_4 
REMARK    6  A    between atoms: C_4  and  C_5 
REMARK    7  A    between atoms: C_5  and  N_21 
REMARK    8  A    between atoms: N_10  and  C_15 
REMARK    9  A    between atoms: Se_12  and  C_13 
REMARK   10  A    between atoms: C_13  and  C_14 
REMARK   11  A    between atoms: C_14  and  C_15 
REMARK   12  A    between atoms: C_15  and  C_16 
REMARK       I    between atoms: C_16  and  N_17 
ROOT
HETATM    1  O           1     -19.505  -4.614  -6.073  0.00  0.00    -0.271 OA
HETATM    2  C           1     -20.657  -4.693  -6.426  0.00  0.00     0.249 C 
HETATM    3  N           1     -21.514  -5.545  -5.782  0.00  0.00    -0.345 N 
HETATM    4  H           1     -22.479  -5.611  -6.078  0.00  0.00     0.163 HD
ENDROOT
BRANCH   3   5
HETATM    5  C           1     -21.038  -6.351  -4.675  0.00  0.00     0.185 C 
BRANCH   5   6
HETATM    6  C           1     -22.165  -6.547  -3.669  0.00  0.00     0.036 C 
BRANCH   6   7
HETATM    7  C           1     -21.714  -6.055  -2.300  0.00  0.00     0.004 C 
BRANCH   7   8
HETATM    8  C           1     -22.144  -7.055  -1.234  0.00  0.00     0.027 C 
BRANCH   8   9
HETATM    9  C           1     -21.723  -8.457  -1.652  0.00  0.00     0.229 C 
BRANCH   9  10
HETATM   10  N           1     -20.227  -8.559  -1.628  0.00  0.00    -0.079 N 
HETATM   11  H           1     -19.948  -9.550  -1.450  0.00  0.00     0.274 HD
HETATM   12  H           1     -19.849  -7.948  -0.869  0.00  0.00     0.274 HD
HETATM   13  H           1     -19.841  -8.248  -2.549  0.00  0.00     0.274 HD
ENDBRANCH   9  10
ENDBRANCH   8   9
ENDBRANCH   7   8
ENDBRANCH   6   7
ENDBRANCH   5   6
BRANCH   5  14
HETATM   14  C           1     -20.584  -7.695  -5.191  0.00  0.00     0.196 C 
HETATM   15  O           1     -19.578  -8.247  -4.695  0.00  0.00    -0.646 OA
HETATM   16  O           1     -21.215  -8.257  -6.111  0.00  0.00    -0.646 OA
ENDBRANCH   5  14
ENDBRANCH   3   5
BRANCH   2  17
HETATM   17  C           1     -21.152  -3.854  -7.578  0.00  0.00     0.274 C 
BRANCH  17  18
HETATM   18  N           1     -20.341  -4.157  -8.802  0.00  0.00    -0.067 N 
HETATM   19  H           1     -19.335  -3.948  -8.614  0.00  0.00     0.275 HD
HETATM   20  H           1     -20.445  -5.169  -9.047  0.00  0.00     0.275 HD
HETATM   21  H           1     -20.676  -3.569  -9.598  0.00  0.00     0.275 HD
ENDBRANCH  17  18
BRANCH  17  22
HETATM   22  C           1     -22.617  -4.173  -7.848  0.00  0.00     0.042 C 
BRANCH  22  23
HETATM   23  C           1     -22.840  -4.304  -9.349  0.00  0.00     0.003 C 
BRANCH  23  24
HETATM   24 Se           1     -24.550  -3.498  -9.826  0.00  0.00     0.000 Se
HETATM   25  C           1     -24.058  -3.158 -11.681  0.00  0.00     0.000 C 
ENDBRANCH  23  24
ENDBRANCH  22  23
ENDBRANCH  17  22
ENDBRANCH   2  17
TORSDOF 12
ENDMDL
MODEL 5
REMARK VINA RESULT:      -5.1      3.930      8.267
REMARK  12 active torsions:
REMARK  status: ('A' for Active; 'I' for Inactive)
REMARK    1  A    between atoms: C_1  and  C_2 
REMARK    2  A    between atoms: C_1  and  C_20 
REMARK    3  A    between atoms: C_1  and  N_17 
REMARK    4  A    between atoms: C_2  and  C_3 
REMARK    5  A    between atoms: C_3  and  C_4 
REMARK    6  A    between atoms: C_4  and  C_5 
REMARK    7  A    between atoms: C_5  and  N_21 
REMARK    8  A    between atoms: N_10  and  C_15 
REMARK    9  A    between atoms: Se_12  and  C_13 
REMARK   10  A    between atoms: C_13  and  C_14 
REMARK   11  A    between atoms: C_14  and  C_15 
REMARK   12  A    between atoms: C_15  and  C_16 
REMARK       I    between atoms: C_16  and  N_17 
ROOT
HETATM    1  O           1     -19.747  -6.744  -6.879  0.00  0.00    -0.271 OA
HETATM    2  C           1     -20.813  -6.347  -6.475  0.00  0.00     0.249 C 
HETATM    3  N           1     -21.339  -6.854  -5.317  0.00  0.00    -0.345 N 
HETATM    4  H           1     -22.233  -6.522  -4.979  0.00  0.00     0.163 HD
ENDROOT
BRANCH   3   5
HETATM    5  C           1     -20.615  -7.869  -4.576  0.00  0.00     0.185 C 
BRANCH   5   6
HETATM    6  C           1     -20.687  -7.558  -3.087  0.00  0.00     0.036 C 
BRANCH   6   7
HETATM    7  C           1     -21.571  -6.337  -2.866  0.00  0.00     0.004 C 
BRANCH   7   8
HETATM    8  C           1     -22.287  -6.465  -1.528  0.00  0.00     0.027 C 
BRANCH   8   9
HETATM    9  C           1     -22.054  -7.857  -0.956  0.00  0.00     0.229 C 
BRANCH   9  10
HETATM   10  N           1     -22.039  -7.787   0.542  0.00  0.00    -0.079 N 
HETATM   11  H           1     -21.193  -7.261   0.857  0.00  0.00     0.274 HD
HETATM   12  H           1     -22.014  -8.755   0.936  0.00  0.00     0.274 HD
HETATM   13  H           1     -22.899  -7.297   0.877  0.00  0.00     0.274 HD
ENDBRANCH   9  10
ENDBRANCH   8   9
ENDBRANCH   7   8
ENDBRANCH   6   7
ENDBRANCH   5   6
BRANCH   5  14
HETATM   14  C           1     -21.234  -9.221  -4.839  0.00  0.00     0.196 C 
HETATM   15  O           1     -20.972  -9.832  -5.897  0.00  0.00    -0.646 OA
HETATM   16  O           1     -22.004  -9.730  -3.998  0.00  0.00    -0.646 OA
ENDBRANCH   5  14
ENDBRANCH   3   5
BRANCH   2  17
HETATM   17  C           1     -21.567  -5.291  -7.246  0.00  0.00     0.274 C 
BRANCH  17  18
HETATM   18  N           1     -22.705  -4.782  -6.413  0.00  0.00    -0.067 N 
HETATM   19  H           1     -22.917  -3.794  -6.678  0.00  0.00     0.275 HD
HETATM   20  H           1     -23.551  -5.375  -6.579  0.00  0.00     0.275 HD
HETATM   21  H           1     -22.444  -4.823  -5.402  0.00  0.00     0.275 HD
ENDBRANCH  17  18
BRANCH  17  22
HETATM   22  C           1     -20.628  -4.138  -7.580  0.00  0.00     0.042 C 
BRANCH  22  23
HETATM   23  C           1     -20.457  -4.045  -9.091  0.00  0.00     0.003 C 
BRANCH  23  24
HETATM   24 Se           1     -22.182  -4.309  -9.959  0.00  0.00     0.000 Se
HETATM   25  C           1     -21.506  -4.005 -11.762  0.00  0.00     0.000 C 
ENDBRANCH  23  24
ENDBRANCH  22  23
ENDBRANCH  17  22
ENDBRANCH   2  17
TORSDOF 12
ENDMDL
MODEL 6
REMARK VINA RESULT:      -5.0      3.797      7.549
REMARK  12 active torsions:
REMARK  status: ('A' for Active; 'I' for Inactive)
REMARK    1  A    between atoms: C_1  and  C_2 
REMARK    2  A    between atoms: C_1  and  C_20 
REMARK    3  A    between atoms: C_1  and  N_17 
REMARK    4  A    between atoms: C_2  and  C_3 
REMARK    5  A    between atoms: C_3  and  C_4 
REMARK    6  A    between atoms: C_4  and  C_5 
REMARK    7  A    between atoms: C_5  and  N_21 
REMARK    8  A    between atoms: N_10  and  C_15 
REMARK    9  A    between atoms: Se_12  and  C_13 
REMARK   10  A    between atoms: C_13  and  C_14 
REMARK   11  A    between atoms: C_14  and  C_15 
REMARK   12  A    between atoms: C_15  and  C_16 
REMARK       I    between atoms: C_16  and  N_17 
ROOT
HETATM    1  O           1     -22.622  -5.451  -5.883  0.00  0.00    -0.271 OA
HETATM    2  C           1     -21.424  -5.421  -5.737  0.00  0.00     0.249 C 
HETATM    3  N           1     -20.817  -6.290  -4.870  0.00  0.00    -0.345 N 
HETATM    4  H           1     -19.813  -6.265  -4.748  0.00  0.00     0.163 HD
ENDROOT
BRANCH   3   5
HETATM    5  C           1     -21.614  -7.245  -4.126  0.00  0.00     0.185 C 
BRANCH   5   6
HETATM    6  C           1     -20.991  -8.629  -4.247  0.00  0.00     0.036 C 
BRANCH   6   7
HETATM    7  C           1     -19.623  -8.514  -4.907  0.00  0.00     0.004 C 
BRANCH   7   8
HETATM    8  C           1     -18.588  -9.248  -4.065  0.00  0.00     0.027 C 
BRANCH   8   9
HETATM    9  C           1     -17.891 -10.299  -4.919  0.00  0.00     0.229 C 
BRANCH   9  10
HETATM   10  N           1     -18.223 -10.071  -6.364  0.00  0.00    -0.079 N 
HETATM   11  H           1     -17.342  -9.902  -6.901  0.00  0.00     0.274 HD
HETATM   12  H           1     -18.849  -9.239  -6.450  0.00  0.00     0.274 HD
HETATM   13  H           1     -18.708 -10.913  -6.748  0.00  0.00     0.274 HD
ENDBRANCH   9  10
ENDBRANCH   8   9
ENDBRANCH   7   8
ENDBRANCH   6   7
ENDBRANCH   5   6
BRANCH   5  14
HETATM   14  C           1     -21.661  -6.839  -2.673  0.00  0.00     0.196 C 
HETATM   15  O           1     -22.416  -5.912  -2.307  0.00  0.00    -0.646 OA
HETATM   16  O           1     -20.947  -7.430  -1.835  0.00  0.00    -0.646 OA
ENDBRANCH   5  14
ENDBRANCH   3   5
BRANCH   2  17
HETATM   17  C           1     -20.594  -4.426  -6.511  0.00  0.00     0.274 C 
BRANCH  17  18
HETATM   18  N           1     -19.411  -5.124  -7.113  0.00  0.00    -0.067 N 
HETATM   19  H           1     -18.551  -4.552  -6.957  0.00  0.00     0.275 HD
HETATM   20  H           1     -19.292  -6.060  -6.662  0.00  0.00     0.275 HD
HETATM   21  H           1     -19.564  -5.249  -8.139  0.00  0.00     0.275 HD
ENDBRANCH  17  18
BRANCH  17  22
HETATM   22  C           1     -21.439  -3.812  -7.620  0.00  0.00     0.042 C 
BRANCH  22  23
HETATM   23  C           1     -20.881  -4.230  -8.975  0.00  0.00     0.003 C 
BRANCH  23  24
HETATM   24 Se           1     -22.321  -4.271 -10.287  0.00  0.00     0.000 Se
HETATM   25  C           1     -23.736  -3.950  -8.986  0.00  0.00     0.000 C 
ENDBRANCH  23  24
ENDBRANCH  22  23
ENDBRANCH  17  22
ENDBRANCH   2  17
TORSDOF 12
ENDMDL
MODEL 7
REMARK VINA RESULT:      -4.9      3.090      4.229
REMARK  12 active torsions:
REMARK  status: ('A' for Active; 'I' for Inactive)
REMARK    1  A    between atoms: C_1  and  C_2 
REMARK    2  A    between atoms: C_1  and  C_20 
REMARK    3  A    between atoms: C_1  and  N_17 
REMARK    4  A    between atoms: C_2  and  C_3 
REMARK    5  A    between atoms: C_3  and  C_4 
REMARK    6  A    between atoms: C_4  and  C_5 
REMARK    7  A    between atoms: C_5  and  N_21 
REMARK    8  A    between atoms: N_10  and  C_15 
REMARK    9  A    between atoms: Se_12  and  C_13 
REMARK   10  A    between atoms: C_13  and  C_14 
REMARK   11  A    between atoms: C_14  and  C_15 
REMARK   12  A    between atoms: C_15  and  C_16 
REMARK       I    between atoms: C_16  and  N_17 
ROOT
HETATM    1  O           1     -20.658  -8.011  -5.889  0.00  0.00    -0.271 OA
HETATM    2  C           1     -21.358  -7.345  -5.164  0.00  0.00     0.249 C 
HETATM    3  N           1     -21.692  -6.067  -5.521  0.00  0.00    -0.345 N 
HETATM    4  H           1     -22.279  -5.509  -4.914  0.00  0.00     0.163 HD
ENDROOT
BRANCH   3   5
HETATM    5  C           1     -21.207  -5.512  -6.769  0.00  0.00     0.185 C 
BRANCH   5   6
HETATM    6  C           1     -22.232  -4.532  -7.322  0.00  0.00     0.036 C 
BRANCH   6   7
HETATM    7  C           1     -22.466  -4.819  -8.799  0.00  0.00     0.004 C 
BRANCH   7   8
HETATM    8  C           1     -21.832  -3.717  -9.638  0.00  0.00     0.027 C 
BRANCH   8   9
HETATM    9  C           1     -20.718  -4.305 -10.494  0.00  0.00     0.229 C 
BRANCH   9  10
HETATM   10  N           1     -20.479  -3.420 -11.681  0.00  0.00    -0.079 N 
HETATM   11  H           1     -21.365  -2.924 -11.930  0.00  0.00     0.274 HD
HETATM   12  H           1     -20.165  -4.001 -12.491  0.00  0.00     0.274 HD
HETATM   13  H           1     -19.740  -2.718 -11.449  0.00  0.00     0.274 HD
ENDBRANCH   9  10
ENDBRANCH   8   9
ENDBRANCH   7   8
ENDBRANCH   6   7
ENDBRANCH   5   6
BRANCH   5  14
HETATM   14  C           1     -19.902  -4.794  -6.527  0.00  0.00     0.196 C 
HETATM   15  O           1     -19.093  -4.632  -7.467  0.00  0.00    -0.646 OA
HETATM   16  O           1     -19.631  -4.357  -5.388  0.00  0.00    -0.646 OA
ENDBRANCH   5  14
ENDBRANCH   3   5
BRANCH   2  17
HETATM   17  C           1     -21.863  -7.922  -3.864  0.00  0.00     0.274 C 
BRANCH  17  18
HETATM   18  N           1     -21.670  -9.409  -3.870  0.00  0.00    -0.067 N 
HETATM   19  H           1     -20.904  -9.659  -4.535  0.00  0.00     0.275 HD
HETATM   20  H           1     -21.412  -9.730  -2.908  0.00  0.00     0.275 HD
HETATM   21  H           1     -22.556  -9.875  -4.168  0.00  0.00     0.275 HD
ENDBRANCH  17  18
BRANCH  17  22
HETATM   22  C           1     -21.089  -7.314  -2.702  0.00  0.00     0.042 C 
BRANCH  22  23
HETATM   23  C           1     -22.033  -7.084  -1.528  0.00  0.00     0.003 C 
BRANCH  23  24
HETATM   24 Se           1     -21.521  -8.241  -0.045  0.00  0.00     0.000 Se
HETATM   25  C           1     -22.883  -9.586  -0.412  0.00  0.00     0.000 C 
ENDBRANCH  23  24
ENDBRANCH  22  23
ENDBRANCH  17  22
ENDBRANCH   2  17
TORSDOF 12
ENDMDL
MODEL 8
REMARK VINA RESULT:      -4.8      4.044      8.522
REMARK  12 active torsions:
REMARK  status: ('A' for Active; 'I' for Inactive)
REMARK    1  A    between atoms: C_1  and  C_2 
REMARK    2  A    between atoms: C_1  and  C_20 
REMARK    3  A    between atoms: C_1  and  N_17 
REMARK    4  A    between atoms: C_2  and  C_3 
REMARK    5  A    between atoms: C_3  and  C_4 
REMARK    6  A    between atoms: C_4  and  C_5 
REMARK    7  A    between atoms: C_5  and  N_21 
REMARK    8  A    between atoms: N_10  and  C_15 
REMARK    9  A    between atoms: Se_12  and  C_13 
REMARK   10  A    between atoms: C_13  and  C_14 
REMARK   11  A    between atoms: C_14  and  C_15 
REMARK   12  A    between atoms: C_15  and  C_16 
REMARK       I    between atoms: C_16  and  N_17 
ROOT
HETATM    1  O           1     -22.815  -5.878  -5.506  0.00  0.00    -0.271 OA
HETATM    2  C           1     -21.608  -5.916  -5.544  0.00  0.00     0.249 C 
HETATM    3  N           1     -20.922  -6.747  -4.700  0.00  0.00    -0.345 N 
HETATM    4  H           1     -19.911  -6.778  -4.732  0.00  0.00     0.163 HD
ENDROOT
BRANCH   3   5
HETATM    5  C           1     -21.644  -7.581  -3.759  0.00  0.00     0.185 C 
BRANCH   5   6
HETATM    6  C           1     -20.992  -8.956  -3.696  0.00  0.00     0.036 C 
BRANCH   6   7
HETATM    7  C           1     -22.071 -10.026  -3.606  0.00  0.00     0.004 C 
BRANCH   7   8
HETATM    8  C           1     -21.568 -11.186  -2.757  0.00  0.00     0.027 C 
BRANCH   8   9
HETATM    9  C           1     -21.536 -10.767  -1.293  0.00  0.00     0.229 C 
BRANCH   9  10
HETATM   10  N           1     -22.810 -10.054  -0.948  0.00  0.00    -0.079 N 
HETATM   11  H           1     -23.569 -10.366  -1.594  0.00  0.00     0.274 HD
HETATM   12  H           1     -22.669  -9.023  -1.047  0.00  0.00     0.274 HD
HETATM   13  H           1     -23.078 -10.275   0.037  0.00  0.00     0.274 HD
ENDBRANCH   9  10
ENDBRANCH   8   9
ENDBRANCH   7   8
ENDBRANCH   6   7
ENDBRANCH   5   6
BRANCH   5  14
HETATM   14  C           1     -21.609  -6.943  -2.391  0.00  0.00     0.196 C 
HETATM   15  O           1     -22.282  -5.915  -2.164  0.00  0.00    -0.646 OA
HETATM   16  O           1     -20.909  -7.444  -1.486  0.00  0.00    -0.646 OA
ENDBRANCH   5  14
ENDBRANCH   3   5
BRANCH   2  17
HETATM   17  C           1     -20.857  -5.048  -6.524  0.00  0.00     0.274 C 
BRANCH  17  18
HETATM   18  N           1     -20.243  -5.910  -7.586  0.00  0.00    -0.067 N 
HETATM   19  H           1     -20.879  -5.949  -8.414  0.00  0.00     0.275 HD
HETATM   20  H           1     -19.323  -5.506  -7.874  0.00  0.00     0.275 HD
HETATM   21  H           1     -20.099  -6.875  -7.212  0.00  0.00     0.275 HD
ENDBRANCH  17  18
BRANCH  17  22
HETATM   22  C           1     -21.818  -4.057  -7.167  0.00  0.00     0.042 C 
BRANCH  22  23
HETATM   23  C           1     -21.932  -4.354  -8.657  0.00  0.00     0.003 C 
BRANCH  23  24
HETATM   24 Se           1     -23.678  -3.777  -9.304  0.00  0.00     0.000 Se
HETATM   25  C           1     -23.686  -4.977 -10.840  0.00  0.00     0.000 C 
ENDBRANCH  23  24
ENDBRANCH  22  23
ENDBRANCH  17  22
ENDBRANCH   2  17
TORSDOF 12
ENDMDL
MODEL 9
REMARK VINA RESULT:      -4.6      6.262      8.808
REMARK  12 active torsions:
REMARK  status: ('A' for Active; 'I' for Inactive)
REMARK    1  A    between atoms: C_1  and  C_2 
REMARK    2  A    between atoms: C_1  and  C_20 
REMARK    3  A    between atoms: C_1  and  N_17 
REMARK    4  A    between atoms: C_2  and  C_3 
REMARK    5  A    between atoms: C_3  and  C_4 
REMARK    6  A    between atoms: C_4  and  C_5 
REMARK    7  A    between atoms: C_5  and  N_21 
REMARK    8  A    between atoms: N_10  and  C_15 
REMARK    9  A    between atoms: Se_12  and  C_13 
REMARK   10  A    between atoms: C_13  and  C_14 
REMARK   11  A    between atoms: C_14  and  C_15 
REMARK   12  A    between atoms: C_15  and  C_16 
REMARK       I    between atoms: C_16  and  N_17 
ROOT
HETATM    1  O           1     -20.978 -10.260  -3.224  0.00  0.00    -0.271 OA
HETATM    2  C           1     -20.009  -9.587  -3.482  0.00  0.00     0.249 C 
HETATM    3  N           1     -20.145  -8.240  -3.688  0.00  0.00    -0.345 N 
HETATM    4  H           1     -19.334  -7.677  -3.904  0.00  0.00     0.163 HD
ENDROOT
BRANCH   3   5
HETATM    5  C           1     -21.454  -7.622  -3.596  0.00  0.00     0.185 C 
BRANCH   5   6
HETATM    6  C           1     -21.392  -6.446  -2.631  0.00  0.00     0.036 C 
BRANCH   6   7
HETATM    7  C           1     -22.316  -6.710  -1.449  0.00  0.00     0.004 C 
BRANCH   7   8
HETATM    8  C           1     -21.677  -7.735  -0.522  0.00  0.00     0.027 C 
BRANCH   8   9
HETATM    9  C           1     -22.735  -8.721  -0.046  0.00  0.00     0.229 C 
BRANCH   9  10
HETATM   10  N           1     -22.774  -9.900  -0.972  0.00  0.00    -0.079 N 
HETATM   11  H           1     -23.525 -10.559  -0.666  0.00  0.00     0.274 HD
HETATM   12  H           1     -21.850 -10.389  -0.951  0.00  0.00     0.274 HD
HETATM   13  H           1     -22.972  -9.574  -1.945  0.00  0.00     0.274 HD
ENDBRANCH   9  10
ENDBRANCH   8   9
ENDBRANCH   7   8
ENDBRANCH   6   7
ENDBRANCH   5   6
BRANCH   5  14
HETATM   14  C           1     -21.876  -7.133  -4.960  0.00  0.00     0.196 C 
HETATM   15  O           1     -22.702  -6.200  -5.061  0.00  0.00    -0.646 OA
HETATM   16  O           1     -21.399  -7.659  -5.988  0.00  0.00    -0.646 OA
ENDBRANCH   5  14
ENDBRANCH   3   5
BRANCH   2  17
HETATM   17  C           1     -18.647 -10.230  -3.578  0.00  0.00     0.274 C 
BRANCH  17  18
HETATM   18  N           1     -18.259 -10.365  -5.020  0.00  0.00    -0.067 N 
HETATM   19  H           1     -18.528 -11.313  -5.367  0.00  0.00     0.275 HD
HETATM   20  H           1     -18.754  -9.636  -5.583  0.00  0.00     0.275 HD
HETATM   21  H           1     -17.226 -10.239  -5.117  0.00  0.00     0.275 HD
ENDBRANCH  17  18
BRANCH  17  22
HETATM   22  C           1     -17.623  -9.364  -2.855  0.00  0.00     0.042 C 
BRANCH  22  23
HETATM   23  C           1     -16.220  -9.862  -3.178  0.00  0.00     0.003 C 
BRANCH  23  24
HETATM   24 Se           1     -15.872 -11.509  -2.196  0.00  0.00     0.000 Se
HETATM   25  C           1     -14.634 -12.228  -3.518  0.00  0.00     0.000 C 
ENDBRANCH  23  24
ENDBRANCH  22  23
ENDBRANCH  17  22
ENDBRANCH   2  17
TORSDOF 12
ENDMDL
