MODEL 1
REMARK VINA RESULT:      -6.4      0.000      0.000
REMARK  8 active torsions:
REMARK  status: ('A' for Active; 'I' for Inactive)
REMARK    1  A    between atoms: N_9  and  C_19 
REMARK       I    between atoms: N_9  and  C_10 
REMARK    2  A    between atoms: C_10  and  C_11 
REMARK    3  A    between atoms: C_11  and  C_12 
REMARK    4  A    between atoms: C_11  and  N_15 
REMARK    5  A    between atoms: C_12  and  C_13 
REMARK    6  A    between atoms: C_18  and  C_19 
REMARK    7  A    between atoms: C_19  and  C_20 
REMARK    8  A    between atoms: C_20  and  C_22 
REMARK       I    between atoms: N_21  and  C_22 
ROOT
HETATM    1  H           1     -24.256  -4.587  -8.428  0.00  0.00     0.163 HD
HETATM    2  N           1     -23.385  -4.183  -8.748  0.00  0.00    -0.344 N 
HETATM    3  C           1     -22.295  -4.159  -7.919  0.00  0.00     0.249 C 
HETATM    4  O           1     -21.255  -3.677  -8.300  0.00  0.00    -0.271 OA
ENDROOT
BRANCH   2   5
HETATM    5  C           1     -23.290  -3.630 -10.085  0.00  0.00     0.194 C 
BRANCH   5   6
HETATM    6  C           1     -24.668  -3.263 -10.576  0.00  0.00     0.197 C 
HETATM    7  O           1     -25.608  -3.133  -9.762  0.00  0.00    -0.646 OA
HETATM    8  O           1     -24.870  -3.088 -11.797  0.00  0.00    -0.646 OA
ENDBRANCH   5   6
BRANCH   5   9
HETATM    9  C           1     -22.676  -4.666 -11.018  0.00  0.00     0.138 C 
BRANCH   9  10
HETATM   10  C           1     -21.603  -4.014 -11.856  0.00  0.00     0.217 C 
HETATM   11  N           1     -21.923  -3.457 -13.066  0.00  0.00    -0.370 N 
HETATM   12  H           1     -22.878  -3.483 -13.398  0.00  0.00     0.159 HD
HETATM   13  H           1     -21.203  -3.021 -13.628  0.00  0.00     0.159 HD
HETATM   14  O           1     -20.462  -3.984 -11.460  0.00  0.00    -0.274 OA
ENDBRANCH   9  10
ENDBRANCH   5   9
ENDBRANCH   2   5
BRANCH   3  15
HETATM   15  C           1     -22.394  -4.735  -6.528  0.00  0.00     0.284 C 
BRANCH  15  16
HETATM   16  C           1     -21.483  -5.950  -6.415  0.00  0.00     0.155 C 
BRANCH  16  17
HETATM   17  C           1     -21.764  -6.673  -5.121  0.00  0.00     0.175 C 
HETATM   18  O           1     -21.993  -6.022  -4.078  0.00  0.00    -0.648 OA
HETATM   19  O           1     -21.769  -7.923  -5.091  0.00  0.00    -0.648 OA
ENDBRANCH  16  17
ENDBRANCH  15  16
BRANCH  15  20
HETATM   20  N           1     -23.811  -5.147  -6.257  0.00  0.00    -0.066 N 
HETATM   21  H           1     -24.211  -4.543  -5.504  0.00  0.00     0.275 HD
HETATM   22  H           1     -24.378  -5.038  -7.128  0.00  0.00     0.275 HD
HETATM   23  H           1     -23.831  -6.145  -5.949  0.00  0.00     0.275 HD
ENDBRANCH  15  20
ENDBRANCH   3  15
TORSDOF 8
ENDMDL
MODEL 2
REMARK VINA RESULT:      -6.1      1.900      3.069
REMARK  8 active torsions:
REMARK  status: ('A' for Active; 'I' for Inactive)
REMARK    1  A    between atoms: N_9  and  C_19 
REMARK       I    between atoms: N_9  and  C_10 
REMARK    2  A    between atoms: C_10  and  C_11 
REMARK    3  A    between atoms: C_11  and  C_12 
REMARK    4  A    between atoms: C_11  and  N_15 
REMARK    5  A    between atoms: C_12  and  C_13 
REMARK    6  A    between atoms: C_18  and  C_19 
REMARK    7  A    between atoms: C_19  and  C_20 
REMARK    8  A    between atoms: C_20  and  C_22 
REMARK       I    between atoms: N_21  and  C_22 
ROOT
HETATM    1  H           1     -22.444  -3.353  -9.101  0.00  0.00     0.163 HD
HETATM    2  N           1     -21.855  -3.944  -9.674  0.00  0.00    -0.344 N 
HETATM    3  C           1     -20.607  -4.299  -9.236  0.00  0.00     0.249 C 
HETATM    4  O           1     -19.904  -5.004  -9.920  0.00  0.00    -0.271 OA
ENDROOT
BRANCH   2   5
HETATM    5  C           1     -22.333  -4.417 -10.959  0.00  0.00     0.194 C 
BRANCH   5   6
HETATM    6  C           1     -22.286  -3.288 -11.959  0.00  0.00     0.197 C 
HETATM    7  O           1     -21.680  -2.232 -11.681  0.00  0.00    -0.646 OA
HETATM    8  O           1     -22.853  -3.411 -13.066  0.00  0.00    -0.646 OA
ENDBRANCH   5   6
BRANCH   5   9
HETATM    9  C           1     -23.767  -4.911 -10.815  0.00  0.00     0.138 C 
BRANCH   9  10
HETATM   10  C           1     -24.564  -3.912 -10.012  0.00  0.00     0.217 C 
HETATM   11  N           1     -24.429  -3.865  -8.650  0.00  0.00    -0.370 N 
HETATM   12  H           1     -23.795  -4.501  -8.182  0.00  0.00     0.159 HD
HETATM   13  H           1     -24.963  -3.196  -8.111  0.00  0.00     0.159 HD
HETATM   14  O           1     -25.320  -3.153 -10.570  0.00  0.00    -0.274 OA
ENDBRANCH   9  10
ENDBRANCH   5   9
ENDBRANCH   2   5
BRANCH   3  15
HETATM   15  C           1     -20.109  -3.807  -7.899  0.00  0.00     0.284 C 
BRANCH  15  16
HETATM   16  C           1     -19.360  -4.928  -7.192  0.00  0.00     0.155 C 
BRANCH  16  17
HETATM   17  C           1     -20.317  -5.701  -6.319  0.00  0.00     0.175 C 
HETATM   18  O           1     -20.916  -6.699  -6.777  0.00  0.00    -0.648 OA
HETATM   19  O           1     -20.513  -5.344  -5.136  0.00  0.00    -0.648 OA
ENDBRANCH  16  17
ENDBRANCH  15  16
BRANCH  15  20
HETATM   20  N           1     -21.276  -3.378  -7.059  0.00  0.00    -0.066 N 
HETATM   21  H           1     -21.265  -2.339  -6.952  0.00  0.00     0.275 HD
HETATM   22  H           1     -22.166  -3.670  -7.524  0.00  0.00     0.275 HD
HETATM   23  H           1     -21.210  -3.826  -6.117  0.00  0.00     0.275 HD
ENDBRANCH  15  20
ENDBRANCH   3  15
TORSDOF 8
ENDMDL
MODEL 3
REMARK VINA RESULT:      -6.1      1.938      6.103
REMARK  8 active torsions:
REMARK  status: ('A' for Active; 'I' for Inactive)
REMARK    1  A    between atoms: N_9  and  C_19 
REMARK       I    between atoms: N_9  and  C_10 
REMARK    2  A    between atoms: C_10  and  C_11 
REMARK    3  A    between atoms: C_11  and  C_12 
REMARK    4  A    between atoms: C_11  and  N_15 
REMARK    5  A    between atoms: C_12  and  C_13 
REMARK    6  A    between atoms: C_18  and  C_19 
REMARK    7  A    between atoms: C_19  and  C_20 
REMARK    8  A    between atoms: C_20  and  C_22 
REMARK       I    between atoms: N_21  and  C_22 
ROOT
HETATM    1  H           1     -22.749  -5.556  -6.899  0.00  0.00     0.163 HD
HETATM    2  N           1     -22.105  -4.841  -7.212  0.00  0.00    -0.344 N 
HETATM    3  C           1     -22.401  -4.088  -8.317  0.00  0.00     0.249 C 
HETATM    4  O           1     -21.633  -3.234  -8.690  0.00  0.00    -0.271 OA
ENDROOT
BRANCH   2   5
HETATM    5  C           1     -20.869  -4.611  -6.490  0.00  0.00     0.194 C 
BRANCH   5   6
HETATM    6  C           1     -19.715  -5.192  -7.270  0.00  0.00     0.197 C 
HETATM    7  O           1     -19.748  -6.387  -7.638  0.00  0.00    -0.646 OA
HETATM    8  O           1     -18.728  -4.479  -7.549  0.00  0.00    -0.646 OA
ENDBRANCH   5   6
BRANCH   5   9
HETATM    9  C           1     -20.949  -5.282  -5.124  0.00  0.00     0.138 C 
BRANCH   9  10
HETATM   10  C           1     -21.961  -6.401  -5.172  0.00  0.00     0.217 C 
HETATM   11  N           1     -21.556  -7.679  -5.449  0.00  0.00    -0.370 N 
HETATM   12  H           1     -20.579  -7.874  -5.622  0.00  0.00     0.159 HD
HETATM   13  H           1     -22.235  -8.429  -5.481  0.00  0.00     0.159 HD
HETATM   14  O           1     -23.129  -6.168  -4.966  0.00  0.00    -0.274 OA
ENDBRANCH   9  10
ENDBRANCH   5   9
ENDBRANCH   2   5
BRANCH   3  15
HETATM   15  C           1     -23.688  -4.327  -9.069  0.00  0.00     0.284 C 
BRANCH  15  16
HETATM   16  C           1     -23.379  -4.566 -10.541  0.00  0.00     0.155 C 
BRANCH  16  17
HETATM   17  C           1     -23.796  -3.360 -11.345  0.00  0.00     0.175 C 
HETATM   18  O           1     -22.950  -2.494 -11.658  0.00  0.00    -0.648 OA
HETATM   19  O           1     -24.987  -3.226 -11.700  0.00  0.00    -0.648 OA
ENDBRANCH  16  17
ENDBRANCH  15  16
BRANCH  15  20
HETATM   20  N           1     -24.575  -3.125  -8.934  0.00  0.00    -0.066 N 
HETATM   21  H           1     -24.337  -2.430  -9.677  0.00  0.00     0.275 HD
HETATM   22  H           1     -25.574  -3.416  -9.038  0.00  0.00     0.275 HD
HETATM   23  H           1     -24.434  -2.691  -7.994  0.00  0.00     0.275 HD
ENDBRANCH  15  20
ENDBRANCH   3  15
TORSDOF 8
ENDMDL
MODEL 4
REMARK VINA RESULT:      -5.6      1.744      6.353
REMARK  8 active torsions:
REMARK  status: ('A' for Active; 'I' for Inactive)
REMARK    1  A    between atoms: N_9  and  C_19 
REMARK       I    between atoms: N_9  and  C_10 
REMARK    2  A    between atoms: C_10  and  C_11 
REMARK    3  A    between atoms: C_11  and  C_12 
REMARK    4  A    between atoms: C_11  and  N_15 
REMARK    5  A    between atoms: C_12  and  C_13 
REMARK    6  A    between atoms: C_18  and  C_19 
REMARK    7  A    between atoms: C_19  and  C_20 
REMARK    8  A    between atoms: C_20  and  C_22 
REMARK       I    between atoms: N_21  and  C_22 
ROOT
HETATM    1  H           1     -20.886  -5.725  -9.421  0.00  0.00     0.163 HD
HETATM    2  N           1     -21.403  -4.992  -8.952  0.00  0.00    -0.344 N 
HETATM    3  C           1     -22.206  -4.150  -9.675  0.00  0.00     0.249 C 
HETATM    4  O           1     -22.823  -3.275  -9.116  0.00  0.00    -0.271 OA
ENDROOT
BRANCH   2   5
HETATM    5  C           1     -21.293  -4.831  -7.515  0.00  0.00     0.194 C 
BRANCH   5   6
HETATM    6  C           1     -19.878  -4.444  -7.159  0.00  0.00     0.197 C 
HETATM    7  O           1     -19.123  -3.964  -8.032  0.00  0.00    -0.646 OA
HETATM    8  O           1     -19.462  -4.603  -5.992  0.00  0.00    -0.646 OA
ENDBRANCH   5   6
BRANCH   5   9
HETATM    9  C           1     -21.648  -6.145  -6.831  0.00  0.00     0.138 C 
BRANCH   9  10
HETATM   10  C           1     -22.692  -5.893  -5.770  0.00  0.00     0.217 C 
HETATM   11  N           1     -23.859  -5.253  -6.096  0.00  0.00    -0.370 N 
HETATM   12  H           1     -24.020  -4.949  -7.048  0.00  0.00     0.159 HD
HETATM   13  H           1     -24.558  -5.084  -5.386  0.00  0.00     0.159 HD
HETATM   14  O           1     -22.500  -6.256  -4.634  0.00  0.00    -0.274 OA
ENDBRANCH   9  10
ENDBRANCH   5   9
ENDBRANCH   2   5
BRANCH   3  15
HETATM   15  C           1     -22.321  -4.317 -11.170  0.00  0.00     0.284 C 
BRANCH  15  16
HETATM   16  C           1     -22.689  -2.982 -11.803  0.00  0.00     0.155 C 
BRANCH  16  17
HETATM   17  C           1     -24.072  -3.072 -12.400  0.00  0.00     0.175 C 
HETATM   18  O           1     -24.214  -3.190 -13.636  0.00  0.00    -0.648 OA
HETATM   19  O           1     -25.077  -3.028 -11.657  0.00  0.00    -0.648 OA
ENDBRANCH  16  17
ENDBRANCH  15  16
BRANCH  15  20
HETATM   20  N           1     -23.386  -5.327 -11.480  0.00  0.00    -0.066 N 
HETATM   21  H           1     -24.030  -5.417 -10.662  0.00  0.00     0.275 HD
HETATM   22  H           1     -23.929  -5.016 -12.317  0.00  0.00     0.275 HD
HETATM   23  H           1     -22.941  -6.253 -11.676  0.00  0.00     0.275 HD
ENDBRANCH  15  20
ENDBRANCH   3  15
TORSDOF 8
ENDMDL
MODEL 5
REMARK VINA RESULT:      -5.5     18.056     20.163
REMARK  8 active torsions:
REMARK  status: ('A' for Active; 'I' for Inactive)
REMARK    1  A    between atoms: N_9  and  C_19 
REMARK       I    between atoms: N_9  and  C_10 
REMARK    2  A    between atoms: C_10  and  C_11 
REMARK    3  A    between atoms: C_11  and  C_12 
REMARK    4  A    between atoms: C_11  and  N_15 
REMARK    5  A    between atoms: C_12  and  C_13 
REMARK    6  A    between atoms: C_18  and  C_19 
REMARK    7  A    between atoms: C_19  and  C_20 
REMARK    8  A    between atoms: C_20  and  C_22 
REMARK       I    between atoms: N_21  and  C_22 
ROOT
HETATM    1  H           1     -10.914   6.383 -21.608  0.00  0.00     0.163 HD
HETATM    2  N           1     -11.666   6.141 -20.975  0.00  0.00    -0.344 N 
HETATM    3  C           1     -12.329   7.124 -20.291  0.00  0.00     0.249 C 
HETATM    4  O           1     -13.226   6.835 -19.535  0.00  0.00    -0.271 OA
ENDROOT
BRANCH   2   5
HETATM    5  C           1     -12.041   4.752 -20.793  0.00  0.00     0.194 C 
BRANCH   5   6
HETATM    6  C           1     -10.952   4.031 -20.037  0.00  0.00     0.197 C 
HETATM    7  O           1     -10.077   4.684 -19.429  0.00  0.00    -0.646 OA
HETATM    8  O           1     -10.927   2.782 -20.018  0.00  0.00    -0.646 OA
ENDBRANCH   5   6
BRANCH   5   9
HETATM    9  C           1     -12.233   4.097 -22.155  0.00  0.00     0.138 C 
BRANCH   9  10
HETATM   10  C           1     -13.545   3.349 -22.174  0.00  0.00     0.217 C 
HETATM   11  N           1     -13.670   2.171 -21.488  0.00  0.00    -0.370 N 
HETATM   12  H           1     -12.883   1.801 -20.969  0.00  0.00     0.159 HD
HETATM   13  H           1     -14.548   1.670 -21.500  0.00  0.00     0.159 HD
HETATM   14  O           1     -14.483   3.791 -22.793  0.00  0.00    -0.274 OA
ENDBRANCH   9  10
ENDBRANCH   5   9
ENDBRANCH   2   5
BRANCH   3  15
HETATM   15  C           1     -11.938   8.569 -20.480  0.00  0.00     0.284 C 
BRANCH  15  16
HETATM   16  C           1     -10.939   8.679 -21.624  0.00  0.00     0.155 C 
BRANCH  16  17
HETATM   17  C           1      -9.539   8.743 -21.065  0.00  0.00     0.175 C 
HETATM   18  O           1      -8.981   7.702 -20.655  0.00  0.00    -0.648 OA
HETATM   19  O           1      -8.936   9.838 -21.012  0.00  0.00    -0.648 OA
ENDBRANCH  16  17
ENDBRANCH  15  16
BRANCH  15  20
HETATM   20  N           1     -11.313   9.086 -19.219  0.00  0.00    -0.066 N 
HETATM   21  H           1     -10.278   9.158 -19.347  0.00  0.00     0.275 HD
HETATM   22  H           1     -11.702  10.031 -18.999  0.00  0.00     0.275 HD
HETATM   23  H           1     -11.521   8.431 -18.432  0.00  0.00     0.275 HD
ENDBRANCH  15  20
ENDBRANCH   3  15
TORSDOF 8
ENDMDL
MODEL 6
REMARK VINA RESULT:      -5.4     17.404     19.770
REMARK  8 active torsions:
REMARK  status: ('A' for Active; 'I' for Inactive)
REMARK    1  A    between atoms: N_9  and  C_19 
REMARK       I    between atoms: N_9  and  C_10 
REMARK    2  A    between atoms: C_10  and  C_11 
REMARK    3  A    between atoms: C_11  and  C_12 
REMARK    4  A    between atoms: C_11  and  N_15 
REMARK    5  A    between atoms: C_12  and  C_13 
REMARK    6  A    between atoms: C_18  and  C_19 
REMARK    7  A    between atoms: C_19  and  C_20 
REMARK    8  A    between atoms: C_20  and  C_22 
REMARK       I    between atoms: N_21  and  C_22 
ROOT
HETATM    1  H           1     -12.498   7.518 -21.583  0.00  0.00     0.163 HD
HETATM    2  N           1     -12.154   7.324 -20.652  0.00  0.00    -0.344 N 
HETATM    3  C           1     -12.101   6.034 -20.196  0.00  0.00     0.249 C 
HETATM    4  O           1     -11.690   5.800 -19.084  0.00  0.00    -0.271 OA
ENDROOT
BRANCH   2   5
HETATM    5  C           1     -11.714   8.411 -19.799  0.00  0.00     0.194 C 
BRANCH   5   6
HETATM    6  C           1     -12.915   9.170 -19.292  0.00  0.00     0.197 C 
HETATM    7  O           1     -13.216  10.274 -19.796  0.00  0.00    -0.646 OA
HETATM    8  O           1     -13.610   8.694 -18.368  0.00  0.00    -0.646 OA
ENDBRANCH   5   6
BRANCH   5   9
HETATM    9  C           1     -10.819   9.350 -20.598  0.00  0.00     0.138 C 
BRANCH   9  10
HETATM   10  C           1      -9.459   8.719 -20.776  0.00  0.00     0.217 C 
HETATM   11  N           1      -8.502   9.355 -21.520  0.00  0.00    -0.370 N 
HETATM   12  H           1      -8.705  10.248 -21.950  0.00  0.00     0.159 HD
HETATM   13  H           1      -7.591   8.932 -21.640  0.00  0.00     0.159 HD
HETATM   14  O           1      -9.216   7.653 -20.263  0.00  0.00    -0.274 OA
ENDBRANCH   9  10
ENDBRANCH   5   9
ENDBRANCH   2   5
BRANCH   3  15
HETATM   15  C           1     -12.559   4.902 -21.083  0.00  0.00     0.284 C 
BRANCH  15  16
HETATM   16  C           1     -13.699   4.154 -20.405  0.00  0.00     0.155 C 
BRANCH  16  17
HETATM   17  C           1     -14.938   5.014 -20.406  0.00  0.00     0.175 C 
HETATM   18  O           1     -15.447   5.381 -19.324  0.00  0.00    -0.648 OA
HETATM   19  O           1     -15.457   5.362 -21.489  0.00  0.00    -0.648 OA
ENDBRANCH  16  17
ENDBRANCH  15  16
BRANCH  15  20
HETATM   20  N           1     -11.416   3.960 -21.321  0.00  0.00    -0.066 N 
HETATM   21  H           1     -10.809   4.335 -22.084  0.00  0.00     0.275 HD
HETATM   22  H           1     -10.854   3.866 -20.445  0.00  0.00     0.275 HD
HETATM   23  H           1     -11.788   3.024 -21.600  0.00  0.00     0.275 HD
ENDBRANCH  15  20
ENDBRANCH   3  15
TORSDOF 8
ENDMDL
MODEL 7
REMARK VINA RESULT:      -5.4      1.959      6.643
REMARK  8 active torsions:
REMARK  status: ('A' for Active; 'I' for Inactive)
REMARK    1  A    between atoms: N_9  and  C_19 
REMARK       I    between atoms: N_9  and  C_10 
REMARK    2  A    between atoms: C_10  and  C_11 
REMARK    3  A    between atoms: C_11  and  C_12 
REMARK    4  A    between atoms: C_11  and  N_15 
REMARK    5  A    between atoms: C_12  and  C_13 
REMARK    6  A    between atoms: C_18  and  C_19 
REMARK    7  A    between atoms: C_19  and  C_20 
REMARK    8  A    between atoms: C_20  and  C_22 
REMARK       I    between atoms: N_21  and  C_22 
ROOT
HETATM    1  H           1     -22.733  -6.012  -7.329  0.00  0.00     0.163 HD
HETATM    2  N           1     -22.018  -5.477  -6.852  0.00  0.00    -0.344 N 
HETATM    3  C           1     -21.672  -4.234  -7.309  0.00  0.00     0.249 C 
HETATM    4  O           1     -20.819  -3.595  -6.740  0.00  0.00    -0.271 OA
ENDROOT
BRANCH   2   5
HETATM    5  C           1     -21.360  -6.026  -5.682  0.00  0.00     0.194 C 
BRANCH   5   6
HETATM    6  C           1     -20.388  -7.099  -6.109  0.00  0.00     0.197 C 
HETATM    7  O           1     -20.596  -8.291  -5.796  0.00  0.00    -0.646 OA
HETATM    8  O           1     -19.376  -6.794  -6.776  0.00  0.00    -0.646 OA
ENDBRANCH   5   6
BRANCH   5   9
HETATM    9  C           1     -22.405  -6.628  -4.750  0.00  0.00     0.138 C 
BRANCH   9  10
HETATM   10  C           1     -21.868  -6.648  -3.339  0.00  0.00     0.217 C 
HETATM   11  N           1     -21.224  -7.761  -2.867  0.00  0.00    -0.370 N 
HETATM   12  H           1     -21.108  -8.570  -3.464  0.00  0.00     0.159 HD
HETATM   13  H           1     -20.865  -7.774  -1.922  0.00  0.00     0.159 HD
HETATM   14  O           1     -22.007  -5.683  -2.627  0.00  0.00    -0.274 OA
ENDBRANCH   9  10
ENDBRANCH   5   9
ENDBRANCH   2   5
BRANCH   3  15
HETATM   15  C           1     -22.357  -3.662  -8.527  0.00  0.00     0.284 C 
BRANCH  15  16
HETATM   16  C           1     -23.732  -4.298  -8.682  0.00  0.00     0.155 C 
BRANCH  16  17
HETATM   17  C           1     -24.455  -3.657  -9.841  0.00  0.00     0.175 C 
HETATM   18  O           1     -24.181  -3.995 -11.013  0.00  0.00    -0.648 OA
HETATM   19  O           1     -25.329  -2.788  -9.629  0.00  0.00    -0.648 OA
ENDBRANCH  16  17
ENDBRANCH  15  16
BRANCH  15  20
HETATM   20  N           1     -21.532  -3.951  -9.745  0.00  0.00    -0.066 N 
HETATM   21  H           1     -21.788  -3.283 -10.507  0.00  0.00     0.275 HD
HETATM   22  H           1     -20.518  -3.842  -9.514  0.00  0.00     0.275 HD
HETATM   23  H           1     -21.714  -4.929 -10.065  0.00  0.00     0.275 HD
ENDBRANCH  15  20
ENDBRANCH   3  15
TORSDOF 8
ENDMDL
MODEL 8
REMARK VINA RESULT:      -5.3      3.037      6.952
REMARK  8 active torsions:
REMARK  status: ('A' for Active; 'I' for Inactive)
REMARK    1  A    between atoms: N_9  and  C_19 
REMARK       I    between atoms: N_9  and  C_10 
REMARK    2  A    between atoms: C_10  and  C_11 
REMARK    3  A    between atoms: C_11  and  C_12 
REMARK    4  A    between atoms: C_11  and  N_15 
REMARK    5  A    between atoms: C_12  and  C_13 
REMARK    6  A    between atoms: C_18  and  C_19 
REMARK    7  A    between atoms: C_19  and  C_20 
REMARK    8  A    between atoms: C_20  and  C_22 
REMARK       I    between atoms: N_21  and  C_22 
ROOT
HETATM    1  H           1     -19.741  -6.765  -4.724  0.00  0.00     0.163 HD
HETATM    2  N           1     -20.751  -6.703  -4.744  0.00  0.00    -0.344 N 
HETATM    3  C           1     -21.367  -5.840  -5.610  0.00  0.00     0.249 C 
HETATM    4  O           1     -22.572  -5.765  -5.635  0.00  0.00    -0.271 OA
ENDROOT
BRANCH   2   5
HETATM    5  C           1     -21.547  -7.530  -3.858  0.00  0.00     0.194 C 
BRANCH   5   6
HETATM    6  C           1     -21.585  -6.903  -2.485  0.00  0.00     0.197 C 
HETATM    7  O           1     -20.893  -7.382  -1.561  0.00  0.00    -0.646 OA
HETATM    8  O           1     -22.307  -5.905  -2.275  0.00  0.00    -0.646 OA
ENDBRANCH   5   6
BRANCH   5   9
HETATM    9  C           1     -20.925  -8.918  -3.766  0.00  0.00     0.138 C 
BRANCH   9  10
HETATM   10  C           1     -20.395  -9.321  -5.120  0.00  0.00     0.217 C 
HETATM   11  N           1     -21.170 -10.073  -5.963  0.00  0.00    -0.370 N 
HETATM   12  H           1     -22.099 -10.358  -5.677  0.00  0.00     0.159 HD
HETATM   13  H           1     -20.815 -10.344  -6.871  0.00  0.00     0.159 HD
HETATM   14  O           1     -19.287  -8.982  -5.461  0.00  0.00    -0.274 OA
ENDBRANCH   9  10
ENDBRANCH   5   9
ENDBRANCH   2   5
BRANCH   3  15
HETATM   15  C           1     -20.538  -4.979  -6.533  0.00  0.00     0.284 C 
BRANCH  15  16
HETATM   16  C           1     -21.439  -3.965  -7.226  0.00  0.00     0.155 C 
BRANCH  16  17
HETATM   17  C           1     -21.492  -4.266  -8.703  0.00  0.00     0.175 C 
HETATM   18  O           1     -20.585  -3.855  -9.459  0.00  0.00    -0.648 OA
HETATM   19  O           1     -22.445  -4.927  -9.173  0.00  0.00    -0.648 OA
ENDBRANCH  16  17
ENDBRANCH  15  16
BRANCH  15  20
HETATM   20  N           1     -19.877  -5.846  -7.563  0.00  0.00    -0.066 N 
HETATM   21  H           1     -20.505  -6.645  -7.803  0.00  0.00     0.275 HD
HETATM   22  H           1     -19.689  -5.282  -8.423  0.00  0.00     0.275 HD
HETATM   23  H           1     -18.976  -6.213  -7.183  0.00  0.00     0.275 HD
ENDBRANCH  15  20
ENDBRANCH   3  15
TORSDOF 8
ENDMDL
MODEL 9
REMARK VINA RESULT:      -5.3      4.654      9.017
REMARK  8 active torsions:
REMARK  status: ('A' for Active; 'I' for Inactive)
REMARK    1  A    between atoms: N_9  and  C_19 
REMARK       I    between atoms: N_9  and  C_10 
REMARK    2  A    between atoms: C_10  and  C_11 
REMARK    3  A    between atoms: C_11  and  C_12 
REMARK    4  A    between atoms: C_11  and  N_15 
REMARK    5  A    between atoms: C_12  and  C_13 
REMARK    6  A    between atoms: C_18  and  C_19 
REMARK    7  A    between atoms: C_19  and  C_20 
REMARK    8  A    between atoms: C_20  and  C_22 
REMARK       I    between atoms: N_21  and  C_22 
ROOT
HETATM    1  H           1     -22.695  -8.232  -2.698  0.00  0.00     0.163 HD
HETATM    2  N           1     -21.722  -8.507  -2.677  0.00  0.00    -0.344 N 
HETATM    3  C           1     -20.901  -8.205  -3.730  0.00  0.00     0.249 C 
HETATM    4  O           1     -19.739  -8.534  -3.706  0.00  0.00    -0.271 OA
ENDROOT
BRANCH   2   5
HETATM    5  C           1     -21.194  -9.222  -1.530  0.00  0.00     0.194 C 
BRANCH   5   6
HETATM    6  C           1     -22.062 -10.422  -1.243  0.00  0.00     0.197 C 
HETATM    7  O           1     -22.790 -10.897  -2.142  0.00  0.00    -0.646 OA
HETATM    8  O           1     -22.053 -10.942  -0.107  0.00  0.00    -0.646 OA
ENDBRANCH   5   6
BRANCH   5   9
HETATM    9  C           1     -21.186  -8.298  -0.319  0.00  0.00     0.138 C 
BRANCH   9  10
HETATM   10  C           1     -22.500  -7.561  -0.239  0.00  0.00     0.217 C 
HETATM   11  N           1     -23.496  -8.024   0.580  0.00  0.00    -0.370 N 
HETATM   12  H           1     -23.350  -8.859   1.132  0.00  0.00     0.159 HD
HETATM   13  H           1     -24.377  -7.530   0.634  0.00  0.00     0.159 HD
HETATM   14  O           1     -22.675  -6.564  -0.898  0.00  0.00    -0.274 OA
ENDBRANCH   9  10
ENDBRANCH   5   9
ENDBRANCH   2   5
BRANCH   3  15
HETATM   15  C           1     -21.450  -7.461  -4.923  0.00  0.00     0.284 C 
BRANCH  15  16
HETATM   16  C           1     -20.297  -6.898  -5.744  0.00  0.00     0.155 C 
BRANCH  16  17
HETATM   17  C           1     -20.598  -5.468  -6.119  0.00  0.00     0.175 C 
HETATM   18  O           1     -20.094  -4.530  -5.462  0.00  0.00    -0.648 OA
HETATM   19  O           1     -21.351  -5.219  -7.086  0.00  0.00    -0.648 OA
ENDBRANCH  16  17
ENDBRANCH  15  16
BRANCH  15  20
HETATM   20  N           1     -22.324  -6.337  -4.453  0.00  0.00    -0.066 N 
HETATM   21  H           1     -22.961  -6.043  -5.227  0.00  0.00     0.275 HD
HETATM   22  H           1     -22.893  -6.657  -3.636  0.00  0.00     0.275 HD
HETATM   23  H           1     -21.727  -5.528  -4.167  0.00  0.00     0.275 HD
ENDBRANCH  15  20
ENDBRANCH   3  15
TORSDOF 8
ENDMDL
