MODEL 1
REMARK VINA RESULT:      -6.9      0.000      0.000
REMARK  17 active torsions:
REMARK  status: ('A' for Active; 'I' for Inactive)
REMARK    1  A    between atoms: C_2  and  C_12 
REMARK    2  A    between atoms: C_2  and  C_3 
REMARK    3  A    between atoms: C_2  and  N_7 
REMARK    4  A    between atoms: C_6  and  N_7 
REMARK    5  A    between atoms: C_6  and  C_22 
REMARK    6  A    between atoms: N_9  and  C_10 
REMARK    7  A    between atoms: C_10  and  C_11 
REMARK    8  A    between atoms: C_11  and  C_12 
REMARK    9  A    between atoms: C_13  and  C_30 
REMARK   10  A    between atoms: C_13  and  C_20 
REMARK       I    between atoms: N_16  and  C_17 
REMARK       I    between atoms: C_17  and  N_18 
REMARK   11  A    between atoms: N_18  and  C_19 
REMARK   12  A    between atoms: C_19  and  C_20 
REMARK   13  A    between atoms: C_22  and  C_23 
REMARK   14  A    between atoms: C_23  and  C_24 
REMARK   15  A    between atoms: C_23  and  N_27 
REMARK       I    between atoms: N_27  and  C_28 
REMARK   16  A    between atoms: C_28  and  C_30 
REMARK   17  A    between atoms: C_30  and  N_36 
ROOT
HETATM    1  H           1     -22.390  -6.010  -7.227  0.00  0.00     0.163 HD
HETATM    2  N           1     -21.952  -5.098  -7.247  0.00  0.00    -0.345 N 
HETATM    3  C           1     -22.445  -4.120  -8.070  0.00  0.00     0.249 C 
HETATM    4  O           1     -21.922  -3.032  -8.095  0.00  0.00    -0.271 OA
ENDROOT
BRANCH   2   5
HETATM    5  C           1     -20.802  -4.826  -6.407  0.00  0.00     0.187 C 
BRANCH   5   6
HETATM    6  C           1     -20.976  -5.530  -5.068  0.00  0.00     0.066 C 
BRANCH   6   7
HETATM    7  C           1     -22.075  -6.579  -5.183  0.00  0.00     0.273 C 
BRANCH   7   8
HETATM    8  N           1     -21.483  -7.885  -5.279  0.00  0.00     0.098 N 
HETATM    9  H           1     -20.999  -7.974  -6.173  0.00  0.00     0.317 HD
BRANCH   8  10
HETATM   10  C           1     -20.537  -8.017  -4.205  0.00  0.00     0.320 C 
BRANCH  10  11
HETATM   11  C           1     -21.237  -8.590  -2.980  0.00  0.00     0.048 C 
BRANCH  11  12
HETATM   12  C           1     -20.850  -7.781  -1.749  0.00  0.00     0.030 C 
BRANCH  12  13
HETATM   13  C           1     -22.099  -7.161  -1.134  0.00  0.00     0.230 C 
BRANCH  13  14
HETATM   14  N           1     -22.358  -5.826  -1.767  0.00  0.00    -0.079 N 
HETATM   15  H           1     -22.699  -5.156  -1.041  0.00  0.00     0.274 HD
HETATM   16  H           1     -21.473  -5.463  -2.188  0.00  0.00     0.274 HD
HETATM   17  H           1     -23.082  -5.929  -2.513  0.00  0.00     0.274 HD
ENDBRANCH  13  14
ENDBRANCH  12  13
ENDBRANCH  11  12
ENDBRANCH  10  11
BRANCH  10  18
HETATM   18  C           1     -19.423  -8.943  -4.627  0.00  0.00     0.207 C 
HETATM   19  O           1     -18.454  -9.146  -3.863  0.00  0.00    -0.646 OA
HETATM   20  O           1     -19.469  -9.509  -5.741  0.00  0.00    -0.646 OA
ENDBRANCH  10  18
ENDBRANCH   8  10
ENDBRANCH   7   8
ENDBRANCH   6   7
ENDBRANCH   5   6
BRANCH   5  21
HETATM   21  C           1     -19.552  -5.333  -7.084  0.00  0.00     0.196 C 
HETATM   22  O           1     -18.640  -4.534  -7.390  0.00  0.00    -0.646 OA
HETATM   23  O           1     -19.429  -6.550  -7.339  0.00  0.00    -0.646 OA
ENDBRANCH   5  21
ENDBRANCH   2   5
BRANCH   3  24
HETATM   24  C           1     -23.641  -4.403  -8.945  0.00  0.00     0.274 C 
BRANCH  24  25
HETATM   25  C           1     -23.174  -4.691 -10.366  0.00  0.00     0.044 C 
BRANCH  25  26
HETATM   26  C           1     -23.167  -3.396 -11.170  0.00  0.00     0.023 C 
BRANCH  26  27
HETATM   27  C           1     -24.050  -3.556 -12.401  0.00  0.00     0.138 C 
BRANCH  27  28
HETATM   28  N           1     -23.219  -3.489 -13.611  0.00  0.00    -0.227 N 
HETATM   29  H           1     -22.596  -4.295 -13.866  0.00  0.00     0.177 HD
HETATM   30  C           1     -23.256  -2.459 -14.348  0.00  0.00     0.665 C 
HETATM   31  N           1     -22.540  -2.401 -15.390  0.00  0.00    -0.235 N 
HETATM   32  N           1     -24.027  -1.462 -14.032  0.00  0.00    -0.235 N 
HETATM   33  H           1     -22.570  -1.548 -16.000  0.00  0.00     0.174 HD
HETATM   34  H           1     -21.916  -3.207 -15.645  0.00  0.00     0.174 HD
HETATM   35  H           1     -24.618  -1.510 -13.171  0.00  0.00     0.174 HD
HETATM   36  H           1     -24.057  -0.612 -14.640  0.00  0.00     0.174 HD
ENDBRANCH  27  28
ENDBRANCH  26  27
ENDBRANCH  25  26
ENDBRANCH  24  25
BRANCH  24  37
HETATM   37  N           1     -24.550  -3.210  -8.949  0.00  0.00    -0.067 N 
HETATM   38  H           1     -24.416  -2.673  -9.836  0.00  0.00     0.275 HD
HETATM   39  H           1     -25.543  -3.529  -8.882  0.00  0.00     0.275 HD
HETATM   40  H           1     -24.323  -2.597  -8.135  0.00  0.00     0.275 HD
ENDBRANCH  24  37
ENDBRANCH   3  24
TORSDOF 17
ENDMDL
MODEL 2
REMARK VINA RESULT:      -6.8      2.367      3.521
REMARK  17 active torsions:
REMARK  status: ('A' for Active; 'I' for Inactive)
REMARK    1  A    between atoms: C_2  and  C_12 
REMARK    2  A    between atoms: C_2  and  C_3 
REMARK    3  A    between atoms: C_2  and  N_7 
REMARK    4  A    between atoms: C_6  and  N_7 
REMARK    5  A    between atoms: C_6  and  C_22 
REMARK    6  A    between atoms: N_9  and  C_10 
REMARK    7  A    between atoms: C_10  and  C_11 
REMARK    8  A    between atoms: C_11  and  C_12 
REMARK    9  A    between atoms: C_13  and  C_30 
REMARK   10  A    between atoms: C_13  and  C_20 
REMARK       I    between atoms: N_16  and  C_17 
REMARK       I    between atoms: C_17  and  N_18 
REMARK   11  A    between atoms: N_18  and  C_19 
REMARK   12  A    between atoms: C_19  and  C_20 
REMARK   13  A    between atoms: C_22  and  C_23 
REMARK   14  A    between atoms: C_23  and  C_24 
REMARK   15  A    between atoms: C_23  and  N_27 
REMARK       I    between atoms: N_27  and  C_28 
REMARK   16  A    between atoms: C_28  and  C_30 
REMARK   17  A    between atoms: C_30  and  N_36 
ROOT
HETATM    1  H           1     -22.674  -6.222  -6.528  0.00  0.00     0.163 HD
HETATM    2  N           1     -21.720  -5.969  -6.305  0.00  0.00    -0.345 N 
HETATM    3  C           1     -21.014  -5.150  -7.146  0.00  0.00     0.249 C 
HETATM    4  O           1     -19.876  -4.848  -6.880  0.00  0.00    -0.271 OA
ENDROOT
BRANCH   2   5
HETATM    5  C           1     -21.100  -6.473  -5.096  0.00  0.00     0.187 C 
BRANCH   5   6
HETATM    6  C           1     -22.113  -6.448  -3.959  0.00  0.00     0.066 C 
BRANCH   6   7
HETATM    7  C           1     -21.400  -6.140  -2.648  0.00  0.00     0.273 C 
BRANCH   7   8
HETATM    8  N           1     -22.256  -6.483  -1.544  0.00  0.00     0.098 N 
HETATM    9  H           1     -23.231  -6.423  -1.839  0.00  0.00     0.317 HD
BRANCH   8  10
HETATM   10  C           1     -21.952  -7.834  -1.159  0.00  0.00     0.320 C 
BRANCH  10  11
HETATM   11  C           1     -20.465  -8.096  -1.359  0.00  0.00     0.048 C 
BRANCH  11  12
HETATM   12  C           1     -20.265  -9.513  -1.879  0.00  0.00     0.030 C 
BRANCH  12  13
HETATM   13  C           1     -18.906  -9.619  -2.559  0.00  0.00     0.230 C 
BRANCH  13  14
HETATM   14  N           1     -19.007 -10.536  -3.741  0.00  0.00    -0.079 N 
HETATM   15  H           1     -18.149 -11.129  -3.797  0.00  0.00     0.274 HD
HETATM   16  H           1     -19.848 -11.148  -3.635  0.00  0.00     0.274 HD
HETATM   17  H           1     -19.097  -9.969  -4.614  0.00  0.00     0.274 HD
ENDBRANCH  13  14
ENDBRANCH  12  13
ENDBRANCH  11  12
ENDBRANCH  10  11
BRANCH  10  18
HETATM   18  C           1     -22.307  -8.033   0.294  0.00  0.00     0.207 C 
HETATM   19  O           1     -23.506  -8.033   0.651  0.00  0.00    -0.646 OA
HETATM   20  O           1     -21.404  -8.198   1.142  0.00  0.00    -0.646 OA
ENDBRANCH  10  18
ENDBRANCH   8  10
ENDBRANCH   7   8
ENDBRANCH   6   7
ENDBRANCH   5   6
BRANCH   5  21
HETATM   21  C           1     -20.632  -7.890  -5.322  0.00  0.00     0.196 C 
HETATM   22  O           1     -21.395  -8.847  -5.065  0.00  0.00    -0.646 OA
HETATM   23  O           1     -19.484  -8.107  -5.765  0.00  0.00    -0.646 OA
ENDBRANCH   5  21
ENDBRANCH   2   5
BRANCH   3  24
HETATM   24  C           1     -21.660  -4.626  -8.405  0.00  0.00     0.274 C 
BRANCH  24  25
HETATM   25  C           1     -20.600  -4.453  -9.486  0.00  0.00     0.044 C 
BRANCH  25  26
HETATM   26  C           1     -21.111  -3.487 -10.547  0.00  0.00     0.023 C 
BRANCH  26  27
HETATM   27  C           1     -22.210  -4.157 -11.360  0.00  0.00     0.138 C 
BRANCH  27  28
HETATM   28  N           1     -22.002  -3.880 -12.788  0.00  0.00    -0.227 N 
HETATM   29  H           1     -21.215  -4.346 -13.304  0.00  0.00     0.177 HD
HETATM   30  C           1     -22.773  -3.081 -13.397  0.00  0.00     0.665 C 
HETATM   31  N           1     -22.594  -2.842 -14.626  0.00  0.00    -0.235 N 
HETATM   32  N           1     -23.748  -2.506 -12.757  0.00  0.00    -0.235 N 
HETATM   33  H           1     -23.232  -2.179 -15.131  0.00  0.00     0.174 HD
HETATM   34  H           1     -21.805  -3.307 -15.143  0.00  0.00     0.174 HD
HETATM   35  H           1     -23.896  -2.703 -11.742  0.00  0.00     0.174 HD
HETATM   36  H           1     -24.384  -1.846 -13.260  0.00  0.00     0.174 HD
ENDBRANCH  27  28
ENDBRANCH  26  27
ENDBRANCH  25  26
ENDBRANCH  24  25
BRANCH  24  37
HETATM   37  N           1     -22.304  -3.301  -8.121  0.00  0.00    -0.067 N 
HETATM   38  H           1     -21.580  -2.548  -8.148  0.00  0.00     0.275 HD
HETATM   39  H           1     -23.035  -3.108  -8.843  0.00  0.00     0.275 HD
HETATM   40  H           1     -22.746  -3.325  -7.175  0.00  0.00     0.275 HD
ENDBRANCH  24  37
ENDBRANCH   3  24
TORSDOF 17
ENDMDL
MODEL 3
REMARK VINA RESULT:      -6.7      2.526      8.606
REMARK  17 active torsions:
REMARK  status: ('A' for Active; 'I' for Inactive)
REMARK    1  A    between atoms: C_2  and  C_12 
REMARK    2  A    between atoms: C_2  and  C_3 
REMARK    3  A    between atoms: C_2  and  N_7 
REMARK    4  A    between atoms: C_6  and  N_7 
REMARK    5  A    between atoms: C_6  and  C_22 
REMARK    6  A    between atoms: N_9  and  C_10 
REMARK    7  A    between atoms: C_10  and  C_11 
REMARK    8  A    between atoms: C_11  and  C_12 
REMARK    9  A    between atoms: C_13  and  C_30 
REMARK   10  A    between atoms: C_13  and  C_20 
REMARK       I    between atoms: N_16  and  C_17 
REMARK       I    between atoms: C_17  and  N_18 
REMARK   11  A    between atoms: N_18  and  C_19 
REMARK   12  A    between atoms: C_19  and  C_20 
REMARK   13  A    between atoms: C_22  and  C_23 
REMARK   14  A    between atoms: C_23  and  C_24 
REMARK   15  A    between atoms: C_23  and  N_27 
REMARK       I    between atoms: N_27  and  C_28 
REMARK   16  A    between atoms: C_28  and  C_30 
REMARK   17  A    between atoms: C_30  and  N_36 
ROOT
HETATM    1  H           1     -20.946  -4.891  -4.466  0.00  0.00     0.163 HD
HETATM    2  N           1     -21.264  -5.719  -4.954  0.00  0.00    -0.345 N 
HETATM    3  C           1     -21.559  -6.857  -4.250  0.00  0.00     0.249 C 
HETATM    4  O           1     -21.938  -7.845  -4.831  0.00  0.00    -0.271 OA
ENDROOT
BRANCH   2   5
HETATM    5  C           1     -21.409  -5.701  -6.396  0.00  0.00     0.187 C 
BRANCH   5   6
HETATM    6  C           1     -22.211  -4.474  -6.809  0.00  0.00     0.066 C 
BRANCH   6   7
HETATM    7  C           1     -22.803  -4.696  -8.195  0.00  0.00     0.273 C 
BRANCH   7   8
HETATM    8  N           1     -23.732  -3.641  -8.495  0.00  0.00     0.098 N 
HETATM    9  H           1     -23.539  -2.838  -7.896  0.00  0.00     0.317 HD
BRANCH   8  10
HETATM   10  C           1     -23.545  -3.271  -9.872  0.00  0.00     0.320 C 
BRANCH  10  11
HETATM   11  C           1     -22.650  -4.297 -10.555  0.00  0.00     0.048 C 
BRANCH  11  12
HETATM   12  C           1     -21.823  -3.611 -11.634  0.00  0.00     0.030 C 
BRANCH  12  13
HETATM   13  C           1     -20.368  -3.536 -11.189  0.00  0.00     0.230 C 
BRANCH  13  14
HETATM   14  N           1     -20.030  -4.751 -10.377  0.00  0.00    -0.079 N 
HETATM   15  H           1     -19.415  -5.385 -10.937  0.00  0.00     0.274 HD
HETATM   16  H           1     -19.529  -4.459  -9.507  0.00  0.00     0.274 HD
HETATM   17  H           1     -20.909  -5.254 -10.121  0.00  0.00     0.274 HD
ENDBRANCH  13  14
ENDBRANCH  12  13
ENDBRANCH  11  12
ENDBRANCH  10  11
BRANCH  10  18
HETATM   18  C           1     -24.883  -3.228 -10.567  0.00  0.00     0.207 C 
HETATM   19  O           1     -25.937  -3.296  -9.898  0.00  0.00    -0.646 OA
HETATM   20  O           1     -24.938  -3.125 -11.811  0.00  0.00    -0.646 OA
ENDBRANCH  10  18
ENDBRANCH   8  10
ENDBRANCH   7   8
ENDBRANCH   6   7
ENDBRANCH   5   6
BRANCH   5  21
HETATM   21  C           1     -20.044  -5.650  -7.038  0.00  0.00     0.196 C 
HETATM   22  O           1     -19.427  -6.711  -7.278  0.00  0.00    -0.646 OA
HETATM   23  O           1     -19.531  -4.549  -7.330  0.00  0.00    -0.646 OA
ENDBRANCH   5  21
ENDBRANCH   2   5
BRANCH   3  24
HETATM   24  C           1     -21.408  -6.875  -2.750  0.00  0.00     0.274 C 
BRANCH  24  25
HETATM   25  C           1     -21.630  -8.291  -2.233  0.00  0.00     0.044 C 
BRANCH  25  26
HETATM   26  C           1     -20.307  -8.865  -1.741  0.00  0.00     0.023 C 
BRANCH  26  27
HETATM   27  C           1     -19.345  -9.005  -2.914  0.00  0.00     0.138 C 
BRANCH  27  28
HETATM   28  N           1     -19.831 -10.052  -3.824  0.00  0.00    -0.227 N 
HETATM   29  H           1     -20.354 -10.878  -3.443  0.00  0.00     0.177 HD
HETATM   30  C           1     -19.619  -9.955  -5.069  0.00  0.00     0.665 C 
HETATM   31  N           1     -20.037 -10.857  -5.853  0.00  0.00    -0.235 N 
HETATM   32  N           1     -18.973  -8.931  -5.540  0.00  0.00    -0.235 N 
HETATM   33  H           1     -19.862 -10.778  -6.885  0.00  0.00     0.174 HD
HETATM   34  H           1     -20.560 -11.685  -5.472  0.00  0.00     0.174 HD
HETATM   35  H           1     -18.628  -8.187  -4.893  0.00  0.00     0.174 HD
HETATM   36  H           1     -18.798  -8.852  -6.568  0.00  0.00     0.174 HD
ENDBRANCH  27  28
ENDBRANCH  26  27
ENDBRANCH  25  26
ENDBRANCH  24  25
BRANCH  24  37
HETATM   37  N           1     -22.421  -5.954  -2.135  0.00  0.00    -0.067 N 
HETATM   38  H           1     -23.378  -6.224  -2.457  0.00  0.00     0.275 HD
HETATM   39  H           1     -22.371  -6.028  -1.093  0.00  0.00     0.275 HD
HETATM   40  H           1     -22.219  -4.972  -2.426  0.00  0.00     0.275 HD
ENDBRANCH  24  37
ENDBRANCH   3  24
TORSDOF 17
ENDMDL
MODEL 4
REMARK VINA RESULT:      -6.6      2.667     10.023
REMARK  17 active torsions:
REMARK  status: ('A' for Active; 'I' for Inactive)
REMARK    1  A    between atoms: C_2  and  C_12 
REMARK    2  A    between atoms: C_2  and  C_3 
REMARK    3  A    between atoms: C_2  and  N_7 
REMARK    4  A    between atoms: C_6  and  N_7 
REMARK    5  A    between atoms: C_6  and  C_22 
REMARK    6  A    between atoms: N_9  and  C_10 
REMARK    7  A    between atoms: C_10  and  C_11 
REMARK    8  A    between atoms: C_11  and  C_12 
REMARK    9  A    between atoms: C_13  and  C_30 
REMARK   10  A    between atoms: C_13  and  C_20 
REMARK       I    between atoms: N_16  and  C_17 
REMARK       I    between atoms: C_17  and  N_18 
REMARK   11  A    between atoms: N_18  and  C_19 
REMARK   12  A    between atoms: C_19  and  C_20 
REMARK   13  A    between atoms: C_22  and  C_23 
REMARK   14  A    between atoms: C_23  and  C_24 
REMARK   15  A    between atoms: C_23  and  N_27 
REMARK       I    between atoms: N_27  and  C_28 
REMARK   16  A    between atoms: C_28  and  C_30 
REMARK   17  A    between atoms: C_30  and  N_36 
ROOT
HETATM    1  H           1     -20.466  -4.813  -4.382  0.00  0.00     0.163 HD
HETATM    2  N           1     -20.978  -5.530  -4.879  0.00  0.00    -0.345 N 
HETATM    3  C           1     -21.522  -6.583  -4.193  0.00  0.00     0.249 C 
HETATM    4  O           1     -22.133  -7.439  -4.786  0.00  0.00    -0.271 OA
ENDROOT
BRANCH   2   5
HETATM    5  C           1     -21.135  -5.445  -6.318  0.00  0.00     0.187 C 
BRANCH   5   6
HETATM    6  C           1     -21.523  -4.022  -6.701  0.00  0.00     0.066 C 
BRANCH   6   7
HETATM    7  C           1     -22.703  -4.058  -7.663  0.00  0.00     0.273 C 
BRANCH   7   8
HETATM    8  N           1     -22.244  -4.439  -8.972  0.00  0.00     0.098 N 
HETATM    9  H           1     -22.501  -5.410  -9.152  0.00  0.00     0.317 HD
BRANCH   8  10
HETATM   10  C           1     -22.892  -3.584  -9.929  0.00  0.00     0.320 C 
BRANCH  10  11
HETATM   11  C           1     -22.386  -3.914 -11.327  0.00  0.00     0.048 C 
BRANCH  11  12
HETATM   12  C           1     -22.340  -2.643 -12.164  0.00  0.00     0.030 C 
BRANCH  12  13
HETATM   13  C           1     -23.309  -2.767 -13.332  0.00  0.00     0.230 C 
BRANCH  13  14
HETATM   14  N           1     -22.541  -3.019 -14.595  0.00  0.00    -0.079 N 
HETATM   15  H           1     -21.666  -3.546 -14.372  0.00  0.00     0.274 HD
HETATM   16  H           1     -23.128  -3.581 -15.253  0.00  0.00     0.274 HD
HETATM   17  H           1     -22.295  -2.107 -15.041  0.00  0.00     0.274 HD
ENDBRANCH  13  14
ENDBRANCH  12  13
ENDBRANCH  11  12
ENDBRANCH  10  11
BRANCH  10  18
HETATM   18  C           1     -24.384  -3.803  -9.869  0.00  0.00     0.207 C 
HETATM   19  O           1     -25.151  -2.832  -9.688  0.00  0.00    -0.646 OA
HETATM   20  O           1     -24.853  -4.954  -9.999  0.00  0.00    -0.646 OA
ENDBRANCH  10  18
ENDBRANCH   8  10
ENDBRANCH   7   8
ENDBRANCH   6   7
ENDBRANCH   5   6
BRANCH   5  21
HETATM   21  C           1     -19.834  -5.810  -6.989  0.00  0.00     0.196 C 
HETATM   22  O           1     -19.380  -6.970  -6.882  0.00  0.00    -0.646 OA
HETATM   23  O           1     -19.209  -4.953  -7.651  0.00  0.00    -0.646 OA
ENDBRANCH   5  21
ENDBRANCH   2   5
BRANCH   3  24
HETATM   24  C           1     -21.358  -6.672  -2.696  0.00  0.00     0.274 C 
BRANCH  24  25
HETATM   25  C           1     -21.528  -8.119  -2.251  0.00  0.00     0.044 C 
BRANCH  25  26
HETATM   26  C           1     -20.536  -8.426  -1.135  0.00  0.00     0.023 C 
BRANCH  26  27
HETATM   27  C           1     -21.295  -8.763   0.142  0.00  0.00     0.138 C 
BRANCH  27  28
HETATM   28  N           1     -20.930 -10.115   0.587  0.00  0.00    -0.227 N 
HETATM   29  H           1     -19.992 -10.288   1.027  0.00  0.00     0.177 HD
HETATM   30  C           1     -21.747 -11.071   0.440  0.00  0.00     0.665 C 
HETATM   31  N           1     -21.432 -12.236   0.823  0.00  0.00    -0.235 N 
HETATM   32  N           1     -22.907 -10.856  -0.104  0.00  0.00    -0.235 N 
HETATM   33  H           1     -22.109 -13.029   0.702  0.00  0.00     0.174 HD
HETATM   34  H           1     -20.494 -12.409   1.263  0.00  0.00     0.174 HD
HETATM   35  H           1     -23.167  -9.895  -0.420  0.00  0.00     0.174 HD
HETATM   36  H           1     -23.581 -11.646  -0.225  0.00  0.00     0.174 HD
ENDBRANCH  27  28
ENDBRANCH  26  27
ENDBRANCH  25  26
ENDBRANCH  24  25
BRANCH  24  37
HETATM   37  N           1     -22.397  -5.819  -2.028  0.00  0.00    -0.067 N 
HETATM   38  H           1     -23.348  -6.181  -2.263  0.00  0.00     0.275 HD
HETATM   39  H           1     -22.258  -5.850  -0.993  0.00  0.00     0.275 HD
HETATM   40  H           1     -22.306  -4.834  -2.364  0.00  0.00     0.275 HD
ENDBRANCH  24  37
ENDBRANCH   3  24
TORSDOF 17
ENDMDL
MODEL 5
REMARK VINA RESULT:      -6.3      2.211      3.095
REMARK  17 active torsions:
REMARK  status: ('A' for Active; 'I' for Inactive)
REMARK    1  A    between atoms: C_2  and  C_12 
REMARK    2  A    between atoms: C_2  and  C_3 
REMARK    3  A    between atoms: C_2  and  N_7 
REMARK    4  A    between atoms: C_6  and  N_7 
REMARK    5  A    between atoms: C_6  and  C_22 
REMARK    6  A    between atoms: N_9  and  C_10 
REMARK    7  A    between atoms: C_10  and  C_11 
REMARK    8  A    between atoms: C_11  and  C_12 
REMARK    9  A    between atoms: C_13  and  C_30 
REMARK   10  A    between atoms: C_13  and  C_20 
REMARK       I    between atoms: N_16  and  C_17 
REMARK       I    between atoms: C_17  and  N_18 
REMARK   11  A    between atoms: N_18  and  C_19 
REMARK   12  A    between atoms: C_19  and  C_20 
REMARK   13  A    between atoms: C_22  and  C_23 
REMARK   14  A    between atoms: C_23  and  C_24 
REMARK   15  A    between atoms: C_23  and  N_27 
REMARK       I    between atoms: N_27  and  C_28 
REMARK   16  A    between atoms: C_28  and  C_30 
REMARK   17  A    between atoms: C_30  and  N_36 
ROOT
HETATM    1  H           1     -21.928  -7.009  -6.860  0.00  0.00     0.163 HD
HETATM    2  N           1     -21.257  -6.454  -6.345  0.00  0.00    -0.345 N 
HETATM    3  C           1     -20.868  -5.232  -6.825  0.00  0.00     0.249 C 
HETATM    4  O           1     -20.067  -4.569  -6.211  0.00  0.00    -0.271 OA
ENDROOT
BRANCH   2   5
HETATM    5  C           1     -20.707  -6.951  -5.099  0.00  0.00     0.187 C 
BRANCH   5   6
HETATM    6  C           1     -21.776  -6.894  -4.015  0.00  0.00     0.066 C 
BRANCH   6   7
HETATM    7  C           1     -21.133  -7.126  -2.654  0.00  0.00     0.273 C 
BRANCH   7   8
HETATM    8  N           1     -21.829  -8.179  -1.967  0.00  0.00     0.098 N 
HETATM    9  H           1     -22.252  -8.808  -2.650  0.00  0.00     0.317 HD
BRANCH   8  10
HETATM   10  C           1     -20.865  -8.902  -1.182  0.00  0.00     0.320 C 
BRANCH  10  11
HETATM   11  C           1     -21.557  -9.522   0.025  0.00  0.00     0.048 C 
BRANCH  11  12
HETATM   12  C           1     -23.051  -9.238  -0.045  0.00  0.00     0.030 C 
BRANCH  12  13
HETATM   13  C           1     -23.818 -10.553  -0.077  0.00  0.00     0.230 C 
BRANCH  13  14
HETATM   14  N           1     -23.684 -11.177  -1.435  0.00  0.00    -0.079 N 
HETATM   15  H           1     -23.938 -10.477  -2.168  0.00  0.00     0.274 HD
HETATM   16  H           1     -22.697 -11.490  -1.578  0.00  0.00     0.274 HD
HETATM   17  H           1     -24.324 -12.001  -1.504  0.00  0.00     0.274 HD
ENDBRANCH  13  14
ENDBRANCH  12  13
ENDBRANCH  11  12
ENDBRANCH  10  11
BRANCH  10  18
HETATM   18  C           1     -20.247  -9.991  -2.024  0.00  0.00     0.207 C 
HETATM   19  O           1     -19.004 -10.118  -2.069  0.00  0.00    -0.646 OA
HETATM   20  O           1     -20.978 -10.768  -2.676  0.00  0.00    -0.646 OA
ENDBRANCH  10  18
ENDBRANCH   8  10
ENDBRANCH   7   8
ENDBRANCH   6   7
ENDBRANCH   5   6
BRANCH   5  21
HETATM   21  C           1     -20.253  -8.378  -5.284  0.00  0.00     0.196 C 
HETATM   22  O           1     -19.062  -8.688  -5.061  0.00  0.00    -0.646 OA
HETATM   23  O           1     -21.066  -9.250  -5.659  0.00  0.00    -0.646 OA
ENDBRANCH   5  21
ENDBRANCH   2   5
BRANCH   3  24
HETATM   24  C           1     -21.440  -4.714  -8.121  0.00  0.00     0.274 C 
BRANCH  24  25
HETATM   25  C           1     -20.337  -4.634  -9.168  0.00  0.00     0.044 C 
BRANCH  25  26
HETATM   26  C           1     -20.754  -3.670 -10.273  0.00  0.00     0.023 C 
BRANCH  26  27
HETATM   27  C           1     -21.621  -4.404 -11.288  0.00  0.00     0.138 C 
BRANCH  27  28
HETATM   28  N           1     -22.874  -3.663 -11.488  0.00  0.00    -0.227 N 
HETATM   29  H           1     -23.557  -3.563 -10.697  0.00  0.00     0.177 HD
HETATM   30  C           1     -23.130  -3.146 -12.615  0.00  0.00     0.665 C 
HETATM   31  N           1     -24.210  -2.509 -12.788  0.00  0.00    -0.235 N 
HETATM   32  N           1     -22.285  -3.270 -13.594  0.00  0.00    -0.235 N 
HETATM   33  H           1     -24.423  -2.079 -13.722  0.00  0.00     0.174 HD
HETATM   34  H           1     -24.894  -2.409 -11.996  0.00  0.00     0.174 HD
HETATM   35  H           1     -21.393  -3.796 -13.451  0.00  0.00     0.174 HD
HETATM   36  H           1     -22.496  -2.842 -14.524  0.00  0.00     0.174 HD
ENDBRANCH  27  28
ENDBRANCH  26  27
ENDBRANCH  25  26
ENDBRANCH  24  25
BRANCH  24  37
HETATM   37  N           1     -22.020  -3.348  -7.901  0.00  0.00    -0.067 N 
HETATM   38  H           1     -21.419  -2.634  -8.371  0.00  0.00     0.275 HD
HETATM   39  H           1     -22.984  -3.310  -8.303  0.00  0.00     0.275 HD
HETATM   40  H           1     -22.061  -3.148  -6.877  0.00  0.00     0.275 HD
ENDBRANCH  24  37
ENDBRANCH   3  24
TORSDOF 17
ENDMDL
MODEL 6
REMARK VINA RESULT:      -6.2      2.674      4.650
REMARK  17 active torsions:
REMARK  status: ('A' for Active; 'I' for Inactive)
REMARK    1  A    between atoms: C_2  and  C_12 
REMARK    2  A    between atoms: C_2  and  C_3 
REMARK    3  A    between atoms: C_2  and  N_7 
REMARK    4  A    between atoms: C_6  and  N_7 
REMARK    5  A    between atoms: C_6  and  C_22 
REMARK    6  A    between atoms: N_9  and  C_10 
REMARK    7  A    between atoms: C_10  and  C_11 
REMARK    8  A    between atoms: C_11  and  C_12 
REMARK    9  A    between atoms: C_13  and  C_30 
REMARK   10  A    between atoms: C_13  and  C_20 
REMARK       I    between atoms: N_16  and  C_17 
REMARK       I    between atoms: C_17  and  N_18 
REMARK   11  A    between atoms: N_18  and  C_19 
REMARK   12  A    between atoms: C_19  and  C_20 
REMARK   13  A    between atoms: C_22  and  C_23 
REMARK   14  A    between atoms: C_23  and  C_24 
REMARK   15  A    between atoms: C_23  and  N_27 
REMARK       I    between atoms: N_27  and  C_28 
REMARK   16  A    between atoms: C_28  and  C_30 
REMARK   17  A    between atoms: C_30  and  N_36 
ROOT
HETATM    1  H           1     -19.698  -8.063  -5.823  0.00  0.00     0.163 HD
HETATM    2  N           1     -20.181  -7.713  -5.007  0.00  0.00    -0.345 N 
HETATM    3  C           1     -20.665  -6.431  -4.994  0.00  0.00     0.249 C 
HETATM    4  O           1     -21.241  -6.012  -4.020  0.00  0.00    -0.271 OA
ENDROOT
BRANCH   2   5
HETATM    5  C           1     -20.361  -8.565  -3.848  0.00  0.00     0.187 C 
BRANCH   5   6
HETATM    6  C           1     -21.467  -9.574  -4.130  0.00  0.00     0.066 C 
BRANCH   6   7
HETATM    7  C           1     -21.437 -10.671  -3.073  0.00  0.00     0.273 C 
BRANCH   7   8
HETATM    8  N           1     -22.546 -10.503  -2.174  0.00  0.00     0.098 N 
HETATM    9  H           1     -22.980 -11.409  -1.997  0.00  0.00     0.317 HD
BRANCH   8  10
HETATM   10  C           1     -22.034  -9.966  -0.942  0.00  0.00     0.320 C 
BRANCH  10  11
HETATM   11  C           1     -23.192  -9.476  -0.083  0.00  0.00     0.048 C 
BRANCH  11  12
HETATM   12  C           1     -23.009  -7.995   0.220  0.00  0.00     0.030 C 
BRANCH  12  13
HETATM   13  C           1     -21.890  -7.433  -0.648  0.00  0.00     0.230 C 
BRANCH  13  14
HETATM   14  N           1     -22.394  -6.237  -1.400  0.00  0.00    -0.079 N 
HETATM   15  H           1     -22.598  -6.507  -2.389  0.00  0.00     0.274 HD
HETATM   16  H           1     -23.268  -5.884  -0.948  0.00  0.00     0.274 HD
HETATM   17  H           1     -21.667  -5.486  -1.387  0.00  0.00     0.274 HD
ENDBRANCH  13  14
ENDBRANCH  12  13
ENDBRANCH  11  12
ENDBRANCH  10  11
BRANCH  10  18
HETATM   18  C           1     -21.278 -11.042  -0.202  0.00  0.00     0.207 C 
HETATM   19  O           1     -20.103 -10.835   0.172  0.00  0.00    -0.646 OA
HETATM   20  O           1     -21.825 -12.139   0.037  0.00  0.00    -0.646 OA
ENDBRANCH  10  18
ENDBRANCH   8  10
ENDBRANCH   7   8
ENDBRANCH   6   7
ENDBRANCH   5   6
BRANCH   5  21
HETATM   21  C           1     -19.074  -9.298  -3.557  0.00  0.00     0.196 C 
HETATM   22  O           1     -18.562  -9.231  -2.418  0.00  0.00    -0.646 OA
HETATM   23  O           1     -18.521  -9.971  -4.453  0.00  0.00    -0.646 OA
ENDBRANCH   5  21
ENDBRANCH   2   5
BRANCH   3  24
HETATM   24  C           1     -20.477  -5.544  -6.200  0.00  0.00     0.274 C 
BRANCH  24  25
HETATM   25  C           1     -21.828  -5.002  -6.648  0.00  0.00     0.044 C 
BRANCH  25  26
HETATM   26  C           1     -21.625  -3.697  -7.408  0.00  0.00     0.023 C 
BRANCH  26  27
HETATM   27  C           1     -22.181  -3.838  -8.819  0.00  0.00     0.138 C 
BRANCH  27  28
HETATM   28  N           1     -23.600  -3.457  -8.828  0.00  0.00    -0.227 N 
HETATM   29  H           1     -23.962  -2.764  -8.128  0.00  0.00     0.177 HD
HETATM   30  C           1     -24.387  -3.966  -9.681  0.00  0.00     0.665 C 
HETATM   31  N           1     -25.609  -3.638  -9.688  0.00  0.00    -0.235 N 
HETATM   32  N           1     -23.938  -4.824 -10.547  0.00  0.00    -0.235 N 
HETATM   33  H           1     -26.261  -4.059 -10.394  0.00  0.00     0.174 HD
HETATM   34  H           1     -25.972  -2.945  -8.987  0.00  0.00     0.174 HD
HETATM   35  H           1     -22.928  -5.094 -10.541  0.00  0.00     0.174 HD
HETATM   36  H           1     -24.587  -5.243 -11.252  0.00  0.00     0.174 HD
ENDBRANCH  27  28
ENDBRANCH  26  27
ENDBRANCH  25  26
ENDBRANCH  24  25
BRANCH  24  37
HETATM   37  N           1     -19.863  -6.339  -7.315  0.00  0.00    -0.067 N 
HETATM   38  H           1     -19.854  -7.351  -7.056  0.00  0.00     0.275 HD
HETATM   39  H           1     -20.424  -6.206  -8.186  0.00  0.00     0.275 HD
HETATM   40  H           1     -18.884  -6.013  -7.476  0.00  0.00     0.275 HD
ENDBRANCH  24  37
ENDBRANCH   3  24
TORSDOF 17
ENDMDL
MODEL 7
REMARK VINA RESULT:      -6.1      2.666      4.112
REMARK  17 active torsions:
REMARK  status: ('A' for Active; 'I' for Inactive)
REMARK    1  A    between atoms: C_2  and  C_12 
REMARK    2  A    between atoms: C_2  and  C_3 
REMARK    3  A    between atoms: C_2  and  N_7 
REMARK    4  A    between atoms: C_6  and  N_7 
REMARK    5  A    between atoms: C_6  and  C_22 
REMARK    6  A    between atoms: N_9  and  C_10 
REMARK    7  A    between atoms: C_10  and  C_11 
REMARK    8  A    between atoms: C_11  and  C_12 
REMARK    9  A    between atoms: C_13  and  C_30 
REMARK   10  A    between atoms: C_13  and  C_20 
REMARK       I    between atoms: N_16  and  C_17 
REMARK       I    between atoms: C_17  and  N_18 
REMARK   11  A    between atoms: N_18  and  C_19 
REMARK   12  A    between atoms: C_19  and  C_20 
REMARK   13  A    between atoms: C_22  and  C_23 
REMARK   14  A    between atoms: C_23  and  C_24 
REMARK   15  A    between atoms: C_23  and  N_27 
REMARK       I    between atoms: N_27  and  C_28 
REMARK   16  A    between atoms: C_28  and  C_30 
REMARK   17  A    between atoms: C_30  and  N_36 
ROOT
HETATM    1  H           1     -19.580  -7.227  -6.868  0.00  0.00     0.163 HD
HETATM    2  N           1     -19.964  -7.162  -5.935  0.00  0.00    -0.345 N 
HETATM    3  C           1     -20.506  -5.982  -5.498  0.00  0.00     0.249 C 
HETATM    4  O           1     -20.964  -5.904  -4.384  0.00  0.00    -0.271 OA
ENDROOT
BRANCH   2   5
HETATM    5  C           1     -19.940  -8.316  -5.058  0.00  0.00     0.187 C 
BRANCH   5   6
HETATM    6  C           1     -21.237  -9.099  -5.216  0.00  0.00     0.066 C 
BRANCH   6   7
HETATM    7  C           1     -21.815  -9.409  -3.842  0.00  0.00     0.273 C 
BRANCH   7   8
HETATM    8  N           1     -21.464  -8.358  -2.925  0.00  0.00     0.098 N 
HETATM    9  H           1     -21.982  -7.512  -3.164  0.00  0.00     0.317 HD
BRANCH   8  10
HETATM   10  C           1     -21.830  -8.789  -1.604  0.00  0.00     0.320 C 
BRANCH  10  11
HETATM   11  C           1     -20.667  -9.545  -0.977  0.00  0.00     0.048 C 
BRANCH  11  12
HETATM   12  C           1     -21.090 -10.979  -0.686  0.00  0.00     0.030 C 
BRANCH  12  13
HETATM   13  C           1     -21.044 -11.229   0.816  0.00  0.00     0.230 C 
BRANCH  13  14
HETATM   14  N           1     -20.462 -10.030   1.505  0.00  0.00    -0.079 N 
HETATM   15  H           1     -19.490  -9.867   1.159  0.00  0.00     0.274 HD
HETATM   16  H           1     -21.051  -9.191   1.299  0.00  0.00     0.274 HD
HETATM   17  H           1     -20.443 -10.197   2.536  0.00  0.00     0.274 HD
ENDBRANCH  13  14
ENDBRANCH  12  13
ENDBRANCH  11  12
ENDBRANCH  10  11
BRANCH  10  18
HETATM   18  C           1     -22.163  -7.585  -0.757  0.00  0.00     0.207 C 
HETATM   19  O           1     -22.009  -7.631   0.483  0.00  0.00    -0.646 OA
HETATM   20  O           1     -22.593  -6.543  -1.295  0.00  0.00    -0.646 OA
ENDBRANCH  10  18
ENDBRANCH   8  10
ENDBRANCH   7   8
ENDBRANCH   6   7
ENDBRANCH   5   6
BRANCH   5  21
HETATM   21  C           1     -18.771  -9.199  -5.420  0.00  0.00     0.196 C 
HETATM   22  O           1     -18.421 -10.119  -4.649  0.00  0.00    -0.646 OA
HETATM   23  O           1     -18.153  -9.012  -6.490  0.00  0.00    -0.646 OA
ENDBRANCH   5  21
ENDBRANCH   2   5
BRANCH   3  24
HETATM   24  C           1     -20.531  -4.781  -6.410  0.00  0.00     0.274 C 
BRANCH  24  25
HETATM   25  C           1     -21.835  -4.768  -7.199  0.00  0.00     0.044 C 
BRANCH  25  26
HETATM   26  C           1     -21.767  -3.691  -8.274  0.00  0.00     0.023 C 
BRANCH  26  27
HETATM   27  C           1     -22.632  -4.099  -9.459  0.00  0.00     0.138 C 
BRANCH  27  28
HETATM   28  N           1     -22.035  -3.587 -10.701  0.00  0.00    -0.227 N 
HETATM   29  H           1     -21.265  -2.875 -10.659  0.00  0.00     0.177 HD
HETATM   30  C           1     -22.449  -4.008 -11.822  0.00  0.00     0.665 C 
HETATM   31  N           1     -21.935  -3.568 -12.891  0.00  0.00    -0.235 N 
HETATM   32  N           1     -23.401  -4.890 -11.873  0.00  0.00    -0.235 N 
HETATM   33  H           1     -22.278  -3.915 -13.820  0.00  0.00     0.174 HD
HETATM   34  H           1     -21.165  -2.854 -12.850  0.00  0.00     0.174 HD
HETATM   35  H           1     -23.826  -5.254 -10.989  0.00  0.00     0.174 HD
HETATM   36  H           1     -23.743  -5.237 -12.798  0.00  0.00     0.174 HD
ENDBRANCH  27  28
ENDBRANCH  26  27
ENDBRANCH  25  26
ENDBRANCH  24  25
BRANCH  24  37
HETATM   37  N           1     -19.373  -4.852  -7.362  0.00  0.00    -0.067 N 
HETATM   38  H           1     -18.618  -5.445  -6.948  0.00  0.00     0.275 HD
HETATM   39  H           1     -19.690  -5.273  -8.265  0.00  0.00     0.275 HD
HETATM   40  H           1     -19.005  -3.890  -7.534  0.00  0.00     0.275 HD
ENDBRANCH  24  37
ENDBRANCH   3  24
TORSDOF 17
ENDMDL
MODEL 8
REMARK VINA RESULT:      -6.1      3.049      4.193
REMARK  17 active torsions:
REMARK  status: ('A' for Active; 'I' for Inactive)
REMARK    1  A    between atoms: C_2  and  C_12 
REMARK    2  A    between atoms: C_2  and  C_3 
REMARK    3  A    between atoms: C_2  and  N_7 
REMARK    4  A    between atoms: C_6  and  N_7 
REMARK    5  A    between atoms: C_6  and  C_22 
REMARK    6  A    between atoms: N_9  and  C_10 
REMARK    7  A    between atoms: C_10  and  C_11 
REMARK    8  A    between atoms: C_11  and  C_12 
REMARK    9  A    between atoms: C_13  and  C_30 
REMARK   10  A    between atoms: C_13  and  C_20 
REMARK       I    between atoms: N_16  and  C_17 
REMARK       I    between atoms: C_17  and  N_18 
REMARK   11  A    between atoms: N_18  and  C_19 
REMARK   12  A    between atoms: C_19  and  C_20 
REMARK   13  A    between atoms: C_22  and  C_23 
REMARK   14  A    between atoms: C_23  and  C_24 
REMARK   15  A    between atoms: C_23  and  N_27 
REMARK       I    between atoms: N_27  and  C_28 
REMARK   16  A    between atoms: C_28  and  C_30 
REMARK   17  A    between atoms: C_30  and  N_36 
ROOT
HETATM    1  H           1     -19.891  -6.879  -5.034  0.00  0.00     0.163 HD
HETATM    2  N           1     -20.889  -6.744  -4.939  0.00  0.00    -0.345 N 
HETATM    3  C           1     -21.531  -5.818  -5.717  0.00  0.00     0.249 C 
HETATM    4  O           1     -22.722  -5.655  -5.605  0.00  0.00    -0.271 OA
ENDROOT
BRANCH   2   5
HETATM    5  C           1     -21.641  -7.529  -3.979  0.00  0.00     0.187 C 
BRANCH   5   6
HETATM    6  C           1     -21.051  -8.931  -3.900  0.00  0.00     0.066 C 
BRANCH   6   7
HETATM    7  C           1     -22.031  -9.855  -3.188  0.00  0.00     0.273 C 
BRANCH   7   8
HETATM    8  N           1     -21.307 -10.914  -2.539  0.00  0.00     0.098 N 
HETATM    9  H           1     -20.341 -10.622  -2.388  0.00  0.00     0.317 HD
BRANCH   8  10
HETATM   10  C           1     -21.938 -11.162  -1.271  0.00  0.00     0.320 C 
BRANCH  10  11
HETATM   11  C           1     -22.456  -9.849  -0.698  0.00  0.00     0.048 C 
BRANCH  11  12
HETATM   12  C           1     -21.561  -9.410   0.453  0.00  0.00     0.030 C 
BRANCH  12  13
HETATM   13  C           1     -22.079  -8.099   1.029  0.00  0.00     0.230 C 
BRANCH  13  14
HETATM   14  N           1     -23.420  -7.786   0.433  0.00  0.00    -0.079 N 
HETATM   15  H           1     -23.744  -8.597  -0.141  0.00  0.00     0.274 HD
HETATM   16  H           1     -24.108  -7.604   1.200  0.00  0.00     0.274 HD
HETATM   17  H           1     -23.342  -6.939  -0.173  0.00  0.00     0.274 HD
ENDBRANCH  13  14
ENDBRANCH  12  13
ENDBRANCH  11  12
ENDBRANCH  10  11
BRANCH  10  18
HETATM   18  C           1     -23.090 -12.117  -1.462  0.00  0.00     0.207 C 
HETATM   19  O           1     -24.252 -11.761  -1.170  0.00  0.00    -0.646 OA
HETATM   20  O           1     -22.883 -13.264  -1.912  0.00  0.00    -0.646 OA
ENDBRANCH  10  18
ENDBRANCH   8  10
ENDBRANCH   7   8
ENDBRANCH   6   7
ENDBRANCH   5   6
BRANCH   5  21
HETATM   21  C           1     -21.564  -6.873  -2.622  0.00  0.00     0.196 C 
HETATM   22  O           1     -20.572  -7.074  -1.887  0.00  0.00    -0.646 OA
HETATM   23  O           1     -22.490  -6.131  -2.232  0.00  0.00    -0.646 OA
ENDBRANCH   5  21
ENDBRANCH   2   5
BRANCH   3  24
HETATM   24  C           1     -20.749  -5.001  -6.716  0.00  0.00     0.274 C 
BRANCH  24  25
HETATM   25  C           1     -21.703  -4.111  -7.503  0.00  0.00     0.044 C 
BRANCH  25  26
HETATM   26  C           1     -21.732  -4.562  -8.959  0.00  0.00     0.023 C 
BRANCH  26  27
HETATM   27  C           1     -22.801  -3.782  -9.712  0.00  0.00     0.138 C 
BRANCH  27  28
HETATM   28  N           1     -22.241  -3.276 -10.973  0.00  0.00    -0.227 N 
HETATM   29  H           1     -21.572  -2.468 -10.964  0.00  0.00     0.177 HD
HETATM   30  C           1     -22.566  -3.816 -12.072  0.00  0.00     0.665 C 
HETATM   31  N           1     -22.085  -3.381 -13.158  0.00  0.00    -0.235 N 
HETATM   32  N           1     -23.395  -4.817 -12.083  0.00  0.00    -0.235 N 
HETATM   33  H           1     -22.354  -3.828 -14.068  0.00  0.00     0.174 HD
HETATM   34  H           1     -21.415  -2.571 -13.149  0.00  0.00     0.174 HD
HETATM   35  H           1     -23.793  -5.177 -11.186  0.00  0.00     0.174 HD
HETATM   36  H           1     -23.664  -5.263 -12.990  0.00  0.00     0.174 HD
ENDBRANCH  27  28
ENDBRANCH  26  27
ENDBRANCH  25  26
ENDBRANCH  24  25
BRANCH  24  37
HETATM   37  N           1     -20.030  -5.920  -7.659  0.00  0.00    -0.067 N 
HETATM   38  H           1     -20.654  -6.150  -8.465  0.00  0.00     0.275 HD
HETATM   39  H           1     -19.165  -5.449  -8.011  0.00  0.00     0.275 HD
HETATM   40  H           1     -19.771  -6.799  -7.158  0.00  0.00     0.275 HD
ENDBRANCH  24  37
ENDBRANCH   3  24
TORSDOF 17
ENDMDL
MODEL 9
REMARK VINA RESULT:      -6.1      3.007      4.394
REMARK  17 active torsions:
REMARK  status: ('A' for Active; 'I' for Inactive)
REMARK    1  A    between atoms: C_2  and  C_12 
REMARK    2  A    between atoms: C_2  and  C_3 
REMARK    3  A    between atoms: C_2  and  N_7 
REMARK    4  A    between atoms: C_6  and  N_7 
REMARK    5  A    between atoms: C_6  and  C_22 
REMARK    6  A    between atoms: N_9  and  C_10 
REMARK    7  A    between atoms: C_10  and  C_11 
REMARK    8  A    between atoms: C_11  and  C_12 
REMARK    9  A    between atoms: C_13  and  C_30 
REMARK   10  A    between atoms: C_13  and  C_20 
REMARK       I    between atoms: N_16  and  C_17 
REMARK       I    between atoms: C_17  and  N_18 
REMARK   11  A    between atoms: N_18  and  C_19 
REMARK   12  A    between atoms: C_19  and  C_20 
REMARK   13  A    between atoms: C_22  and  C_23 
REMARK   14  A    between atoms: C_23  and  C_24 
REMARK   15  A    between atoms: C_23  and  N_27 
REMARK       I    between atoms: N_27  and  C_28 
REMARK   16  A    between atoms: C_28  and  C_30 
REMARK   17  A    between atoms: C_30  and  N_36 
ROOT
HETATM    1  H           1     -21.234  -7.976  -6.715  0.00  0.00     0.163 HD
HETATM    2  N           1     -21.002  -7.358  -5.949  0.00  0.00    -0.345 N 
HETATM    3  C           1     -21.122  -6.002  -6.103  0.00  0.00     0.249 C 
HETATM    4  O           1     -20.846  -5.263  -5.189  0.00  0.00    -0.271 OA
ENDROOT
BRANCH   2   5
HETATM    5  C           1     -20.543  -7.905  -4.688  0.00  0.00     0.187 C 
BRANCH   5   6
HETATM    6  C           1     -21.733  -8.453  -3.911  0.00  0.00     0.066 C 
BRANCH   6   7
HETATM    7  C           1     -21.447  -8.370  -2.417  0.00  0.00     0.273 C 
BRANCH   7   8
HETATM    8  N           1     -21.819  -9.608  -1.788  0.00  0.00     0.098 N 
HETATM    9  H           1     -20.988 -10.187  -1.659  0.00  0.00     0.317 HD
BRANCH   8  10
HETATM   10  C           1     -22.388  -9.294  -0.505  0.00  0.00     0.320 C 
BRANCH  10  11
HETATM   11  C           1     -23.585 -10.200  -0.246  0.00  0.00     0.048 C 
BRANCH  11  12
HETATM   12  C           1     -23.704 -11.218  -1.373  0.00  0.00     0.030 C 
BRANCH  12  13
HETATM   13  C           1     -23.634 -12.626  -0.797  0.00  0.00     0.230 C 
BRANCH  13  14
HETATM   14  N           1     -23.381 -12.550   0.680  0.00  0.00    -0.079 N 
HETATM   15  H           1     -22.400 -12.233   0.850  0.00  0.00     0.274 HD
HETATM   16  H           1     -24.048 -11.870   1.113  0.00  0.00     0.274 HD
HETATM   17  H           1     -23.521 -13.494   1.106  0.00  0.00     0.274 HD
ENDBRANCH  13  14
ENDBRANCH  12  13
ENDBRANCH  11  12
ENDBRANCH  10  11
BRANCH  10  18
HETATM   18  C           1     -21.352  -9.508   0.570  0.00  0.00     0.207 C 
HETATM   19  O           1     -21.000  -8.553   1.298  0.00  0.00    -0.646 OA
HETATM   20  O           1     -20.846 -10.638   0.735  0.00  0.00    -0.646 OA
ENDBRANCH  10  18
ENDBRANCH   8  10
ENDBRANCH   7   8
ENDBRANCH   6   7
ENDBRANCH   5   6
BRANCH   5  21
HETATM   21  C           1     -19.558  -9.018  -4.950  0.00  0.00     0.196 C 
HETATM   22  O           1     -19.793  -9.861  -5.843  0.00  0.00    -0.646 OA
HETATM   23  O           1     -18.509  -9.097  -4.276  0.00  0.00    -0.646 OA
ENDBRANCH   5  21
ENDBRANCH   2   5
BRANCH   3  24
HETATM   24  C           1     -21.600  -5.433  -7.416  0.00  0.00     0.274 C 
BRANCH  24  25
HETATM   25  C           1     -20.400  -5.119  -8.301  0.00  0.00     0.044 C 
BRANCH  25  26
HETATM   26  C           1     -20.718  -3.915  -9.179  0.00  0.00     0.023 C 
BRANCH  26  27
HETATM   27  C           1     -21.313  -4.390 -10.498  0.00  0.00     0.138 C 
BRANCH  27  28
HETATM   28  N           1     -22.465  -3.545 -10.848  0.00  0.00    -0.227 N 
HETATM   29  H           1     -22.316  -2.546 -11.133  0.00  0.00     0.177 HD
HETATM   30  C           1     -23.636  -4.024 -10.807  0.00  0.00     0.665 C 
HETATM   31  N           1     -24.628  -3.298 -11.107  0.00  0.00    -0.235 N 
HETATM   32  N           1     -23.820  -5.262 -10.454  0.00  0.00    -0.235 N 
HETATM   33  H           1     -25.599  -3.694 -11.073  0.00  0.00     0.174 HD
HETATM   34  H           1     -24.479  -2.297 -11.392  0.00  0.00     0.174 HD
HETATM   35  H           1     -23.001  -5.862 -10.206  0.00  0.00     0.174 HD
HETATM   36  H           1     -24.787  -5.657 -10.420  0.00  0.00     0.174 HD
ENDBRANCH  27  28
ENDBRANCH  26  27
ENDBRANCH  25  26
ENDBRANCH  24  25
BRANCH  24  37
HETATM   37  N           1     -22.375  -4.173  -7.161  0.00  0.00    -0.067 N 
HETATM   38  H           1     -21.847  -3.356  -7.543  0.00  0.00     0.275 HD
HETATM   39  H           1     -23.306  -4.237  -7.632  0.00  0.00     0.275 HD
HETATM   40  H           1     -22.511  -4.050  -6.133  0.00  0.00     0.275 HD
ENDBRANCH  24  37
ENDBRANCH   3  24
TORSDOF 17
ENDMDL
