MODEL 1
REMARK VINA RESULT:      -6.3      0.000      0.000
REMARK  9 active torsions:
REMARK  status: ('A' for Active; 'I' for Inactive)
REMARK    1  A    between atoms: Se_2  and  C_14 
REMARK       I    between atoms: C_3  and  N_4 
REMARK    2  A    between atoms: C_3  and  C_5 
REMARK    3  A    between atoms: C_5  and  C_6 
REMARK    4  A    between atoms: C_6  and  C_7 
REMARK    5  A    between atoms: C_6  and  N_10 
REMARK       I    between atoms: N_10  and  C_11 
REMARK    6  A    between atoms: C_11  and  C_12 
REMARK    7  A    between atoms: C_12  and  C_13 
REMARK    8  A    between atoms: C_12  and  N_19 
REMARK    9  A    between atoms: C_13  and  C_14 
ROOT
HETATM    1  N           1     -35.068  -1.656 -13.356  0.00  0.00    -0.344 N 
HETATM    2  C           1     -34.413  -2.430 -12.436  0.00  0.00     0.249 C 
HETATM    3  H           1     -35.307  -2.040 -14.261  0.00  0.00     0.163 HD
HETATM    4  O           1     -34.127  -1.972 -11.356  0.00  0.00    -0.271 OA
ENDROOT
BRANCH   1   5
HETATM    5  C           1     -35.418  -0.287 -13.033  0.00  0.00     0.194 C 
BRANCH   5   6
HETATM    6  C           1     -35.128   0.606 -14.232  0.00  0.00     0.138 C 
BRANCH   6   7
HETATM    7  C           1     -35.528  -0.106 -15.501  0.00  0.00     0.217 C 
HETATM    8  O           1     -34.788  -0.924 -15.993  0.00  0.00    -0.274 OA
HETATM    9  N           1     -36.730   0.173 -16.094  0.00  0.00    -0.370 N 
HETATM   10  H           1     -37.350   0.858 -15.682  0.00  0.00     0.159 HD
HETATM   11  H           1     -36.998  -0.305 -16.944  0.00  0.00     0.159 HD
ENDBRANCH   6   7
ENDBRANCH   5   6
BRANCH   5  12
HETATM   12  C           1     -36.886  -0.210 -12.692  0.00  0.00     0.197 C 
HETATM   13  O           1     -37.732  -0.733 -13.450  0.00  0.00    -0.646 OA
HETATM   14  O           1     -37.256   0.375 -11.652  0.00  0.00    -0.646 OA
ENDBRANCH   5  12
ENDBRANCH   1   5
BRANCH   2  15
HETATM   15  C           1     -34.049  -3.855 -12.772  0.00  0.00     0.274 C 
BRANCH  15  16
HETATM   16  C           1     -32.776  -4.243 -12.031  0.00  0.00     0.042 C 
BRANCH  16  17
HETATM   17  C           1     -33.010  -5.533 -11.257  0.00  0.00     0.003 C 
BRANCH  17  18
HETATM   18 Se           1     -34.893  -5.670 -10.775  0.00  0.00     0.000 Se
HETATM   19  C           1     -34.741  -7.464 -10.030  0.00  0.00     0.000 C 
ENDBRANCH  17  18
ENDBRANCH  16  17
ENDBRANCH  15  16
BRANCH  15  20
HETATM   20  N           1     -33.824  -3.979 -14.250  0.00  0.00    -0.067 N 
HETATM   21  H           1     -34.200  -4.894 -14.585  0.00  0.00     0.275 HD
HETATM   22  H           1     -34.317  -3.200 -14.742  0.00  0.00     0.275 HD
HETATM   23  H           1     -32.801  -3.927 -14.452  0.00  0.00     0.275 HD
ENDBRANCH  15  20
ENDBRANCH   2  15
TORSDOF 9
ENDMDL
MODEL 2
REMARK VINA RESULT:      -6.1     11.909     13.742
REMARK  9 active torsions:
REMARK  status: ('A' for Active; 'I' for Inactive)
REMARK    1  A    between atoms: Se_2  and  C_14 
REMARK       I    between atoms: C_3  and  N_4 
REMARK    2  A    between atoms: C_3  and  C_5 
REMARK    3  A    between atoms: C_5  and  C_6 
REMARK    4  A    between atoms: C_6  and  C_7 
REMARK    5  A    between atoms: C_6  and  N_10 
REMARK       I    between atoms: N_10  and  C_11 
REMARK    6  A    between atoms: C_11  and  C_12 
REMARK    7  A    between atoms: C_12  and  C_13 
REMARK    8  A    between atoms: C_12  and  N_19 
REMARK    9  A    between atoms: C_13  and  C_14 
ROOT
HETATM    1  N           1     -23.389  -4.143  -8.762  0.00  0.00    -0.344 N 
HETATM    2  C           1     -22.310  -4.116  -7.920  0.00  0.00     0.249 C 
HETATM    3  H           1     -24.264  -4.544  -8.450  0.00  0.00     0.163 HD
HETATM    4  O           1     -21.265  -3.638  -8.293  0.00  0.00    -0.271 OA
ENDROOT
BRANCH   1   5
HETATM    5  C           1     -23.278  -3.598 -10.101  0.00  0.00     0.194 C 
BRANCH   5   6
HETATM    6  C           1     -22.672  -4.645 -11.026  0.00  0.00     0.138 C 
BRANCH   6   7
HETATM    7  C           1     -21.603  -4.006 -11.879  0.00  0.00     0.217 C 
HETATM    8  O           1     -20.464  -3.954 -11.479  0.00  0.00    -0.274 OA
HETATM    9  N           1     -21.923  -3.487 -13.104  0.00  0.00    -0.370 N 
HETATM   10  H           1     -22.877  -3.530 -13.439  0.00  0.00     0.159 HD
HETATM   11  H           1     -21.205  -3.059 -13.675  0.00  0.00     0.159 HD
ENDBRANCH   6   7
ENDBRANCH   5   6
BRANCH   5  12
HETATM   12  C           1     -24.649  -3.215 -10.603  0.00  0.00     0.197 C 
HETATM   13  O           1     -25.590  -3.066  -9.794  0.00  0.00    -0.646 OA
HETATM   14  O           1     -24.842  -3.047 -11.826  0.00  0.00    -0.646 OA
ENDBRANCH   5  12
ENDBRANCH   1   5
BRANCH   2  15
HETATM   15  C           1     -22.426  -4.683  -6.527  0.00  0.00     0.274 C 
BRANCH  15  16
HETATM   16  C           1     -21.460  -5.851  -6.372  0.00  0.00     0.042 C 
BRANCH  16  17
HETATM   17  C           1     -20.814  -5.797  -4.993  0.00  0.00     0.003 C 
BRANCH  17  18
HETATM   18 Se           1     -21.455  -7.289  -3.916  0.00  0.00     0.000 Se
HETATM   19  C           1     -21.905  -6.191  -2.370  0.00  0.00     0.000 C 
ENDBRANCH  17  18
ENDBRANCH  16  17
ENDBRANCH  15  16
BRANCH  15  20
HETATM   20  N           1     -23.829  -5.162  -6.298  0.00  0.00    -0.067 N 
HETATM   21  H           1     -24.372  -5.089  -7.187  0.00  0.00     0.275 HD
HETATM   22  H           1     -23.809  -6.159  -5.984  0.00  0.00     0.275 HD
HETATM   23  H           1     -24.282  -4.574  -5.563  0.00  0.00     0.275 HD
ENDBRANCH  15  20
ENDBRANCH   2  15
TORSDOF 9
ENDMDL
MODEL 3
REMARK VINA RESULT:      -5.9      1.745      2.861
REMARK  9 active torsions:
REMARK  status: ('A' for Active; 'I' for Inactive)
REMARK    1  A    between atoms: Se_2  and  C_14 
REMARK       I    between atoms: C_3  and  N_4 
REMARK    2  A    between atoms: C_3  and  C_5 
REMARK    3  A    between atoms: C_5  and  C_6 
REMARK    4  A    between atoms: C_6  and  C_7 
REMARK    5  A    between atoms: C_6  and  N_10 
REMARK       I    between atoms: N_10  and  C_11 
REMARK    6  A    between atoms: C_11  and  C_12 
REMARK    7  A    between atoms: C_12  and  C_13 
REMARK    8  A    between atoms: C_12  and  N_19 
REMARK    9  A    between atoms: C_13  and  C_14 
ROOT
HETATM    1  N           1     -34.880  -1.212 -14.093  0.00  0.00    -0.344 N 
HETATM    2  C           1     -35.339  -1.609 -12.866  0.00  0.00     0.249 C 
HETATM    3  H           1     -33.926  -1.411 -14.365  0.00  0.00     0.163 HD
HETATM    4  O           1     -36.478  -1.370 -12.541  0.00  0.00    -0.271 OA
ENDROOT
BRANCH   1   5
HETATM    5  C           1     -35.760  -0.504 -15.002  0.00  0.00     0.194 C 
BRANCH   5   6
HETATM    6  C           1     -35.342   0.959 -15.076  0.00  0.00     0.138 C 
BRANCH   6   7
HETATM    7  C           1     -36.370   1.738 -15.859  0.00  0.00     0.217 C 
HETATM    8  O           1     -36.027   2.670 -16.546  0.00  0.00    -0.274 OA
HETATM    9  N           1     -37.692   1.387 -15.793  0.00  0.00    -0.370 N 
HETATM   10  H           1     -37.980   0.606 -15.218  0.00  0.00     0.159 HD
HETATM   11  H           1     -38.381   1.910 -16.318  0.00  0.00     0.159 HD
ENDBRANCH   6   7
ENDBRANCH   5   6
BRANCH   5  12
HETATM   12  C           1     -35.668  -1.124 -16.375  0.00  0.00     0.197 C 
HETATM   13  O           1     -34.668  -1.807 -16.686  0.00  0.00    -0.646 OA
HETATM   14  O           1     -36.592  -0.956 -17.200  0.00  0.00    -0.646 OA
ENDBRANCH   5  12
ENDBRANCH   1   5
BRANCH   2  15
HETATM   15  C           1     -34.423  -2.346 -11.920  0.00  0.00     0.274 C 
BRANCH  15  16
HETATM   16  C           1     -35.157  -3.543 -11.331  0.00  0.00     0.042 C 
BRANCH  16  17
HETATM   17  C           1     -34.196  -4.358 -10.475  0.00  0.00     0.003 C 
BRANCH  17  18
HETATM   18 Se           1     -34.092  -6.177 -11.166  0.00  0.00     0.000 Se
HETATM   19  C           1     -34.915  -6.994  -9.600  0.00  0.00     0.000 C 
ENDBRANCH  17  18
ENDBRANCH  16  17
ENDBRANCH  15  16
BRANCH  15  20
HETATM   20  N           1     -34.002  -1.424 -10.814  0.00  0.00    -0.067 N 
HETATM   21  H           1     -34.835  -1.170 -10.236  0.00  0.00     0.275 HD
HETATM   22  H           1     -33.295  -1.904 -10.212  0.00  0.00     0.275 HD
HETATM   23  H           1     -33.584  -0.558 -11.221  0.00  0.00     0.275 HD
ENDBRANCH  15  20
ENDBRANCH   2  15
TORSDOF 9
ENDMDL
MODEL 4
REMARK VINA RESULT:      -5.8      1.886      3.164
REMARK  9 active torsions:
REMARK  status: ('A' for Active; 'I' for Inactive)
REMARK    1  A    between atoms: Se_2  and  C_14 
REMARK       I    between atoms: C_3  and  N_4 
REMARK    2  A    between atoms: C_3  and  C_5 
REMARK    3  A    between atoms: C_5  and  C_6 
REMARK    4  A    between atoms: C_6  and  C_7 
REMARK    5  A    between atoms: C_6  and  N_10 
REMARK       I    between atoms: N_10  and  C_11 
REMARK    6  A    between atoms: C_11  and  C_12 
REMARK    7  A    between atoms: C_12  and  C_13 
REMARK    8  A    between atoms: C_12  and  N_19 
REMARK    9  A    between atoms: C_13  and  C_14 
ROOT
HETATM    1  N           1     -34.962  -1.149 -12.330  0.00  0.00    -0.344 N 
HETATM    2  C           1     -34.374  -2.384 -12.396  0.00  0.00     0.249 C 
HETATM    3  H           1     -34.754  -0.531 -11.556  0.00  0.00     0.163 HD
HETATM    4  O           1     -34.622  -3.122 -13.319  0.00  0.00    -0.271 OA
ENDROOT
BRANCH   1   5
HETATM    5  C           1     -35.882  -0.728 -13.368  0.00  0.00     0.194 C 
BRANCH   5   6
HETATM    6  C           1     -37.047   0.024 -12.739  0.00  0.00     0.138 C 
BRANCH   6   7
HETATM    7  C           1     -37.136  -0.320 -11.272  0.00  0.00     0.217 C 
HETATM    8  O           1     -37.566  -1.396 -10.930  0.00  0.00    -0.274 OA
HETATM    9  N           1     -36.730   0.586 -10.330  0.00  0.00    -0.370 N 
HETATM   10  H           1     -36.369   1.487 -10.616  0.00  0.00     0.159 HD
HETATM   11  H           1     -36.789   0.355  -9.347  0.00  0.00     0.159 HD
ENDBRANCH   6   7
ENDBRANCH   5   6
BRANCH   5  12
HETATM   12  C           1     -35.163   0.177 -14.339  0.00  0.00     0.197 C 
HETATM   13  O           1     -34.784   1.311 -13.972  0.00  0.00    -0.646 OA
HETATM   14  O           1     -34.947  -0.206 -15.509  0.00  0.00    -0.646 OA
ENDBRANCH   5  12
ENDBRANCH   1   5
BRANCH   2  15
HETATM   15  C           1     -33.417  -2.822 -11.315  0.00  0.00     0.274 C 
BRANCH  15  16
HETATM   16  C           1     -34.008  -4.006 -10.562  0.00  0.00     0.042 C 
BRANCH  16  17
HETATM   17  C           1     -33.480  -5.304 -11.158  0.00  0.00     0.003 C 
BRANCH  17  18
HETATM   18 Se           1     -34.972  -6.495 -11.551  0.00  0.00     0.000 Se
HETATM   19  C           1     -34.830  -7.490  -9.882  0.00  0.00     0.000 C 
ENDBRANCH  17  18
ENDBRANCH  16  17
ENDBRANCH  15  16
BRANCH  15  20
HETATM   20  N           1     -33.187  -1.688 -10.361  0.00  0.00    -0.067 N 
HETATM   21  H           1     -32.229  -1.764  -9.952  0.00  0.00     0.275 HD
HETATM   22  H           1     -33.277  -0.780 -10.871  0.00  0.00     0.275 HD
HETATM   23  H           1     -33.896  -1.728  -9.594  0.00  0.00     0.275 HD
ENDBRANCH  15  20
ENDBRANCH   2  15
TORSDOF 9
ENDMDL
MODEL 5
REMARK VINA RESULT:      -5.4     14.476     16.587
REMARK  9 active torsions:
REMARK  status: ('A' for Active; 'I' for Inactive)
REMARK    1  A    between atoms: Se_2  and  C_14 
REMARK       I    between atoms: C_3  and  N_4 
REMARK    2  A    between atoms: C_3  and  C_5 
REMARK    3  A    between atoms: C_5  and  C_6 
REMARK    4  A    between atoms: C_6  and  C_7 
REMARK    5  A    between atoms: C_6  and  N_10 
REMARK       I    between atoms: N_10  and  C_11 
REMARK    6  A    between atoms: C_11  and  C_12 
REMARK    7  A    between atoms: C_12  and  C_13 
REMARK    8  A    between atoms: C_12  and  N_19 
REMARK    9  A    between atoms: C_13  and  C_14 
ROOT
HETATM    1  N           1     -21.000  -5.319  -5.131  0.00  0.00    -0.344 N 
HETATM    2  C           1     -21.420  -6.437  -4.462  0.00  0.00     0.249 C 
HETATM    3  H           1     -20.598  -4.545  -4.619  0.00  0.00     0.163 HD
HETATM    4  O           1     -21.902  -7.361  -5.073  0.00  0.00    -0.271 OA
ENDROOT
BRANCH   1   5
HETATM    5  C           1     -21.134  -5.244  -6.572  0.00  0.00     0.194 C 
BRANCH   5   6
HETATM    6  C           1     -21.611  -3.852  -6.965  0.00  0.00     0.138 C 
BRANCH   6   7
HETATM    7  C           1     -22.513  -3.951  -8.171  0.00  0.00     0.217 C 
HETATM    8  O           1     -22.041  -3.911  -9.283  0.00  0.00    -0.274 OA
HETATM    9  N           1     -23.865  -4.084  -8.007  0.00  0.00    -0.370 N 
HETATM   10  H           1     -24.261  -4.117  -7.076  0.00  0.00     0.159 HD
HETATM   11  H           1     -24.469  -4.150  -8.816  0.00  0.00     0.159 HD
ENDBRANCH   6   7
ENDBRANCH   5   6
BRANCH   5  12
HETATM   12  C           1     -19.796  -5.518  -7.216  0.00  0.00     0.197 C 
HETATM   13  O           1     -19.400  -6.696  -7.355  0.00  0.00    -0.646 OA
HETATM   14  O           1     -19.086  -4.568  -7.608  0.00  0.00    -0.646 OA
ENDBRANCH   5  12
ENDBRANCH   1   5
BRANCH   2  15
HETATM   15  C           1     -21.281  -6.515  -2.961  0.00  0.00     0.274 C 
BRANCH  15  16
HETATM   16  C           1     -21.143  -7.972  -2.539  0.00  0.00     0.042 C 
BRANCH  16  17
HETATM   17  C           1     -20.891  -8.045  -1.038  0.00  0.00     0.003 C 
BRANCH  17  18
HETATM   18 Se           1     -22.039  -9.409  -0.251  0.00  0.00     0.000 Se
HETATM   19  C           1     -23.254  -8.137   0.586  0.00  0.00     0.000 C 
ENDBRANCH  17  18
ENDBRANCH  16  17
ENDBRANCH  15  16
BRANCH  15  20
HETATM   20  N           1     -22.497  -5.921  -2.315  0.00  0.00    -0.067 N 
HETATM   21  H           1     -22.220  -5.089  -1.747  0.00  0.00     0.275 HD
HETATM   22  H           1     -23.175  -5.627  -3.054  0.00  0.00     0.275 HD
HETATM   23  H           1     -22.945  -6.633  -1.695  0.00  0.00     0.275 HD
ENDBRANCH  15  20
ENDBRANCH   2  15
TORSDOF 9
ENDMDL
MODEL 6
REMARK VINA RESULT:      -5.2     13.383     15.433
REMARK  9 active torsions:
REMARK  status: ('A' for Active; 'I' for Inactive)
REMARK    1  A    between atoms: Se_2  and  C_14 
REMARK       I    between atoms: C_3  and  N_4 
REMARK    2  A    between atoms: C_3  and  C_5 
REMARK    3  A    between atoms: C_5  and  C_6 
REMARK    4  A    between atoms: C_6  and  C_7 
REMARK    5  A    between atoms: C_6  and  N_10 
REMARK       I    between atoms: N_10  and  C_11 
REMARK    6  A    between atoms: C_11  and  C_12 
REMARK    7  A    between atoms: C_12  and  C_13 
REMARK    8  A    between atoms: C_12  and  N_19 
REMARK    9  A    between atoms: C_13  and  C_14 
ROOT
HETATM    1  N           1     -21.787  -4.880  -7.010  0.00  0.00    -0.344 N 
HETATM    2  C           1     -21.324  -6.002  -6.378  0.00  0.00     0.249 C 
HETATM    3  H           1     -22.140  -4.102  -6.466  0.00  0.00     0.163 HD
HETATM    4  O           1     -20.903  -6.930  -7.027  0.00  0.00    -0.271 OA
ENDROOT
BRANCH   1   5
HETATM    5  C           1     -21.771  -4.804  -8.457  0.00  0.00     0.194 C 
BRANCH   5   6
HETATM    6  C           1     -22.819  -3.802  -8.924  0.00  0.00     0.138 C 
BRANCH   6   7
HETATM    7  C           1     -23.591  -4.383 -10.084  0.00  0.00     0.217 C 
HETATM    8  O           1     -24.775  -4.594  -9.975  0.00  0.00    -0.274 OA
HETATM    9  N           1     -22.949  -4.672 -11.258  0.00  0.00    -0.370 N 
HETATM   10  H           1     -21.957  -4.496 -11.349  0.00  0.00     0.159 HD
HETATM   11  H           1     -23.467  -5.062 -12.035  0.00  0.00     0.159 HD
ENDBRANCH   6   7
ENDBRANCH   5   6
BRANCH   5  12
HETATM   12  C           1     -20.406  -4.359  -8.923  0.00  0.00     0.197 C 
HETATM   13  O           1     -20.019  -4.636 -10.079  0.00  0.00    -0.646 OA
HETATM   14  O           1     -19.664  -3.713  -8.152  0.00  0.00    -0.646 OA
ENDBRANCH   5  12
ENDBRANCH   1   5
BRANCH   2  15
HETATM   15  C           1     -21.340  -6.080  -4.871  0.00  0.00     0.274 C 
BRANCH  15  16
HETATM   16  C           1     -20.571  -7.314  -4.418  0.00  0.00     0.042 C 
BRANCH  16  17
HETATM   17  C           1     -21.436  -8.133  -3.468  0.00  0.00     0.003 C 
BRANCH  17  18
HETATM   18 Se           1     -20.739  -7.976  -1.655  0.00  0.00     0.000 Se
HETATM   19  C           1     -22.274  -6.988  -0.974  0.00  0.00     0.000 C 
ENDBRANCH  17  18
ENDBRANCH  16  17
ENDBRANCH  15  16
BRANCH  15  20
HETATM   20  N           1     -22.758  -6.172  -4.391  0.00  0.00    -0.067 N 
HETATM   21  H           1     -22.862  -5.627  -3.505  0.00  0.00     0.275 HD
HETATM   22  H           1     -23.398  -5.779  -5.118  0.00  0.00     0.275 HD
HETATM   23  H           1     -23.002  -7.172  -4.215  0.00  0.00     0.275 HD
ENDBRANCH  15  20
ENDBRANCH   2  15
TORSDOF 9
ENDMDL
MODEL 7
REMARK VINA RESULT:      -5.1     14.485     17.275
REMARK  9 active torsions:
REMARK  status: ('A' for Active; 'I' for Inactive)
REMARK    1  A    between atoms: Se_2  and  C_14 
REMARK       I    between atoms: C_3  and  N_4 
REMARK    2  A    between atoms: C_3  and  C_5 
REMARK    3  A    between atoms: C_5  and  C_6 
REMARK    4  A    between atoms: C_6  and  C_7 
REMARK    5  A    between atoms: C_6  and  N_10 
REMARK       I    between atoms: N_10  and  C_11 
REMARK    6  A    between atoms: C_11  and  C_12 
REMARK    7  A    between atoms: C_12  and  C_13 
REMARK    8  A    between atoms: C_12  and  N_19 
REMARK    9  A    between atoms: C_13  and  C_14 
ROOT
HETATM    1  N           1     -21.073  -6.635  -6.102  0.00  0.00    -0.344 N 
HETATM    2  C           1     -20.975  -5.322  -6.478  0.00  0.00     0.249 C 
HETATM    3  H           1     -21.467  -7.315  -6.739  0.00  0.00     0.163 HD
HETATM    4  O           1     -20.505  -4.510  -5.718  0.00  0.00    -0.271 OA
ENDROOT
BRANCH   1   5
HETATM    5  C           1     -20.612  -7.050  -4.792  0.00  0.00     0.194 C 
BRANCH   5   6
HETATM    6  C           1     -21.800  -7.509  -3.958  0.00  0.00     0.138 C 
BRANCH   6   7
HETATM    7  C           1     -21.710  -6.909  -2.577  0.00  0.00     0.217 C 
HETATM    8  O           1     -22.305  -5.889  -2.321  0.00  0.00    -0.274 OA
HETATM    9  N           1     -20.953  -7.519  -1.613  0.00  0.00    -0.370 N 
HETATM   10  H           1     -20.454  -8.373  -1.827  0.00  0.00     0.159 HD
HETATM   11  H           1     -20.892  -7.116  -0.687  0.00  0.00     0.159 HD
ENDBRANCH   6   7
ENDBRANCH   5   6
BRANCH   5  12
HETATM   12  C           1     -19.632  -8.188  -4.941  0.00  0.00     0.197 C 
HETATM   13  O           1     -19.166  -8.467  -6.068  0.00  0.00    -0.646 OA
HETATM   14  O           1     -19.286  -8.850  -3.940  0.00  0.00    -0.646 OA
ENDBRANCH   5  12
ENDBRANCH   1   5
BRANCH   2  15
HETATM   15  C           1     -21.455  -4.891  -7.842  0.00  0.00     0.274 C 
BRANCH  15  16
HETATM   16  C           1     -20.335  -4.155  -8.566  0.00  0.00     0.042 C 
BRANCH  16  17
HETATM   17  C           1     -20.246  -4.650 -10.004  0.00  0.00     0.003 C 
BRANCH  17  18
HETATM   18 Se           1     -21.163  -3.397 -11.181  0.00  0.00     0.000 Se
HETATM   19  C           1     -22.754  -4.502 -11.389  0.00  0.00     0.000 C 
ENDBRANCH  17  18
ENDBRANCH  16  17
ENDBRANCH  15  16
BRANCH  15  20
HETATM   20  N           1     -22.635  -3.978  -7.691  0.00  0.00    -0.067 N 
HETATM   21  H           1     -23.167  -4.235  -6.829  0.00  0.00     0.275 HD
HETATM   22  H           1     -22.303  -2.990  -7.613  0.00  0.00     0.275 HD
HETATM   23  H           1     -23.258  -4.072  -8.525  0.00  0.00     0.275 HD
ENDBRANCH  15  20
ENDBRANCH   2  15
TORSDOF 9
ENDMDL
MODEL 8
REMARK VINA RESULT:      -5.0     14.329     17.075
REMARK  9 active torsions:
REMARK  status: ('A' for Active; 'I' for Inactive)
REMARK    1  A    between atoms: Se_2  and  C_14 
REMARK       I    between atoms: C_3  and  N_4 
REMARK    2  A    between atoms: C_3  and  C_5 
REMARK    3  A    between atoms: C_5  and  C_6 
REMARK    4  A    between atoms: C_6  and  C_7 
REMARK    5  A    between atoms: C_6  and  N_10 
REMARK       I    between atoms: N_10  and  C_11 
REMARK    6  A    between atoms: C_11  and  C_12 
REMARK    7  A    between atoms: C_12  and  C_13 
REMARK    8  A    between atoms: C_12  and  N_19 
REMARK    9  A    between atoms: C_13  and  C_14 
ROOT
HETATM    1  N           1     -20.808  -6.476  -4.678  0.00  0.00    -0.344 N 
HETATM    2  C           1     -21.522  -5.676  -5.529  0.00  0.00     0.249 C 
HETATM    3  H           1     -19.800  -6.395  -4.634  0.00  0.00     0.163 HD
HETATM    4  O           1     -22.725  -5.773  -5.581  0.00  0.00    -0.271 OA
ENDROOT
BRANCH   1   5
HETATM    5  C           1     -21.495  -7.440  -3.841  0.00  0.00     0.194 C 
BRANCH   5   6
HETATM    6  C           1     -20.684  -8.728  -3.780  0.00  0.00     0.138 C 
BRANCH   6   7
HETATM    7  C           1     -20.252  -9.118  -5.172  0.00  0.00     0.217 C 
HETATM    8  O           1     -19.263  -8.623  -5.658  0.00  0.00    -0.274 OA
HETATM    9  N           1     -20.981 -10.031  -5.885  0.00  0.00    -0.370 N 
HETATM   10  H           1     -21.810 -10.446  -5.478  0.00  0.00     0.159 HD
HETATM   11  H           1     -20.691 -10.293  -6.819  0.00  0.00     0.159 HD
ENDBRANCH   6   7
ENDBRANCH   5   6
BRANCH   5  12
HETATM   12  C           1     -21.650  -6.876  -2.449  0.00  0.00     0.197 C 
HETATM   13  O           1     -21.013  -7.378  -1.498  0.00  0.00    -0.646 OA
HETATM   14  O           1     -22.414  -5.908  -2.249  0.00  0.00    -0.646 OA
ENDBRANCH   5  12
ENDBRANCH   1   5
BRANCH   2  15
HETATM   15  C           1     -20.806  -4.673  -6.400  0.00  0.00     0.274 C 
BRANCH  15  16
HETATM   16  C           1     -21.783  -4.093  -7.414  0.00  0.00     0.042 C 
BRANCH  16  17
HETATM   17  C           1     -21.587  -4.780  -8.760  0.00  0.00     0.003 C 
BRANCH  17  18
HETATM   18 Se           1     -22.375  -3.688 -10.168  0.00  0.00     0.000 Se
HETATM   19  C           1     -24.153  -3.653  -9.372  0.00  0.00     0.000 C 
ENDBRANCH  17  18
ENDBRANCH  16  17
ENDBRANCH  15  16
BRANCH  15  20
HETATM   20  N           1     -19.681  -5.352  -7.123  0.00  0.00    -0.067 N 
HETATM   21  H           1     -18.917  -5.576  -6.446  0.00  0.00     0.275 HD
HETATM   22  H           1     -20.030  -6.236  -7.557  0.00  0.00     0.275 HD
HETATM   23  H           1     -19.313  -4.719  -7.867  0.00  0.00     0.275 HD
ENDBRANCH  15  20
ENDBRANCH   2  15
TORSDOF 9
ENDMDL
MODEL 9
REMARK VINA RESULT:      -5.0     15.751     18.509
REMARK  9 active torsions:
REMARK  status: ('A' for Active; 'I' for Inactive)
REMARK    1  A    between atoms: Se_2  and  C_14 
REMARK       I    between atoms: C_3  and  N_4 
REMARK    2  A    between atoms: C_3  and  C_5 
REMARK    3  A    between atoms: C_5  and  C_6 
REMARK    4  A    between atoms: C_6  and  C_7 
REMARK    5  A    between atoms: C_6  and  N_10 
REMARK       I    between atoms: N_10  and  C_11 
REMARK    6  A    between atoms: C_11  and  C_12 
REMARK    7  A    between atoms: C_12  and  C_13 
REMARK    8  A    between atoms: C_12  and  N_19 
REMARK    9  A    between atoms: C_13  and  C_14 
ROOT
HETATM    1  N           1     -21.660  -8.416  -2.732  0.00  0.00    -0.344 N 
HETATM    2  C           1     -20.850  -8.165  -3.806  0.00  0.00     0.249 C 
HETATM    3  H           1     -22.617  -8.088  -2.733  0.00  0.00     0.163 HD
HETATM    4  O           1     -19.707  -8.556  -3.804  0.00  0.00    -0.271 OA
ENDROOT
BRANCH   1   5
HETATM    5  C           1     -21.147  -9.151  -1.592  0.00  0.00     0.194 C 
BRANCH   5   6
HETATM    6  C           1     -21.161  -8.254  -0.362  0.00  0.00     0.138 C 
BRANCH   6   7
HETATM    7  C           1     -22.488  -7.542  -0.272  0.00  0.00     0.217 C 
HETATM    8  O           1     -22.684  -6.545  -0.925  0.00  0.00    -0.274 OA
HETATM    9  N           1     -23.471  -8.026   0.550  0.00  0.00    -0.370 N 
HETATM   10  H           1     -23.307  -8.861   1.097  0.00  0.00     0.159 HD
HETATM   11  H           1     -24.361  -7.549   0.610  0.00  0.00     0.159 HD
ENDBRANCH   6   7
ENDBRANCH   5   6
BRANCH   5  12
HETATM   12  C           1     -22.014 -10.361  -1.343  0.00  0.00     0.197 C 
HETATM   13  O           1     -22.696 -10.843  -2.273  0.00  0.00    -0.646 OA
HETATM   14  O           1     -22.050 -10.880  -0.206  0.00  0.00    -0.646 OA
ENDBRANCH   5  12
ENDBRANCH   1   5
BRANCH   2  15
HETATM   15  C           1     -21.384  -7.400  -4.991  0.00  0.00     0.274 C 
BRANCH  15  16
HETATM   16  C           1     -20.222  -6.819  -5.786  0.00  0.00     0.042 C 
BRANCH  16  17
HETATM   17  C           1     -20.441  -5.324  -5.987  0.00  0.00     0.003 C 
BRANCH  17  18
HETATM   18 Se           1     -20.741  -4.959  -7.878  0.00  0.00     0.000 Se
HETATM   19  C           1     -22.568  -4.327  -7.634  0.00  0.00     0.000 C 
ENDBRANCH  17  18
ENDBRANCH  16  17
ENDBRANCH  15  16
BRANCH  15  20
HETATM   20  N           1     -22.267  -6.287  -4.511  0.00  0.00    -0.067 N 
HETATM   21  H           1     -23.244  -6.448  -4.845  0.00  0.00     0.275 HD
HETATM   22  H           1     -22.257  -6.261  -3.466  0.00  0.00     0.275 HD
HETATM   23  H           1     -21.916  -5.377  -4.886  0.00  0.00     0.275 HD
ENDBRANCH  15  20
ENDBRANCH   2  15
TORSDOF 9
ENDMDL
