MODEL 1
REMARK VINA RESULT:      -6.7      0.000      0.000
REMARK  10 active torsions:
REMARK  status: ('A' for Active; 'I' for Inactive)
REMARK    1  A    between atoms: C_1  and  C_18 
REMARK    2  A    between atoms: C_1  and  C_19 
REMARK    3  A    between atoms: C_1  and  N_23 
REMARK    4  A    between atoms: N_2  and  C_15 
REMARK       I    between atoms: N_2  and  C_18 
REMARK    5  A    between atoms: C_4  and  C_10 
REMARK    6  A    between atoms: C_6  and  C_15 
REMARK    7  A    between atoms: C_8  and  C_19 
REMARK    8  A    between atoms: C_8  and  C_22 
REMARK    9  A    between atoms: C_9  and  C_10 
REMARK   10  A    between atoms: C_9  and  C_15 
REMARK       I    between atoms: N_21  and  C_22 
ROOT
HETATM    1  N           1     -35.254  -0.852 -12.239  0.00  0.00    -0.345 N 
HETATM    2  O           1     -34.684  -2.742 -13.284  0.00  0.00    -0.271 OA
HETATM    3  C           1     -34.497  -1.987 -12.360  0.00  0.00     0.249 C 
HETATM    4  H           1     -35.097  -0.220 -11.464  0.00  0.00     0.163 HD
ENDROOT
BRANCH   3   5
HETATM    5  C           1     -33.429  -2.294 -11.339  0.00  0.00     0.275 C 
BRANCH   5   6
HETATM    6  C           1     -33.066  -3.771 -11.411  0.00  0.00     0.052 C 
BRANCH   6   7
HETATM    7  C           1     -34.013  -4.570 -10.525  0.00  0.00     0.105 C 
BRANCH   7   8
HETATM    8  C           1     -34.429  -5.831 -11.242  0.00  0.00     0.215 C 
HETATM    9  O           1     -34.421  -6.889 -10.657  0.00  0.00    -0.274 OA
HETATM   10  N           1     -34.814  -5.777 -12.554  0.00  0.00    -0.370 N 
HETATM   11  H           1     -34.820  -4.891 -13.044  0.00  0.00     0.159 HD
HETATM   12  H           1     -35.094  -6.624 -13.034  0.00  0.00     0.159 HD
ENDBRANCH   7   8
ENDBRANCH   6   7
ENDBRANCH   5   6
BRANCH   5  13
HETATM   13  N           1     -33.942  -1.972  -9.967  0.00  0.00    -0.066 N 
HETATM   14  H           1     -34.026  -2.853  -9.411  0.00  0.00     0.275 HD
HETATM   15  H           1     -34.880  -1.517 -10.045  0.00  0.00     0.275 HD
HETATM   16  H           1     -33.279  -1.321  -9.490  0.00  0.00     0.275 HD
ENDBRANCH   5  13
ENDBRANCH   3   5
BRANCH   1  17
HETATM   17  C           1     -36.281  -0.558 -13.219  0.00  0.00     0.186 C 
BRANCH  17  18
HETATM   18  C           1     -35.751   0.444 -14.216  0.00  0.00     0.196 C 
HETATM   19  O           1     -34.844   1.238 -13.882  0.00  0.00    -0.646 OA
HETATM   20  O           1     -36.219   0.481 -15.374  0.00  0.00    -0.646 OA
ENDBRANCH  17  18
BRANCH  17  21
HETATM   21  C           1     -37.501   0.021 -12.516  0.00  0.00     0.046 C 
BRANCH  21  22
HETATM   22  C           1     -37.631  -0.598 -11.131  0.00  0.00     0.116 C 
BRANCH  22  23
HETATM   23  C           1     -37.264   0.426 -10.085  0.00  0.00     0.172 C 
HETATM   24  O           1     -36.172   0.341  -9.484  0.00  0.00    -0.648 OA
HETATM   25  O           1     -38.053   1.359  -9.820  0.00  0.00    -0.648 OA
ENDBRANCH  22  23
ENDBRANCH  21  22
ENDBRANCH  17  21
ENDBRANCH   1  17
TORSDOF 10
ENDMDL
MODEL 2
REMARK VINA RESULT:      -6.6     12.221     14.334
REMARK  10 active torsions:
REMARK  status: ('A' for Active; 'I' for Inactive)
REMARK    1  A    between atoms: C_1  and  C_18 
REMARK    2  A    between atoms: C_1  and  C_19 
REMARK    3  A    between atoms: C_1  and  N_23 
REMARK    4  A    between atoms: N_2  and  C_15 
REMARK       I    between atoms: N_2  and  C_18 
REMARK    5  A    between atoms: C_4  and  C_10 
REMARK    6  A    between atoms: C_6  and  C_15 
REMARK    7  A    between atoms: C_8  and  C_19 
REMARK    8  A    between atoms: C_8  and  C_22 
REMARK    9  A    between atoms: C_9  and  C_10 
REMARK   10  A    between atoms: C_9  and  C_15 
REMARK       I    between atoms: N_21  and  C_22 
ROOT
HETATM    1  N           1     -22.232  -4.907  -8.995  0.00  0.00    -0.345 N 
HETATM    2  O           1     -21.660  -3.581  -7.290  0.00  0.00    -0.271 OA
HETATM    3  C           1     -21.696  -4.697  -7.752  0.00  0.00     0.249 C 
HETATM    4  H           1     -22.262  -5.841  -9.382  0.00  0.00     0.163 HD
ENDROOT
BRANCH   3   5
HETATM    5  C           1     -21.150  -5.859  -6.961  0.00  0.00     0.275 C 
BRANCH   5   6
HETATM    6  C           1     -21.150  -5.510  -5.478  0.00  0.00     0.052 C 
BRANCH   6   7
HETATM    7  C           1     -22.171  -6.378  -4.753  0.00  0.00     0.105 C 
BRANCH   7   8
HETATM    8  C           1     -21.738  -6.573  -3.320  0.00  0.00     0.215 C 
HETATM    9  O           1     -20.828  -7.324  -3.061  0.00  0.00    -0.274 OA
HETATM   10  N           1     -22.378  -5.899  -2.315  0.00  0.00    -0.370 N 
HETATM   11  H           1     -23.141  -5.270  -2.532  0.00  0.00     0.159 HD
HETATM   12  H           1     -22.087  -6.030  -1.354  0.00  0.00     0.159 HD
ENDBRANCH   7   8
ENDBRANCH   6   7
ENDBRANCH   5   6
BRANCH   5  13
HETATM   13  N           1     -19.747  -6.150  -7.405  0.00  0.00    -0.066 N 
HETATM   14  H           1     -19.175  -6.445  -6.582  0.00  0.00     0.275 HD
HETATM   15  H           1     -19.331  -5.290  -7.830  0.00  0.00     0.275 HD
HETATM   16  H           1     -19.757  -6.917  -8.114  0.00  0.00     0.275 HD
ENDBRANCH   5  13
ENDBRANCH   3   5
BRANCH   1  17
HETATM   17  C           1     -22.757  -3.789  -9.756  0.00  0.00     0.186 C 
BRANCH  17  18
HETATM   18  C           1     -24.265  -3.817  -9.713  0.00  0.00     0.196 C 
HETATM   19  O           1     -24.903  -2.770  -9.465  0.00  0.00    -0.646 OA
HETATM   20  O           1     -24.877  -4.886  -9.926  0.00  0.00    -0.646 OA
ENDBRANCH  17  18
BRANCH  17  21
HETATM   21  C           1     -22.287  -3.895 -11.200  0.00  0.00     0.046 C 
BRANCH  21  22
HETATM   22  C           1     -22.491  -2.558 -11.901  0.00  0.00     0.116 C 
BRANCH  22  23
HETATM   23  C           1     -23.315  -2.763 -13.148  0.00  0.00     0.172 C 
HETATM   24  O           1     -22.754  -2.836 -14.262  0.00  0.00    -0.648 OA
HETATM   25  O           1     -24.559  -2.859 -13.067  0.00  0.00    -0.648 OA
ENDBRANCH  22  23
ENDBRANCH  21  22
ENDBRANCH  17  21
ENDBRANCH   1  17
TORSDOF 10
ENDMDL
MODEL 3
REMARK VINA RESULT:      -6.6      1.753      3.401
REMARK  10 active torsions:
REMARK  status: ('A' for Active; 'I' for Inactive)
REMARK    1  A    between atoms: C_1  and  C_18 
REMARK    2  A    between atoms: C_1  and  C_19 
REMARK    3  A    between atoms: C_1  and  N_23 
REMARK    4  A    between atoms: N_2  and  C_15 
REMARK       I    between atoms: N_2  and  C_18 
REMARK    5  A    between atoms: C_4  and  C_10 
REMARK    6  A    between atoms: C_6  and  C_15 
REMARK    7  A    between atoms: C_8  and  C_19 
REMARK    8  A    between atoms: C_8  and  C_22 
REMARK    9  A    between atoms: C_9  and  C_10 
REMARK   10  A    between atoms: C_9  and  C_15 
REMARK       I    between atoms: N_21  and  C_22 
ROOT
HETATM    1  N           1     -35.072  -1.797 -12.648  0.00  0.00    -0.345 N 
HETATM    2  O           1     -33.524  -2.202 -11.089  0.00  0.00    -0.271 OA
HETATM    3  C           1     -34.212  -2.631 -11.985  0.00  0.00     0.249 C 
HETATM    4  H           1     -35.647  -2.156 -13.399  0.00  0.00     0.163 HD
ENDROOT
BRANCH   3   5
HETATM    5  C           1     -34.122  -4.086 -12.375  0.00  0.00     0.275 C 
BRANCH   5   6
HETATM    6  C           1     -34.708  -4.948 -11.264  0.00  0.00     0.052 C 
BRANCH   6   7
HETATM    7  C           1     -33.716  -6.043 -10.894  0.00  0.00     0.105 C 
BRANCH   7   8
HETATM    8  C           1     -34.452  -7.192 -10.251  0.00  0.00     0.215 C 
HETATM    9  O           1     -35.391  -6.976  -9.521  0.00  0.00    -0.274 OA
HETATM   10  N           1     -34.056  -8.480 -10.495  0.00  0.00    -0.370 N 
HETATM   11  H           1     -33.270  -8.661 -11.106  0.00  0.00     0.159 HD
HETATM   12  H           1     -34.551  -9.251 -10.063  0.00  0.00     0.159 HD
ENDBRANCH   7   8
ENDBRANCH   6   7
ENDBRANCH   5   6
BRANCH   5  13
HETATM   13  N           1     -32.684  -4.457 -12.588  0.00  0.00    -0.066 N 
HETATM   14  H           1     -32.114  -4.126 -11.778  0.00  0.00     0.275 HD
HETATM   15  H           1     -32.336  -4.010 -13.467  0.00  0.00     0.275 HD
HETATM   16  H           1     -32.601  -5.496 -12.671  0.00  0.00     0.275 HD
ENDBRANCH   5  13
ENDBRANCH   3   5
BRANCH   1  17
HETATM   17  C           1     -35.158  -0.398 -12.274  0.00  0.00     0.186 C 
BRANCH  17  18
HETATM   18  C           1     -36.392  -0.178 -11.432  0.00  0.00     0.196 C 
HETATM   19  O           1     -36.324   0.510 -10.391  0.00  0.00    -0.646 OA
HETATM   20  O           1     -37.481  -0.685 -11.777  0.00  0.00    -0.646 OA
ENDBRANCH  17  18
BRANCH  17  21
HETATM   21  C           1     -35.240   0.458 -13.530  0.00  0.00     0.046 C 
BRANCH  21  22
HETATM   22  C           1     -35.530  -0.431 -14.732  0.00  0.00     0.116 C 
BRANCH  22  23
HETATM   23  C           1     -36.872  -0.067 -15.317  0.00  0.00     0.172 C 
HETATM   24  O           1     -37.875  -0.769 -15.063  0.00  0.00    -0.648 OA
HETATM   25  O           1     -36.982   0.936 -16.056  0.00  0.00    -0.648 OA
ENDBRANCH  22  23
ENDBRANCH  21  22
ENDBRANCH  17  21
ENDBRANCH   1  17
TORSDOF 10
ENDMDL
MODEL 4
REMARK VINA RESULT:      -6.1      2.481      5.804
REMARK  10 active torsions:
REMARK  status: ('A' for Active; 'I' for Inactive)
REMARK    1  A    between atoms: C_1  and  C_18 
REMARK    2  A    between atoms: C_1  and  C_19 
REMARK    3  A    between atoms: C_1  and  N_23 
REMARK    4  A    between atoms: N_2  and  C_15 
REMARK       I    between atoms: N_2  and  C_18 
REMARK    5  A    between atoms: C_4  and  C_10 
REMARK    6  A    between atoms: C_6  and  C_15 
REMARK    7  A    between atoms: C_8  and  C_19 
REMARK    8  A    between atoms: C_8  and  C_22 
REMARK    9  A    between atoms: C_9  and  C_10 
REMARK   10  A    between atoms: C_9  and  C_15 
REMARK       I    between atoms: N_21  and  C_22 
ROOT
HETATM    1  N           1     -35.007  -2.001 -13.188  0.00  0.00    -0.345 N 
HETATM    2  O           1     -34.119  -0.810 -11.520  0.00  0.00    -0.271 OA
HETATM    3  C           1     -34.820  -0.830 -12.504  0.00  0.00     0.249 C 
HETATM    4  H           1     -35.595  -2.018 -14.012  0.00  0.00     0.163 HD
ENDROOT
BRANCH   3   5
HETATM    5  C           1     -35.490   0.436 -12.978  0.00  0.00     0.275 C 
BRANCH   5   6
HETATM    6  C           1     -36.496   0.100 -14.072  0.00  0.00     0.052 C 
BRANCH   6   7
HETATM    7  C           1     -35.920   0.490 -15.428  0.00  0.00     0.105 C 
BRANCH   7   8
HETATM    8  C           1     -36.029  -0.679 -16.375  0.00  0.00     0.215 C 
HETATM    9  O           1     -37.032  -0.833 -17.031  0.00  0.00    -0.274 OA
HETATM   10  N           1     -34.992  -1.565 -16.492  0.00  0.00    -0.370 N 
HETATM   11  H           1     -34.152  -1.435 -15.942  0.00  0.00     0.159 HD
HETATM   12  H           1     -35.066  -2.349 -17.128  0.00  0.00     0.159 HD
ENDBRANCH   7   8
ENDBRANCH   6   7
ENDBRANCH   5   6
BRANCH   5  13
HETATM   13  N           1     -34.455   1.375 -13.523  0.00  0.00    -0.066 N 
HETATM   14  H           1     -34.918   2.093 -14.125  0.00  0.00     0.275 HD
HETATM   15  H           1     -33.761   0.837 -14.090  0.00  0.00     0.275 HD
HETATM   16  H           1     -33.964   1.850 -12.732  0.00  0.00     0.275 HD
ENDBRANCH   5  13
ENDBRANCH   3   5
BRANCH   1  17
HETATM   17  C           1     -34.363  -3.218 -12.731  0.00  0.00     0.186 C 
BRANCH  17  18
HETATM   18  C           1     -34.337  -4.225 -13.855  0.00  0.00     0.196 C 
HETATM   19  O           1     -33.670  -3.993 -14.887  0.00  0.00    -0.646 OA
HETATM   20  O           1     -34.984  -5.290 -13.755  0.00  0.00    -0.646 OA
ENDBRANCH  17  18
BRANCH  17  21
HETATM   21  C           1     -35.141  -3.791 -11.554  0.00  0.00     0.046 C 
BRANCH  21  22
HETATM   22  C           1     -34.168  -4.245 -10.475  0.00  0.00     0.116 C 
BRANCH  22  23
HETATM   23  C           1     -34.034  -5.747 -10.517  0.00  0.00     0.172 C 
HETATM   24  O           1     -34.888  -6.467  -9.956  0.00  0.00    -0.648 OA
HETATM   25  O           1     -33.069  -6.273 -11.113  0.00  0.00    -0.648 OA
ENDBRANCH  22  23
ENDBRANCH  21  22
ENDBRANCH  17  21
ENDBRANCH   1  17
TORSDOF 10
ENDMDL
MODEL 5
REMARK VINA RESULT:      -6.1      2.449      5.467
REMARK  10 active torsions:
REMARK  status: ('A' for Active; 'I' for Inactive)
REMARK    1  A    between atoms: C_1  and  C_18 
REMARK    2  A    between atoms: C_1  and  C_19 
REMARK    3  A    between atoms: C_1  and  N_23 
REMARK    4  A    between atoms: N_2  and  C_15 
REMARK       I    between atoms: N_2  and  C_18 
REMARK    5  A    between atoms: C_4  and  C_10 
REMARK    6  A    between atoms: C_6  and  C_15 
REMARK    7  A    between atoms: C_8  and  C_19 
REMARK    8  A    between atoms: C_8  and  C_22 
REMARK    9  A    between atoms: C_9  and  C_10 
REMARK   10  A    between atoms: C_9  and  C_15 
REMARK       I    between atoms: N_21  and  C_22 
ROOT
HETATM    1  N           1     -34.822  -1.382 -13.195  0.00  0.00    -0.345 N 
HETATM    2  O           1     -37.021  -0.989 -13.211  0.00  0.00    -0.271 OA
HETATM    3  C           1     -35.934  -0.741 -13.674  0.00  0.00     0.249 C 
HETATM    4  H           1     -33.912  -1.175 -13.584  0.00  0.00     0.163 HD
ENDROOT
BRANCH   3   5
HETATM    5  C           1     -35.800   0.274 -14.782  0.00  0.00     0.275 C 
BRANCH   5   6
HETATM    6  C           1     -34.857  -0.261 -15.852  0.00  0.00     0.052 C 
BRANCH   6   7
HETATM    7  C           1     -35.535  -1.402 -16.600  0.00  0.00     0.105 C 
BRANCH   7   8
HETATM    8  C           1     -34.656  -2.627 -16.552  0.00  0.00     0.215 C 
HETATM    9  O           1     -34.780  -3.425 -15.653  0.00  0.00    -0.274 OA
HETATM   10  N           1     -33.717  -2.835 -17.526  0.00  0.00    -0.370 N 
HETATM   11  H           1     -33.612  -2.166 -18.279  0.00  0.00     0.159 HD
HETATM   12  H           1     -33.128  -3.658 -17.493  0.00  0.00     0.159 HD
ENDBRANCH   7   8
ENDBRANCH   6   7
ENDBRANCH   5   6
BRANCH   5  13
HETATM   13  N           1     -35.247   1.552 -14.224  0.00  0.00    -0.066 N 
HETATM   14  H           1     -35.734   2.365 -14.665  0.00  0.00     0.275 HD
HETATM   15  H           1     -34.223   1.606 -14.426  0.00  0.00     0.275 HD
HETATM   16  H           1     -35.398   1.576 -13.190  0.00  0.00     0.275 HD
ENDBRANCH   5  13
ENDBRANCH   3   5
BRANCH   1  17
HETATM   17  C           1     -34.952  -2.359 -12.131  0.00  0.00     0.186 C 
BRANCH  17  18
HETATM   18  C           1     -34.545  -1.730 -10.820  0.00  0.00     0.196 C 
HETATM   19  O           1     -35.407  -1.199 -10.087  0.00  0.00    -0.646 OA
HETATM   20  O           1     -33.345  -1.741 -10.468  0.00  0.00    -0.646 OA
ENDBRANCH  17  18
BRANCH  17  21
HETATM   21  C           1     -34.050  -3.550 -12.425  0.00  0.00     0.046 C 
BRANCH  21  22
HETATM   22  C           1     -34.822  -4.842 -12.191  0.00  0.00     0.116 C 
BRANCH  22  23
HETATM   23  C           1     -34.115  -5.669 -11.145  0.00  0.00     0.172 C 
HETATM   24  O           1     -32.881  -5.854 -11.224  0.00  0.00    -0.648 OA
HETATM   25  O           1     -34.763  -6.169 -10.200  0.00  0.00    -0.648 OA
ENDBRANCH  22  23
ENDBRANCH  21  22
ENDBRANCH  17  21
ENDBRANCH   1  17
TORSDOF 10
ENDMDL
MODEL 6
REMARK VINA RESULT:      -6.0     12.249     14.853
REMARK  10 active torsions:
REMARK  status: ('A' for Active; 'I' for Inactive)
REMARK    1  A    between atoms: C_1  and  C_18 
REMARK    2  A    between atoms: C_1  and  C_19 
REMARK    3  A    between atoms: C_1  and  N_23 
REMARK    4  A    between atoms: N_2  and  C_15 
REMARK       I    between atoms: N_2  and  C_18 
REMARK    5  A    between atoms: C_4  and  C_10 
REMARK    6  A    between atoms: C_6  and  C_15 
REMARK    7  A    between atoms: C_8  and  C_19 
REMARK    8  A    between atoms: C_8  and  C_22 
REMARK    9  A    between atoms: C_9  and  C_10 
REMARK   10  A    between atoms: C_9  and  C_15 
REMARK       I    between atoms: N_21  and  C_22 
ROOT
HETATM    1  N           1     -22.256  -5.262  -8.663  0.00  0.00    -0.345 N 
HETATM    2  O           1     -22.998  -3.155  -8.661  0.00  0.00    -0.271 OA
HETATM    3  C           1     -23.116  -4.281  -9.081  0.00  0.00     0.249 C 
HETATM    4  H           1     -22.356  -6.205  -9.015  0.00  0.00     0.163 HD
ENDROOT
BRANCH   3   5
HETATM    5  C           1     -24.211  -4.608 -10.066  0.00  0.00     0.275 C 
BRANCH   5   6
HETATM    6  C           1     -23.688  -4.435 -11.486  0.00  0.00     0.052 C 
BRANCH   6   7
HETATM    7  C           1     -24.130  -3.082 -12.029  0.00  0.00     0.105 C 
BRANCH   7   8
HETATM    8  C           1     -23.446  -2.820 -13.348  0.00  0.00     0.215 C 
HETATM    9  O           1     -24.030  -2.228 -14.224  0.00  0.00    -0.274 OA
HETATM   10  N           1     -22.164  -3.255 -13.551  0.00  0.00    -0.370 N 
HETATM   11  H           1     -21.675  -3.751 -12.817  0.00  0.00     0.159 HD
HETATM   12  H           1     -21.705  -3.079 -14.437  0.00  0.00     0.159 HD
ENDBRANCH   7   8
ENDBRANCH   6   7
ENDBRANCH   5   6
BRANCH   5  13
HETATM   13  N           1     -25.373  -3.684  -9.846  0.00  0.00    -0.066 N 
HETATM   14  H           1     -25.504  -3.528  -8.821  0.00  0.00     0.275 HD
HETATM   15  H           1     -26.238  -4.111 -10.250  0.00  0.00     0.275 HD
HETATM   16  H           1     -25.185  -2.770 -10.316  0.00  0.00     0.275 HD
ENDBRANCH   5  13
ENDBRANCH   3   5
BRANCH   1  17
HETATM   17  C           1     -21.204  -4.948  -7.716  0.00  0.00     0.186 C 
BRANCH  17  18
HETATM   18  C           1     -19.937  -4.616  -8.465  0.00  0.00     0.196 C 
HETATM   19  O           1     -18.942  -4.177  -7.848  0.00  0.00    -0.646 OA
HETATM   20  O           1     -19.881  -4.781  -9.703  0.00  0.00    -0.646 OA
ENDBRANCH  17  18
BRANCH  17  21
HETATM   21  C           1     -20.961  -6.150  -6.813  0.00  0.00     0.046 C 
BRANCH  21  22
HETATM   22  C           1     -20.811  -5.680  -5.372  0.00  0.00     0.116 C 
BRANCH  22  23
HETATM   23  C           1     -21.641  -6.557  -4.467  0.00  0.00     0.172 C 
HETATM   24  O           1     -21.663  -7.794  -4.644  0.00  0.00    -0.648 OA
HETATM   25  O           1     -22.307  -6.046  -3.540  0.00  0.00    -0.648 OA
ENDBRANCH  22  23
ENDBRANCH  21  22
ENDBRANCH  17  21
ENDBRANCH   1  17
TORSDOF 10
ENDMDL
MODEL 7
REMARK VINA RESULT:      -6.0     12.499     14.363
REMARK  10 active torsions:
REMARK  status: ('A' for Active; 'I' for Inactive)
REMARK    1  A    between atoms: C_1  and  C_18 
REMARK    2  A    between atoms: C_1  and  C_19 
REMARK    3  A    between atoms: C_1  and  N_23 
REMARK    4  A    between atoms: N_2  and  C_15 
REMARK       I    between atoms: N_2  and  C_18 
REMARK    5  A    between atoms: C_4  and  C_10 
REMARK    6  A    between atoms: C_6  and  C_15 
REMARK    7  A    between atoms: C_8  and  C_19 
REMARK    8  A    between atoms: C_8  and  C_22 
REMARK    9  A    between atoms: C_9  and  C_10 
REMARK   10  A    between atoms: C_9  and  C_15 
REMARK       I    between atoms: N_21  and  C_22 
ROOT
HETATM    1  N           1     -21.966  -4.027  -9.270  0.00  0.00    -0.345 N 
HETATM    2  O           1     -20.159  -5.131  -8.557  0.00  0.00    -0.271 OA
HETATM    3  C           1     -21.129  -4.466  -8.278  0.00  0.00     0.249 C 
HETATM    4  H           1     -22.778  -3.471  -9.036  0.00  0.00     0.163 HD
ENDROOT
BRANCH   3   5
HETATM    5  C           1     -21.418  -4.121  -6.838  0.00  0.00     0.275 C 
BRANCH   5   6
HETATM    6  C           1     -20.328  -4.701  -5.947  0.00  0.00     0.052 C 
BRANCH   6   7
HETATM    7  C           1     -20.942  -5.710  -4.985  0.00  0.00     0.105 C 
BRANCH   7   8
HETATM    8  C           1     -20.560  -7.107  -5.410  0.00  0.00     0.215 C 
HETATM    9  O           1     -21.081  -8.062  -4.885  0.00  0.00    -0.274 OA
HETATM   10  N           1     -19.622  -7.292  -6.390  0.00  0.00    -0.370 N 
HETATM   11  H           1     -19.185  -6.491  -6.830  0.00  0.00     0.159 HD
HETATM   12  H           1     -19.366  -8.229  -6.675  0.00  0.00     0.159 HD
ENDBRANCH   7   8
ENDBRANCH   6   7
ENDBRANCH   5   6
BRANCH   5  13
HETATM   13  N           1     -22.745  -4.699  -6.444  0.00  0.00    -0.066 N 
HETATM   14  H           1     -22.594  -5.557  -5.867  0.00  0.00     0.275 HD
HETATM   15  H           1     -23.287  -4.945  -7.303  0.00  0.00     0.275 HD
HETATM   16  H           1     -23.280  -3.996  -5.886  0.00  0.00     0.275 HD
ENDBRANCH   5  13
ENDBRANCH   3   5
BRANCH   1  17
HETATM   17  C           1     -21.687  -4.360 -10.653  0.00  0.00     0.186 C 
BRANCH  17  18
HETATM   18  C           1     -21.223  -3.123 -11.383  0.00  0.00     0.196 C 
HETATM   19  O           1     -20.045  -2.725 -11.253  0.00  0.00    -0.646 OA
HETATM   20  O           1     -22.017  -2.497 -12.119  0.00  0.00    -0.646 OA
ENDBRANCH  17  18
BRANCH  17  21
HETATM   21  C           1     -22.953  -4.893 -11.310  0.00  0.00     0.046 C 
BRANCH  21  22
HETATM   22  C           1     -24.108  -4.823 -10.320  0.00  0.00     0.116 C 
BRANCH  22  23
HETATM   23  C           1     -24.800  -3.488 -10.444  0.00  0.00     0.172 C 
HETATM   24  O           1     -25.155  -3.071 -11.568  0.00  0.00    -0.648 OA
HETATM   25  O           1     -25.017  -2.798  -9.424  0.00  0.00    -0.648 OA
ENDBRANCH  22  23
ENDBRANCH  21  22
ENDBRANCH  17  21
ENDBRANCH   1  17
TORSDOF 10
ENDMDL
MODEL 8
REMARK VINA RESULT:      -5.9      4.114      6.084
REMARK  10 active torsions:
REMARK  status: ('A' for Active; 'I' for Inactive)
REMARK    1  A    between atoms: C_1  and  C_18 
REMARK    2  A    between atoms: C_1  and  C_19 
REMARK    3  A    between atoms: C_1  and  N_23 
REMARK    4  A    between atoms: N_2  and  C_15 
REMARK       I    between atoms: N_2  and  C_18 
REMARK    5  A    between atoms: C_4  and  C_10 
REMARK    6  A    between atoms: C_6  and  C_15 
REMARK    7  A    between atoms: C_8  and  C_19 
REMARK    8  A    between atoms: C_8  and  C_22 
REMARK    9  A    between atoms: C_9  and  C_10 
REMARK   10  A    between atoms: C_9  and  C_15 
REMARK       I    between atoms: N_21  and  C_22 
ROOT
HETATM    1  N           1     -33.450  -3.998 -14.241  0.00  0.00    -0.345 N 
HETATM    2  O           1     -35.033  -4.952 -15.496  0.00  0.00    -0.271 OA
HETATM    3  C           1     -33.913  -4.505 -15.426  0.00  0.00     0.249 C 
HETATM    4  H           1     -32.511  -3.625 -14.182  0.00  0.00     0.163 HD
ENDROOT
BRANCH   3   5
HETATM    5  C           1     -33.022  -4.508 -16.644  0.00  0.00     0.275 C 
BRANCH   5   6
HETATM    6  C           1     -31.584  -4.777 -16.223  0.00  0.00     0.052 C 
BRANCH   6   7
HETATM    7  C           1     -30.957  -5.789 -17.174  0.00  0.00     0.105 C 
BRANCH   7   8
HETATM    8  C           1     -29.707  -6.359 -16.551  0.00  0.00     0.215 C 
HETATM    9  O           1     -29.200  -5.809 -15.601  0.00  0.00    -0.274 OA
HETATM   10  N           1     -29.145  -7.497 -17.062  0.00  0.00    -0.370 N 
HETATM   11  H           1     -29.569  -7.958 -17.858  0.00  0.00     0.159 HD
HETATM   12  H           1     -28.306  -7.879 -16.643  0.00  0.00     0.159 HD
ENDBRANCH   7   8
ENDBRANCH   6   7
ENDBRANCH   5   6
BRANCH   5  13
HETATM   13  N           1     -33.101  -3.172 -17.323  0.00  0.00    -0.066 N 
HETATM   14  H           1     -32.272  -3.048 -17.946  0.00  0.00     0.275 HD
HETATM   15  H           1     -33.114  -2.416 -16.602  0.00  0.00     0.275 HD
HETATM   16  H           1     -33.975  -3.122 -17.893  0.00  0.00     0.275 HD
ENDBRANCH   5  13
ENDBRANCH   3   5
BRANCH   1  17
HETATM   17  C           1     -34.306  -3.997 -13.070  0.00  0.00     0.186 C 
BRANCH  17  18
HETATM   18  C           1     -34.638  -2.574 -12.693  0.00  0.00     0.196 C 
HETATM   19  O           1     -33.970  -1.988 -11.814  0.00  0.00    -0.646 OA
HETATM   20  O           1     -35.582  -1.982 -13.259  0.00  0.00    -0.646 OA
ENDBRANCH  17  18
BRANCH  17  21
HETATM   21  C           1     -33.582  -4.674 -11.914  0.00  0.00     0.046 C 
BRANCH  21  22
HETATM   22  C           1     -34.594  -5.088 -10.854  0.00  0.00     0.116 C 
BRANCH  22  23
HETATM   23  C           1     -34.295  -6.493 -10.393  0.00  0.00     0.172 C 
HETATM   24  O           1     -35.108  -7.097  -9.660  0.00  0.00    -0.648 OA
HETATM   25  O           1     -33.234  -7.055 -10.745  0.00  0.00    -0.648 OA
ENDBRANCH  22  23
ENDBRANCH  21  22
ENDBRANCH  17  21
ENDBRANCH   1  17
TORSDOF 10
ENDMDL
MODEL 9
REMARK VINA RESULT:      -5.7      2.138      6.105
REMARK  10 active torsions:
REMARK  status: ('A' for Active; 'I' for Inactive)
REMARK    1  A    between atoms: C_1  and  C_18 
REMARK    2  A    between atoms: C_1  and  C_19 
REMARK    3  A    between atoms: C_1  and  N_23 
REMARK    4  A    between atoms: N_2  and  C_15 
REMARK       I    between atoms: N_2  and  C_18 
REMARK    5  A    between atoms: C_4  and  C_10 
REMARK    6  A    between atoms: C_6  and  C_15 
REMARK    7  A    between atoms: C_8  and  C_19 
REMARK    8  A    between atoms: C_8  and  C_22 
REMARK    9  A    between atoms: C_9  and  C_10 
REMARK   10  A    between atoms: C_9  and  C_15 
REMARK       I    between atoms: N_21  and  C_22 
ROOT
HETATM    1  N           1     -35.334  -2.363 -12.541  0.00  0.00    -0.345 N 
HETATM    2  O           1     -36.301  -0.780 -11.298  0.00  0.00    -0.271 OA
HETATM    3  C           1     -36.061  -1.211 -12.400  0.00  0.00     0.249 C 
HETATM    4  H           1     -35.133  -2.725 -13.465  0.00  0.00     0.163 HD
ENDROOT
BRANCH   3   5
HETATM    5  C           1     -36.562  -0.481 -13.622  0.00  0.00     0.275 C 
BRANCH   5   6
HETATM    6  C           1     -35.487   0.477 -14.119  0.00  0.00     0.052 C 
BRANCH   6   7
HETATM    7  C           1     -35.721   0.780 -15.594  0.00  0.00     0.105 C 
BRANCH   7   8
HETATM    8  C           1     -35.879  -0.513 -16.355  0.00  0.00     0.215 C 
HETATM    9  O           1     -36.890  -0.725 -16.981  0.00  0.00    -0.274 OA
HETATM   10  N           1     -34.877  -1.445 -16.335  0.00  0.00    -0.370 N 
HETATM   11  H           1     -34.030  -1.267 -15.810  0.00  0.00     0.159 HD
HETATM   12  H           1     -34.984  -2.313 -16.846  0.00  0.00     0.159 HD
ENDBRANCH   7   8
ENDBRANCH   6   7
ENDBRANCH   5   6
BRANCH   5  13
HETATM   13  N           1     -37.797   0.294 -13.268  0.00  0.00    -0.066 N 
HETATM   14  H           1     -38.284  -0.172 -12.470  0.00  0.00     0.275 HD
HETATM   15  H           1     -38.434   0.329 -14.096  0.00  0.00     0.275 HD
HETATM   16  H           1     -37.531   1.267 -12.994  0.00  0.00     0.275 HD
ENDBRANCH   5  13
ENDBRANCH   3   5
BRANCH   1  17
HETATM   17  C           1     -34.853  -3.065 -11.367  0.00  0.00     0.186 C 
BRANCH  17  18
HETATM   18  C           1     -33.414  -2.688 -11.111  0.00  0.00     0.196 C 
HETATM   19  O           1     -32.491  -3.378 -11.596  0.00  0.00    -0.646 OA
HETATM   20  O           1     -33.146  -1.685 -10.414  0.00  0.00    -0.646 OA
ENDBRANCH  17  18
BRANCH  17  21
HETATM   21  C           1     -34.950  -4.567 -11.600  0.00  0.00     0.046 C 
BRANCH  21  22
HETATM   22  C           1     -34.802  -5.297 -10.272  0.00  0.00     0.116 C 
BRANCH  22  23
HETATM   23  C           1     -34.235  -6.674 -10.514  0.00  0.00     0.172 C 
HETATM   24  O           1     -33.041  -6.807 -10.858  0.00  0.00    -0.648 OA
HETATM   25  O           1     -34.960  -7.683 -10.371  0.00  0.00    -0.648 OA
ENDBRANCH  22  23
ENDBRANCH  21  22
ENDBRANCH  17  21
ENDBRANCH   1  17
TORSDOF 10
ENDMDL
