MODEL 1
REMARK VINA RESULT:      -6.6      0.000      0.000
REMARK  9 active torsions:
REMARK  status: ('A' for Active; 'I' for Inactive)
REMARK    1  A    between atoms: N_2  and  C_18 
REMARK    2  A    between atoms: N_9  and  C_10 
REMARK       I    between atoms: N_9  and  C_22 
REMARK    3  A    between atoms: C_10  and  C_17 
REMARK    4  A    between atoms: C_10  and  C_11 
REMARK    5  A    between atoms: C_15  and  C_21 
REMARK    6  A    between atoms: O_16  and  C_17 
REMARK    7  A    between atoms: C_18  and  C_22 
REMARK    8  A    between atoms: C_18  and  C_19 
REMARK    9  A    between atoms: C_19  and  C_21 
ROOT
HETATM    1  O           1     -36.518  -1.497 -12.273  0.00  0.00    -0.271 OA
HETATM    2  H           1     -34.131  -1.383 -14.306  0.00  0.00     0.163 HD
HETATM    3  N           1     -35.066  -1.231 -13.949  0.00  0.00    -0.343 N 
HETATM    4  C           1     -35.403  -1.678 -12.699  0.00  0.00     0.249 C 
ENDROOT
BRANCH   4   5
HETATM    5  C           1     -34.380  -2.397 -11.854  0.00  0.00     0.275 C 
BRANCH   5   6
HETATM    6  N           1     -33.719  -1.419 -10.929  0.00  0.00    -0.066 N 
HETATM    7  H           1     -33.613  -1.850  -9.983  0.00  0.00     0.275 HD
HETATM    8  H           1     -32.777  -1.167 -11.304  0.00  0.00     0.275 HD
HETATM    9  H           1     -34.308  -0.557 -10.854  0.00  0.00     0.275 HD
ENDBRANCH   5   6
BRANCH   5  10
HETATM   10  C           1     -35.068  -3.483 -11.037  0.00  0.00     0.053 C 
BRANCH  10  11
HETATM   11  C           1     -34.058  -4.564 -10.677  0.00  0.00     0.115 C 
BRANCH  11  12
HETATM   12  C           1     -34.490  -5.878 -11.279  0.00  0.00     0.172 C 
HETATM   13  O           1     -34.218  -6.952 -10.699  0.00  0.00    -0.648 OA
HETATM   14  O           1     -35.120  -5.893 -12.359  0.00  0.00    -0.648 OA
ENDBRANCH  11  12
ENDBRANCH  10  11
ENDBRANCH   5  10
ENDBRANCH   4   5
BRANCH   3  15
HETATM   15  C           1     -36.048  -0.540 -14.761  0.00  0.00     0.214 C 
BRANCH  15  16
HETATM   16  C           1     -35.870   0.964 -14.602  0.00  0.00     0.147 C 
HETATM   17  C           1     -34.498   1.252 -14.006  0.00  0.00     0.042 C 
BRANCH  16  18
HETATM   18  O           1     -35.973   1.582 -15.857  0.00  0.00    -0.393 OA
HETATM   19  H           1     -36.559   2.312 -15.755  0.00  0.00     0.210 HD
ENDBRANCH  16  18
ENDBRANCH  15  16
BRANCH  15  20
HETATM   20  C           1     -35.859  -0.919 -16.209  0.00  0.00     0.199 C 
HETATM   21  O           1     -34.756  -1.357 -16.601  0.00  0.00    -0.646 OA
HETATM   22  O           1     -36.806  -0.797 -17.015  0.00  0.00    -0.646 OA
ENDBRANCH  15  20
ENDBRANCH   3  15
TORSDOF 9
ENDMDL
MODEL 2
REMARK VINA RESULT:      -6.4     12.877     14.696
REMARK  9 active torsions:
REMARK  status: ('A' for Active; 'I' for Inactive)
REMARK    1  A    between atoms: N_2  and  C_18 
REMARK    2  A    between atoms: N_9  and  C_10 
REMARK       I    between atoms: N_9  and  C_22 
REMARK    3  A    between atoms: C_10  and  C_17 
REMARK    4  A    between atoms: C_10  and  C_11 
REMARK    5  A    between atoms: C_15  and  C_21 
REMARK    6  A    between atoms: O_16  and  C_17 
REMARK    7  A    between atoms: C_18  and  C_22 
REMARK    8  A    between atoms: C_18  and  C_19 
REMARK    9  A    between atoms: C_19  and  C_21 
ROOT
HETATM    1  O           1     -21.604  -3.579  -7.037  0.00  0.00    -0.271 OA
HETATM    2  H           1     -22.309  -5.639  -9.295  0.00  0.00     0.163 HD
HETATM    3  N           1     -22.258  -4.743  -8.827  0.00  0.00    -0.343 N 
HETATM    4  C           1     -21.665  -4.647  -7.596  0.00  0.00     0.249 C 
ENDROOT
BRANCH   4   5
HETATM    5  C           1     -21.089  -5.877  -6.939  0.00  0.00     0.275 C 
BRANCH   5   6
HETATM    6  N           1     -19.722  -6.147  -7.495  0.00  0.00    -0.066 N 
HETATM    7  H           1     -19.581  -5.583  -8.363  0.00  0.00     0.275 HD
HETATM    8  H           1     -19.000  -5.883  -6.787  0.00  0.00     0.275 HD
HETATM    9  H           1     -19.633  -7.164  -7.723  0.00  0.00     0.275 HD
ENDBRANCH   5   6
BRANCH   5  10
HETATM   10  C           1     -20.989  -5.651  -5.436  0.00  0.00     0.053 C 
BRANCH  10  11
HETATM   11  C           1     -22.129  -6.377  -4.736  0.00  0.00     0.115 C 
BRANCH  11  12
HETATM   12  C           1     -21.790  -6.561  -3.278  0.00  0.00     0.172 C 
HETATM   13  O           1     -22.442  -5.952  -2.402  0.00  0.00    -0.648 OA
HETATM   14  O           1     -20.856  -7.323  -2.944  0.00  0.00    -0.648 OA
ENDBRANCH  11  12
ENDBRANCH  10  11
ENDBRANCH   5  10
ENDBRANCH   4   5
BRANCH   3  15
HETATM   15  C           1     -22.812  -3.561  -9.459  0.00  0.00     0.214 C 
BRANCH  15  16
HETATM   16  C           1     -22.121  -3.331 -10.796  0.00  0.00     0.147 C 
HETATM   17  C           1     -21.074  -4.414 -11.019  0.00  0.00     0.042 C 
BRANCH  16  18
HETATM   18  O           1     -23.071  -3.378 -11.827  0.00  0.00    -0.393 OA
HETATM   19  H           1     -22.599  -3.541 -12.626  0.00  0.00     0.210 HD
ENDBRANCH  16  18
ENDBRANCH  15  16
BRANCH  15  20
HETATM   20  C           1     -24.291  -3.759  -9.684  0.00  0.00     0.199 C 
HETATM   21  O           1     -25.068  -2.782  -9.623  0.00  0.00    -0.646 OA
HETATM   22  O           1     -24.738  -4.899  -9.932  0.00  0.00    -0.646 OA
ENDBRANCH  15  20
ENDBRANCH   3  15
TORSDOF 9
ENDMDL
MODEL 3
REMARK VINA RESULT:      -6.3      1.705      2.443
REMARK  9 active torsions:
REMARK  status: ('A' for Active; 'I' for Inactive)
REMARK    1  A    between atoms: N_2  and  C_18 
REMARK    2  A    between atoms: N_9  and  C_10 
REMARK       I    between atoms: N_9  and  C_22 
REMARK    3  A    between atoms: C_10  and  C_17 
REMARK    4  A    between atoms: C_10  and  C_11 
REMARK    5  A    between atoms: C_15  and  C_21 
REMARK    6  A    between atoms: O_16  and  C_17 
REMARK    7  A    between atoms: C_18  and  C_22 
REMARK    8  A    between atoms: C_18  and  C_19 
REMARK    9  A    between atoms: C_19  and  C_21 
ROOT
HETATM    1  O           1     -34.989   0.861 -12.927  0.00  0.00    -0.271 OA
HETATM    2  H           1     -35.391  -1.986 -14.181  0.00  0.00     0.163 HD
HETATM    3  N           1     -35.394  -0.975 -14.131  0.00  0.00    -0.343 N 
HETATM    4  C           1     -34.985  -0.345 -12.986  0.00  0.00     0.249 C 
ENDROOT
BRANCH   4   5
HETATM    5  C           1     -34.530  -1.157 -11.800  0.00  0.00     0.275 C 
BRANCH   5   6
HETATM    6  N           1     -35.570  -1.094 -10.721  0.00  0.00    -0.066 N 
HETATM    7  H           1     -35.741  -0.097 -10.459  0.00  0.00     0.275 HD
HETATM    8  H           1     -36.459  -1.520 -11.069  0.00  0.00     0.275 HD
HETATM    9  H           1     -35.235  -1.622  -9.883  0.00  0.00     0.275 HD
ENDBRANCH   5   6
BRANCH   5  10
HETATM   10  C           1     -34.327  -2.606 -12.224  0.00  0.00     0.053 C 
BRANCH  10  11
HETATM   11  C           1     -33.871  -3.427 -11.025  0.00  0.00     0.115 C 
BRANCH  11  12
HETATM   12  C           1     -33.119  -4.644 -11.504  0.00  0.00     0.172 C 
HETATM   13  O           1     -32.101  -4.510 -12.218  0.00  0.00    -0.648 OA
HETATM   14  O           1     -33.514  -5.788 -11.187  0.00  0.00    -0.648 OA
ENDBRANCH  11  12
ENDBRANCH  10  11
ENDBRANCH   5  10
ENDBRANCH   4   5
BRANCH   3  15
HETATM   15  C           1     -35.831  -0.194 -15.272  0.00  0.00     0.214 C 
BRANCH  15  16
HETATM   16  C           1     -35.404  -0.890 -16.557  0.00  0.00     0.147 C 
HETATM   17  C           1     -35.015  -2.330 -16.249  0.00  0.00     0.042 C 
BRANCH  16  18
HETATM   18  O           1     -36.468  -0.878 -17.471  0.00  0.00    -0.393 OA
HETATM   19  H           1     -36.883  -1.722 -17.418  0.00  0.00     0.210 HD
ENDBRANCH  16  18
ENDBRANCH  15  16
BRANCH  15  20
HETATM   20  C           1     -37.335  -0.065 -15.245  0.00  0.00     0.199 C 
HETATM   21  O           1     -37.893   0.869 -15.860  0.00  0.00    -0.646 OA
HETATM   22  O           1     -38.022  -0.894 -14.610  0.00  0.00    -0.646 OA
ENDBRANCH  15  20
ENDBRANCH   3  15
TORSDOF 9
ENDMDL
MODEL 4
REMARK VINA RESULT:      -6.0     12.612     15.334
REMARK  9 active torsions:
REMARK  status: ('A' for Active; 'I' for Inactive)
REMARK    1  A    between atoms: N_2  and  C_18 
REMARK    2  A    between atoms: N_9  and  C_10 
REMARK       I    between atoms: N_9  and  C_22 
REMARK    3  A    between atoms: C_10  and  C_17 
REMARK    4  A    between atoms: C_10  and  C_11 
REMARK    5  A    between atoms: C_15  and  C_21 
REMARK    6  A    between atoms: O_16  and  C_17 
REMARK    7  A    between atoms: C_18  and  C_22 
REMARK    8  A    between atoms: C_18  and  C_19 
REMARK    9  A    between atoms: C_19  and  C_21 
ROOT
HETATM    1  O           1     -21.854  -3.150  -7.757  0.00  0.00    -0.271 OA
HETATM    2  H           1     -22.664  -6.177  -7.615  0.00  0.00     0.163 HD
HETATM    3  N           1     -22.193  -5.320  -7.355  0.00  0.00    -0.343 N 
HETATM    4  C           1     -22.415  -4.172  -8.068  0.00  0.00     0.249 C 
ENDROOT
BRANCH   4   5
HETATM    5  C           1     -23.363  -4.186  -9.242  0.00  0.00     0.275 C 
BRANCH   5   6
HETATM    6  N           1     -24.556  -3.331  -8.932  0.00  0.00    -0.066 N 
HETATM    7  H           1     -24.317  -2.665  -8.163  0.00  0.00     0.275 HD
HETATM    8  H           1     -24.830  -2.793  -9.785  0.00  0.00     0.275 HD
HETATM    9  H           1     -25.352  -3.939  -8.631  0.00  0.00     0.275 HD
ENDBRANCH   5   6
BRANCH   5  10
HETATM   10  C           1     -22.654  -3.640 -10.474  0.00  0.00     0.053 C 
BRANCH  10  11
HETATM   11  C           1     -23.114  -4.407 -11.706  0.00  0.00     0.115 C 
BRANCH  11  12
HETATM   12  C           1     -24.084  -3.562 -12.493  0.00  0.00     0.172 C 
HETATM   13  O           1     -23.929  -3.413 -13.725  0.00  0.00    -0.648 OA
HETATM   14  O           1     -25.045  -3.010 -11.914  0.00  0.00    -0.648 OA
ENDBRANCH  11  12
ENDBRANCH  10  11
ENDBRANCH   5  10
ENDBRANCH   4   5
BRANCH   3  15
HETATM   15  C           1     -21.282  -5.307  -6.226  0.00  0.00     0.214 C 
BRANCH  15  16
HETATM   16  C           1     -21.775  -6.282  -5.166  0.00  0.00     0.147 C 
HETATM   17  C           1     -21.138  -5.939  -3.826  0.00  0.00     0.042 C 
BRANCH  16  18
HETATM   18  O           1     -23.170  -6.190  -5.059  0.00  0.00    -0.393 OA
HETATM   19  H           1     -23.355  -5.821  -4.212  0.00  0.00     0.210 HD
ENDBRANCH  16  18
ENDBRANCH  15  16
BRANCH  15  20
HETATM   20  C           1     -19.905  -5.717  -6.688  0.00  0.00     0.199 C 
HETATM   21  O           1     -19.623  -6.929  -6.813  0.00  0.00    -0.646 OA
HETATM   22  O           1     -19.047  -4.846  -6.946  0.00  0.00    -0.646 OA
ENDBRANCH  15  20
ENDBRANCH   3  15
TORSDOF 9
ENDMDL
MODEL 5
REMARK VINA RESULT:      -5.9      2.943      5.355
REMARK  9 active torsions:
REMARK  status: ('A' for Active; 'I' for Inactive)
REMARK    1  A    between atoms: N_2  and  C_18 
REMARK    2  A    between atoms: N_9  and  C_10 
REMARK       I    between atoms: N_9  and  C_22 
REMARK    3  A    between atoms: C_10  and  C_17 
REMARK    4  A    between atoms: C_10  and  C_11 
REMARK    5  A    between atoms: C_15  and  C_21 
REMARK    6  A    between atoms: O_16  and  C_17 
REMARK    7  A    between atoms: C_18  and  C_22 
REMARK    8  A    between atoms: C_18  and  C_19 
REMARK    9  A    between atoms: C_19  and  C_21 
ROOT
HETATM    1  O           1     -34.668  -0.562 -13.377  0.00  0.00    -0.271 OA
HETATM    2  H           1     -35.445  -2.719 -11.236  0.00  0.00     0.163 HD
HETATM    3  N           1     -34.935  -2.303 -12.006  0.00  0.00    -0.343 N 
HETATM    4  C           1     -35.276  -1.057 -12.460  0.00  0.00     0.249 C 
ENDROOT
BRANCH   4   5
HETATM    5  C           1     -36.411  -0.303 -11.812  0.00  0.00     0.275 C 
BRANCH   5   6
HETATM    6  N           1     -37.558  -0.204 -12.773  0.00  0.00    -0.066 N 
HETATM    7  H           1     -37.478   0.682 -13.322  0.00  0.00     0.275 HD
HETATM    8  H           1     -37.538  -1.020 -13.425  0.00  0.00     0.275 HD
HETATM    9  H           1     -38.459  -0.204 -12.241  0.00  0.00     0.275 HD
ENDBRANCH   5   6
BRANCH   5  10
HETATM   10  C           1     -36.862  -1.042 -10.558  0.00  0.00     0.053 C 
BRANCH  10  11
HETATM   11  C           1     -37.718  -0.116  -9.704  0.00  0.00     0.115 C 
BRANCH  11  12
HETATM   12  C           1     -37.148  -0.048  -8.309  0.00  0.00     0.172 C 
HETATM   13  O           1     -37.845  -0.395  -7.330  0.00  0.00    -0.648 OA
HETATM   14  O           1     -35.978   0.355  -8.130  0.00  0.00    -0.648 OA
ENDBRANCH  11  12
ENDBRANCH  10  11
ENDBRANCH   5  10
ENDBRANCH   4   5
BRANCH   3  15
HETATM   15  C           1     -33.844  -3.028 -12.628  0.00  0.00     0.214 C 
BRANCH  15  16
HETATM   16  C           1     -33.027  -3.734 -11.554  0.00  0.00     0.147 C 
HETATM   17  C           1     -33.933  -4.096 -10.385  0.00  0.00     0.042 C 
BRANCH  16  18
HETATM   18  O           1     -32.464  -4.902 -12.089  0.00  0.00    -0.393 OA
HETATM   19  H           1     -31.890  -4.634 -12.786  0.00  0.00     0.210 HD
ENDBRANCH  16  18
ENDBRANCH  15  16
BRANCH  15  20
HETATM   20  C           1     -34.403  -4.049 -13.589  0.00  0.00     0.199 C 
HETATM   21  O           1     -34.157  -3.956 -14.811  0.00  0.00    -0.646 OA
HETATM   22  O           1     -35.110  -4.987 -13.163  0.00  0.00    -0.646 OA
ENDBRANCH  15  20
ENDBRANCH   3  15
TORSDOF 9
ENDMDL
MODEL 6
REMARK VINA RESULT:      -5.8      1.955      6.052
REMARK  9 active torsions:
REMARK  status: ('A' for Active; 'I' for Inactive)
REMARK    1  A    between atoms: N_2  and  C_18 
REMARK    2  A    between atoms: N_9  and  C_10 
REMARK       I    between atoms: N_9  and  C_22 
REMARK    3  A    between atoms: C_10  and  C_17 
REMARK    4  A    between atoms: C_10  and  C_11 
REMARK    5  A    between atoms: C_15  and  C_21 
REMARK    6  A    between atoms: O_16  and  C_17 
REMARK    7  A    between atoms: C_18  and  C_22 
REMARK    8  A    between atoms: C_18  and  C_19 
REMARK    9  A    between atoms: C_19  and  C_21 
ROOT
HETATM    1  O           1     -34.903  -2.254 -14.101  0.00  0.00    -0.271 OA
HETATM    2  H           1     -35.273  -1.666 -11.042  0.00  0.00     0.163 HD
HETATM    3  N           1     -35.057  -2.200 -11.874  0.00  0.00    -0.343 N 
HETATM    4  C           1     -35.161  -1.617 -13.108  0.00  0.00     0.249 C 
ENDROOT
BRANCH   4   5
HETATM    5  C           1     -35.598  -0.178 -13.228  0.00  0.00     0.275 C 
BRANCH   5   6
HETATM    6  N           1     -35.402   0.515 -11.912  0.00  0.00    -0.066 N 
HETATM    7  H           1     -35.549   1.543 -12.034  0.00  0.00     0.275 HD
HETATM    8  H           1     -36.091   0.145 -11.218  0.00  0.00     0.275 HD
HETATM    9  H           1     -34.431   0.341 -11.568  0.00  0.00     0.275 HD
ENDBRANCH   5   6
BRANCH   5  10
HETATM   10  C           1     -34.765   0.519 -14.297  0.00  0.00     0.053 C 
BRANCH  10  11
HETATM   11  C           1     -35.683   1.311 -15.219  0.00  0.00     0.115 C 
BRANCH  11  12
HETATM   12  C           1     -36.546   0.359 -16.009  0.00  0.00     0.172 C 
HETATM   13  O           1     -36.018  -0.538 -16.701  0.00  0.00    -0.648 OA
HETATM   14  O           1     -37.792   0.467 -15.972  0.00  0.00    -0.648 OA
ENDBRANCH  11  12
ENDBRANCH  10  11
ENDBRANCH   5  10
ENDBRANCH   4   5
BRANCH   3  15
HETATM   15  C           1     -34.637  -3.583 -11.759  0.00  0.00     0.214 C 
BRANCH  15  16
HETATM   16  C           1     -33.230  -3.639 -11.178  0.00  0.00     0.147 C 
HETATM   17  C           1     -32.300  -4.327 -12.168  0.00  0.00     0.042 C 
BRANCH  16  18
HETATM   18  O           1     -32.773  -2.335 -10.935  0.00  0.00    -0.393 OA
HETATM   19  H           1     -33.536  -1.786 -10.869  0.00  0.00     0.210 HD
ENDBRANCH  16  18
ENDBRANCH  15  16
BRANCH  15  20
HETATM   20  C           1     -35.587  -4.322 -10.848  0.00  0.00     0.199 C 
HETATM   21  O           1     -36.665  -3.790 -10.505  0.00  0.00    -0.646 OA
HETATM   22  O           1     -35.297  -5.467 -10.439  0.00  0.00    -0.646 OA
ENDBRANCH  15  20
ENDBRANCH   3  15
TORSDOF 9
ENDMDL
MODEL 7
REMARK VINA RESULT:      -5.8     12.626     15.059
REMARK  9 active torsions:
REMARK  status: ('A' for Active; 'I' for Inactive)
REMARK    1  A    between atoms: N_2  and  C_18 
REMARK    2  A    between atoms: N_9  and  C_10 
REMARK       I    between atoms: N_9  and  C_22 
REMARK    3  A    between atoms: C_10  and  C_17 
REMARK    4  A    between atoms: C_10  and  C_11 
REMARK    5  A    between atoms: C_15  and  C_21 
REMARK    6  A    between atoms: O_16  and  C_17 
REMARK    7  A    between atoms: C_18  and  C_22 
REMARK    8  A    between atoms: C_18  and  C_19 
REMARK    9  A    between atoms: C_19  and  C_21 
ROOT
HETATM    1  O           1     -22.959  -3.077  -8.601  0.00  0.00    -0.271 OA
HETATM    2  H           1     -22.191  -6.118  -8.544  0.00  0.00     0.163 HD
HETATM    3  N           1     -22.126  -5.131  -8.330  0.00  0.00    -0.343 N 
HETATM    4  C           1     -23.037  -4.254  -8.857  0.00  0.00     0.249 C 
ENDROOT
BRANCH   4   5
HETATM    5  C           1     -24.139  -4.760  -9.754  0.00  0.00     0.275 C 
BRANCH   5   6
HETATM    6  N           1     -25.308  -3.823  -9.688  0.00  0.00    -0.066 N 
HETATM    7  H           1     -26.007  -4.184  -9.001  0.00  0.00     0.275 HD
HETATM    8  H           1     -24.979  -2.878  -9.386  0.00  0.00     0.275 HD
HETATM    9  H           1     -25.752  -3.753 -10.633  0.00  0.00     0.275 HD
ENDBRANCH   5   6
BRANCH   5  10
HETATM   10  C           1     -23.631  -4.838 -11.188  0.00  0.00     0.053 C 
BRANCH  10  11
HETATM   11  C           1     -24.006  -3.562 -11.930  0.00  0.00     0.115 C 
BRANCH  11  12
HETATM   12  C           1     -22.768  -2.949 -12.536  0.00  0.00     0.172 C 
HETATM   13  O           1     -22.693  -2.783 -13.773  0.00  0.00    -0.648 OA
HETATM   14  O           1     -21.816  -2.607 -11.801  0.00  0.00    -0.648 OA
ENDBRANCH  11  12
ENDBRANCH  10  11
ENDBRANCH   5  10
ENDBRANCH   4   5
BRANCH   3  15
HETATM   15  C           1     -21.067  -4.644  -7.467  0.00  0.00     0.214 C 
BRANCH  15  16
HETATM   16  C           1     -20.850  -5.630  -6.327  0.00  0.00     0.147 C 
HETATM   17  C           1     -22.186  -5.947  -5.669  0.00  0.00     0.042 C 
BRANCH  16  18
HETATM   18  O           1     -20.284  -6.810  -6.831  0.00  0.00    -0.393 OA
HETATM   19  H           1     -20.734  -7.527  -6.418  0.00  0.00     0.210 HD
ENDBRANCH  16  18
ENDBRANCH  15  16
BRANCH  15  20
HETATM   20  C           1     -19.792  -4.508  -8.264  0.00  0.00     0.199 C 
HETATM   21  O           1     -18.708  -4.302  -7.678  0.00  0.00    -0.646 OA
HETATM   22  O           1     -19.822  -4.602  -9.510  0.00  0.00    -0.646 OA
ENDBRANCH  15  20
ENDBRANCH   3  15
TORSDOF 9
ENDMDL
MODEL 8
REMARK VINA RESULT:      -5.7      2.108      5.796
REMARK  9 active torsions:
REMARK  status: ('A' for Active; 'I' for Inactive)
REMARK    1  A    between atoms: N_2  and  C_18 
REMARK    2  A    between atoms: N_9  and  C_10 
REMARK       I    between atoms: N_9  and  C_22 
REMARK    3  A    between atoms: C_10  and  C_17 
REMARK    4  A    between atoms: C_10  and  C_11 
REMARK    5  A    between atoms: C_15  and  C_21 
REMARK    6  A    between atoms: O_16  and  C_17 
REMARK    7  A    between atoms: C_18  and  C_22 
REMARK    8  A    between atoms: C_18  and  C_19 
REMARK    9  A    between atoms: C_19  and  C_21 
ROOT
HETATM    1  O           1     -33.567  -1.881 -10.447  0.00  0.00    -0.271 OA
HETATM    2  H           1     -35.649  -3.962 -11.530  0.00  0.00     0.163 HD
HETATM    3  N           1     -34.759  -3.613 -11.198  0.00  0.00    -0.343 N 
HETATM    4  C           1     -34.629  -2.297 -10.843  0.00  0.00     0.249 C 
ENDROOT
BRANCH   4   5
HETATM    5  C           1     -35.813  -1.368 -10.944  0.00  0.00     0.275 C 
BRANCH   5   6
HETATM    6  N           1     -36.142  -0.827  -9.584  0.00  0.00    -0.066 N 
HETATM    7  H           1     -35.492  -1.239  -8.877  0.00  0.00     0.275 HD
HETATM    8  H           1     -36.036   0.213  -9.588  0.00  0.00     0.275 HD
HETATM    9  H           1     -37.127  -1.077  -9.338  0.00  0.00     0.275 HD
ENDBRANCH   5   6
BRANCH   5  10
HETATM   10  C           1     -35.477  -0.215 -11.881  0.00  0.00     0.053 C 
BRANCH  10  11
HETATM   11  C           1     -36.278  -0.357 -13.168  0.00  0.00     0.115 C 
BRANCH  11  12
HETATM   12  C           1     -35.342  -0.641 -14.316  0.00  0.00     0.172 C 
HETATM   13  O           1     -34.664   0.284 -14.814  0.00  0.00    -0.648 OA
HETATM   14  O           1     -35.243  -1.802 -14.769  0.00  0.00    -0.648 OA
ENDBRANCH  11  12
ENDBRANCH  10  11
ENDBRANCH   5  10
ENDBRANCH   4   5
BRANCH   3  15
HETATM   15  C           1     -33.620  -4.506 -11.101  0.00  0.00     0.214 C 
BRANCH  15  16
HETATM   16  C           1     -34.111  -5.943 -10.987  0.00  0.00     0.147 C 
HETATM   17  C           1     -35.045  -6.067  -9.790  0.00  0.00     0.042 C 
BRANCH  16  18
HETATM   18  O           1     -34.801  -6.294 -12.157  0.00  0.00    -0.393 OA
HETATM   19  H           1     -34.491  -5.723 -12.839  0.00  0.00     0.210 HD
ENDBRANCH  16  18
ENDBRANCH  15  16
BRANCH  15  20
HETATM   20  C           1     -32.763  -4.363 -12.335  0.00  0.00     0.199 C 
HETATM   21  O           1     -31.551  -4.666 -12.292  0.00  0.00    -0.646 OA
HETATM   22  O           1     -33.265  -3.943 -13.399  0.00  0.00    -0.646 OA
ENDBRANCH  15  20
ENDBRANCH   3  15
TORSDOF 9
ENDMDL
MODEL 9
REMARK VINA RESULT:      -5.6     24.339     25.899
REMARK  9 active torsions:
REMARK  status: ('A' for Active; 'I' for Inactive)
REMARK    1  A    between atoms: N_2  and  C_18 
REMARK    2  A    between atoms: N_9  and  C_10 
REMARK       I    between atoms: N_9  and  C_22 
REMARK    3  A    between atoms: C_10  and  C_17 
REMARK    4  A    between atoms: C_10  and  C_11 
REMARK    5  A    between atoms: C_15  and  C_21 
REMARK    6  A    between atoms: O_16  and  C_17 
REMARK    7  A    between atoms: C_18  and  C_22 
REMARK    8  A    between atoms: C_18  and  C_19 
REMARK    9  A    between atoms: C_19  and  C_21 
ROOT
HETATM    1  O           1     -11.394   5.338 -18.853  0.00  0.00    -0.271 OA
HETATM    2  H           1     -10.832   6.837 -21.551  0.00  0.00     0.163 HD
HETATM    3  N           1     -11.013   6.724 -20.561  0.00  0.00    -0.343 N 
HETATM    4  C           1     -11.179   5.471 -20.033  0.00  0.00     0.249 C 
ENDROOT
BRANCH   4   5
HETATM    5  C           1     -11.092   4.259 -20.927  0.00  0.00     0.275 C 
BRANCH   5   6
HETATM    6  N           1     -11.086   3.017 -20.086  0.00  0.00    -0.066 N 
HETATM    7  H           1     -12.035   2.871 -19.672  0.00  0.00     0.275 HD
HETATM    8  H           1     -10.836   2.195 -20.681  0.00  0.00     0.275 HD
HETATM    9  H           1     -10.384   3.120 -19.318  0.00  0.00     0.275 HD
ENDBRANCH   5   6
BRANCH   5  10
HETATM   10  C           1     -12.293   4.231 -21.864  0.00  0.00     0.053 C 
BRANCH  10  11
HETATM   11  C           1     -13.536   3.824 -21.085  0.00  0.00     0.115 C 
BRANCH  11  12
HETATM   12  C           1     -14.420   5.029 -20.880  0.00  0.00     0.172 C 
HETATM   13  O           1     -14.862   5.655 -21.868  0.00  0.00    -0.648 OA
HETATM   14  O           1     -14.711   5.402 -19.723  0.00  0.00    -0.648 OA
ENDBRANCH  11  12
ENDBRANCH  10  11
ENDBRANCH   5  10
ENDBRANCH   4   5
BRANCH   3  15
HETATM   15  C           1     -11.096   7.890 -19.702  0.00  0.00     0.214 C 
BRANCH  15  16
HETATM   16  C           1     -10.060   8.917 -20.139  0.00  0.00     0.147 C 
HETATM   17  C           1      -9.130   8.291 -21.170  0.00  0.00     0.042 C 
BRANCH  16  18
HETATM   18  O           1     -10.710  10.023 -20.706  0.00  0.00    -0.393 OA
HETATM   19  H           1     -11.337   9.685 -21.323  0.00  0.00     0.210 HD
ENDBRANCH  16  18
ENDBRANCH  15  16
BRANCH  15  20
HETATM   20  C           1     -12.476   8.491 -19.804  0.00  0.00     0.199 C 
HETATM   21  O           1     -13.078   8.491 -20.899  0.00  0.00    -0.646 OA
HETATM   22  O           1     -13.017   8.988 -18.793  0.00  0.00    -0.646 OA
ENDBRANCH  15  20
ENDBRANCH   3  15
TORSDOF 9
ENDMDL
