MODEL 1
REMARK VINA RESULT:      -8.1      0.000      0.000
REMARK  8 active torsions:
REMARK  status: ('A' for Active; 'I' for Inactive)
REMARK    1  A    between atoms: C_3  and  C_12 
REMARK    2  A    between atoms: C_3  and  C_20 
REMARK    3  A    between atoms: C_9  and  C_11 
REMARK    4  A    between atoms: C_10  and  C_14 
REMARK    5  A    between atoms: C_10  and  C_11 
REMARK    6  A    between atoms: C_11  and  N_22 
REMARK    7  A    between atoms: C_12  and  C_13 
REMARK    8  A    between atoms: C_12  and  N_16 
REMARK       I    between atoms: C_13  and  N_22 
ROOT
HETATM    1  C           1     -21.091  -5.406  -6.565  0.00  0.00     0.278 C 
ENDROOT
BRANCH   1   2
HETATM    2  C           1     -22.221  -5.899  -5.672  0.00  0.00     0.083 C 
BRANCH   2   3
HETATM    3  C           1     -21.731  -7.031  -4.824  0.00  0.00    -0.028 A 
HETATM    4  C           1     -21.780  -7.097  -3.403  0.00  0.00    -0.002 A 
HETATM    5  C           1     -21.220  -8.319  -3.030  0.00  0.00     0.042 A 
HETATM    6  C           1     -22.249  -6.231  -2.398  0.00  0.00     0.014 A 
HETATM    7  C           1     -21.105  -8.720  -1.694  0.00  0.00     0.030 A 
HETATM    8  N           1     -20.847  -8.964  -4.187  0.00  0.00    -0.365 N 
HETATM    9  C           1     -21.578  -7.843  -0.712  0.00  0.00     0.002 A 
HETATM   10  C           1     -22.142  -6.617  -1.057  0.00  0.00     0.001 A 
HETATM   11  C           1     -21.151  -8.193  -5.279  0.00  0.00     0.096 A 
HETATM   12  H           1     -20.393  -9.911  -4.229  0.00  0.00     0.165 HD
ENDBRANCH   2   3
ENDBRANCH   1   2
BRANCH   1  13
HETATM   13  C           1     -21.624  -4.375  -7.530  0.00  0.00     0.249 C 
HETATM   14  O           1     -21.510  -3.198  -7.281  0.00  0.00    -0.271 OA
HETATM   15  N           1     -22.237  -4.774  -8.687  0.00  0.00    -0.344 N 
HETATM   16  H           1     -22.332  -5.759  -8.897  0.00  0.00     0.163 HD
BRANCH  15  17
HETATM   17  C           1     -22.749  -3.783  -9.614  0.00  0.00     0.195 C 
BRANCH  17  18
HETATM   18  C           1     -24.256  -3.858  -9.648  0.00  0.00     0.197 C 
HETATM   19  O           1     -24.937  -2.824  -9.474  0.00  0.00    -0.646 OA
HETATM   20  O           1     -24.823  -4.953  -9.849  0.00  0.00    -0.646 OA
ENDBRANCH  17  18
BRANCH  17  21
HETATM   21  C           1     -22.197  -4.057 -11.008  0.00  0.00     0.149 C 
BRANCH  21  22
HETATM   22  C           1     -20.704  -3.838 -11.010  0.00  0.00     0.175 C 
HETATM   23  O           1     -19.934  -4.776 -10.709  0.00  0.00    -0.648 OA
HETATM   24  O           1     -20.237  -2.719 -11.313  0.00  0.00    -0.648 OA
ENDBRANCH  21  22
ENDBRANCH  17  21
ENDBRANCH  15  17
ENDBRANCH   1  13
BRANCH   1  25
HETATM   25  N           1     -20.018  -4.789  -5.718  0.00  0.00    -0.066 N 
HETATM   26  H           1     -20.432  -4.032  -5.129  0.00  0.00     0.275 HD
HETATM   27  H           1     -19.276  -4.387  -6.333  0.00  0.00     0.275 HD
HETATM   28  H           1     -19.598  -5.521  -5.100  0.00  0.00     0.275 HD
ENDBRANCH   1  25
TORSDOF 8
ENDMDL
MODEL 2
REMARK VINA RESULT:      -7.4      3.790      7.904
REMARK  8 active torsions:
REMARK  status: ('A' for Active; 'I' for Inactive)
REMARK    1  A    between atoms: C_3  and  C_12 
REMARK    2  A    between atoms: C_3  and  C_20 
REMARK    3  A    between atoms: C_9  and  C_11 
REMARK    4  A    between atoms: C_10  and  C_14 
REMARK    5  A    between atoms: C_10  and  C_11 
REMARK    6  A    between atoms: C_11  and  N_22 
REMARK    7  A    between atoms: C_12  and  C_13 
REMARK    8  A    between atoms: C_12  and  N_16 
REMARK       I    between atoms: C_13  and  N_22 
ROOT
HETATM    1  C           1     -21.558  -6.319  -5.589  0.00  0.00     0.278 C 
ENDROOT
BRANCH   1   2
HETATM    2  C           1     -20.981  -5.097  -6.289  0.00  0.00     0.083 C 
BRANCH   2   3
HETATM    3  C           1     -21.923  -4.644  -7.361  0.00  0.00    -0.028 A 
HETATM    4  C           1     -21.584  -4.367  -8.714  0.00  0.00    -0.002 A 
HETATM    5  C           1     -22.757  -3.976  -9.360  0.00  0.00     0.042 A 
HETATM    6  C           1     -20.387  -4.412  -9.453  0.00  0.00     0.014 A 
HETATM    7  C           1     -22.792  -3.626 -10.715  0.00  0.00     0.030 A 
HETATM    8  N           1     -23.766  -4.016  -8.425  0.00  0.00    -0.365 N 
HETATM    9  C           1     -21.591  -3.679 -11.428  0.00  0.00     0.002 A 
HETATM   10  C           1     -20.405  -4.066 -10.809  0.00  0.00     0.001 A 
HETATM   11  C           1     -23.273  -4.419  -7.212  0.00  0.00     0.096 A 
HETATM   12  H           1     -24.771  -3.774  -8.614  0.00  0.00     0.165 HD
ENDBRANCH   2   3
ENDBRANCH   1   2
BRANCH   1  13
HETATM   13  C           1     -20.526  -7.419  -5.562  0.00  0.00     0.249 C 
HETATM   14  O           1     -19.588  -7.386  -6.323  0.00  0.00    -0.271 OA
HETATM   15  N           1     -20.651  -8.455  -4.676  0.00  0.00    -0.344 N 
HETATM   16  H           1     -21.436  -8.483  -4.038  0.00  0.00     0.163 HD
BRANCH  15  17
HETATM   17  C           1     -19.659  -9.512  -4.650  0.00  0.00     0.195 C 
BRANCH  17  18
HETATM   18  C           1     -20.262 -10.781  -5.202  0.00  0.00     0.197 C 
HETATM   19  O           1     -20.222 -11.835  -4.531  0.00  0.00    -0.646 OA
HETATM   20  O           1     -20.800 -10.778  -6.329  0.00  0.00    -0.646 OA
ENDBRANCH  17  18
BRANCH  17  21
HETATM   21  C           1     -19.204  -9.748  -3.216  0.00  0.00     0.149 C 
BRANCH  21  22
HETATM   22  C           1     -20.210  -9.149  -2.263  0.00  0.00     0.175 C 
HETATM   23  O           1     -21.210  -9.813  -1.912  0.00  0.00    -0.648 OA
HETATM   24  O           1     -20.044  -7.990  -1.827  0.00  0.00    -0.648 OA
ENDBRANCH  21  22
ENDBRANCH  17  21
ENDBRANCH  15  17
ENDBRANCH   1  13
BRANCH   1  25
HETATM   25  N           1     -21.938  -5.957  -4.184  0.00  0.00    -0.066 N 
HETATM   26  H           1     -22.380  -5.010  -4.175  0.00  0.00     0.275 HD
HETATM   27  H           1     -21.083  -5.948  -3.583  0.00  0.00     0.275 HD
HETATM   28  H           1     -22.616  -6.661  -3.813  0.00  0.00     0.275 HD
ENDBRANCH   1  25
TORSDOF 8
ENDMDL
MODEL 3
REMARK VINA RESULT:      -7.4      3.299      7.677
REMARK  8 active torsions:
REMARK  status: ('A' for Active; 'I' for Inactive)
REMARK    1  A    between atoms: C_3  and  C_12 
REMARK    2  A    between atoms: C_3  and  C_20 
REMARK    3  A    between atoms: C_9  and  C_11 
REMARK    4  A    between atoms: C_10  and  C_14 
REMARK    5  A    between atoms: C_10  and  C_11 
REMARK    6  A    between atoms: C_11  and  N_22 
REMARK    7  A    between atoms: C_12  and  C_13 
REMARK    8  A    between atoms: C_12  and  N_16 
REMARK       I    between atoms: C_13  and  N_22 
ROOT
HETATM    1  C           1     -21.276  -4.955  -6.105  0.00  0.00     0.278 C 
ENDROOT
BRANCH   1   2
HETATM    2  C           1     -21.163  -5.295  -7.584  0.00  0.00     0.083 C 
BRANCH   2   3
HETATM    3  C           1     -22.243  -4.590  -8.344  0.00  0.00    -0.028 A 
HETATM    4  C           1     -22.187  -4.195  -9.710  0.00  0.00    -0.002 A 
HETATM    5  C           1     -23.400  -3.572 -10.007  0.00  0.00     0.042 A 
HETATM    6  C           1     -21.217  -4.308 -10.723  0.00  0.00     0.014 A 
HETATM    7  C           1     -23.692  -3.055 -11.274  0.00  0.00     0.030 A 
HETATM    8  N           1     -24.157  -3.593  -8.858  0.00  0.00    -0.365 N 
HETATM    9  C           1     -22.714  -3.179 -12.265  0.00  0.00     0.002 A 
HETATM   10  C           1     -21.494  -3.796 -11.996  0.00  0.00     0.001 A 
HETATM   11  C           1     -23.467  -4.206  -7.845  0.00  0.00     0.096 A 
HETATM   12  H           1     -25.126  -3.197  -8.769  0.00  0.00     0.165 HD
ENDBRANCH   2   3
ENDBRANCH   1   2
BRANCH   1  13
HETATM   13  C           1     -21.838  -6.139  -5.357  0.00  0.00     0.249 C 
HETATM   14  O           1     -23.016  -6.186  -5.095  0.00  0.00    -0.271 OA
HETATM   15  N           1     -21.011  -7.162  -4.975  0.00  0.00    -0.344 N 
HETATM   16  H           1     -20.024  -7.124  -5.194  0.00  0.00     0.163 HD
BRANCH  15  17
HETATM   17  C           1     -21.551  -8.300  -4.257  0.00  0.00     0.195 C 
BRANCH  17  18
HETATM   18  C           1     -21.354  -8.097  -2.774  0.00  0.00     0.197 C 
HETATM   19  O           1     -20.834  -7.042  -2.350  0.00  0.00    -0.646 OA
HETATM   20  O           1     -21.710  -8.985  -1.970  0.00  0.00    -0.646 OA
ENDBRANCH  17  18
BRANCH  17  21
HETATM   21  C           1     -20.829  -9.567  -4.696  0.00  0.00     0.149 C 
BRANCH  21  22
HETATM   22  C           1     -19.354  -9.282  -4.843  0.00  0.00     0.175 C 
HETATM   23  O           1     -18.918  -8.778  -5.901  0.00  0.00    -0.648 OA
HETATM   24  O           1     -18.569  -9.549  -3.908  0.00  0.00    -0.648 OA
ENDBRANCH  21  22
ENDBRANCH  17  21
ENDBRANCH  15  17
ENDBRANCH   1  13
BRANCH   1  25
HETATM   25  N           1     -19.918  -4.621  -5.564  0.00  0.00    -0.066 N 
HETATM   26  H           1     -19.865  -4.899  -4.558  0.00  0.00     0.275 HD
HETATM   27  H           1     -19.751  -3.593  -5.650  0.00  0.00     0.275 HD
HETATM   28  H           1     -19.189  -5.138  -6.108  0.00  0.00     0.275 HD
ENDBRANCH   1  25
TORSDOF 8
ENDMDL
MODEL 4
REMARK VINA RESULT:      -7.4      3.575      7.850
REMARK  8 active torsions:
REMARK  status: ('A' for Active; 'I' for Inactive)
REMARK    1  A    between atoms: C_3  and  C_12 
REMARK    2  A    between atoms: C_3  and  C_20 
REMARK    3  A    between atoms: C_9  and  C_11 
REMARK    4  A    between atoms: C_10  and  C_14 
REMARK    5  A    between atoms: C_10  and  C_11 
REMARK    6  A    between atoms: C_11  and  N_22 
REMARK    7  A    between atoms: C_12  and  C_13 
REMARK    8  A    between atoms: C_12  and  N_16 
REMARK       I    between atoms: C_13  and  N_22 
ROOT
HETATM    1  C           1     -21.894  -6.172  -6.206  0.00  0.00     0.278 C 
ENDROOT
BRANCH   1   2
HETATM    2  C           1     -21.150  -4.874  -6.484  0.00  0.00     0.083 C 
BRANCH   2   3
HETATM    3  C           1     -21.082  -4.643  -7.962  0.00  0.00    -0.028 A 
HETATM    4  C           1     -22.154  -4.219  -8.795  0.00  0.00    -0.002 A 
HETATM    5  C           1     -21.655  -4.133 -10.095  0.00  0.00     0.042 A 
HETATM    6  C           1     -23.506  -3.901  -8.566  0.00  0.00     0.014 A 
HETATM    7  C           1     -22.444  -3.742 -11.182  0.00  0.00     0.030 A 
HETATM    8  N           1     -20.327  -4.493 -10.043  0.00  0.00    -0.365 N 
HETATM    9  C           1     -23.784  -3.429 -10.930  0.00  0.00     0.002 A 
HETATM   10  C           1     -24.309  -3.507  -9.642  0.00  0.00     0.001 A 
HETATM   11  C           1     -19.970  -4.804  -8.757  0.00  0.00     0.096 A 
HETATM   12  H           1     -19.680  -4.525 -10.870  0.00  0.00     0.165 HD
ENDBRANCH   2   3
ENDBRANCH   1   2
BRANCH   1  13
HETATM   13  C           1     -21.057  -7.050  -5.307  0.00  0.00     0.249 C 
HETATM   14  O           1     -19.958  -7.403  -5.660  0.00  0.00    -0.271 OA
HETATM   15  N           1     -21.545  -7.445  -4.090  0.00  0.00    -0.344 N 
HETATM   16  H           1     -22.466  -7.150  -3.793  0.00  0.00     0.163 HD
BRANCH  15  17
HETATM   17  C           1     -20.741  -8.288  -3.227  0.00  0.00     0.195 C 
BRANCH  17  18
HETATM   18  C           1     -21.409  -9.633  -3.074  0.00  0.00     0.197 C 
HETATM   19  O           1     -21.138 -10.358  -2.092  0.00  0.00    -0.646 OA
HETATM   20  O           1     -22.232 -10.023  -3.930  0.00  0.00    -0.646 OA
ENDBRANCH  17  18
BRANCH  17  21
HETATM   21  C           1     -20.605  -7.631  -1.858  0.00  0.00     0.149 C 
BRANCH  21  22
HETATM   22  C           1     -21.898  -6.942  -1.500  0.00  0.00     0.175 C 
HETATM   23  O           1     -22.693  -7.480  -0.699  0.00  0.00    -0.648 OA
HETATM   24  O           1     -22.176  -5.832  -2.006  0.00  0.00    -0.648 OA
ENDBRANCH  21  22
ENDBRANCH  17  21
ENDBRANCH  15  17
ENDBRANCH   1  13
BRANCH   1  25
HETATM   25  N           1     -23.198  -5.866  -5.531  0.00  0.00    -0.066 N 
HETATM   26  H           1     -23.782  -6.731  -5.492  0.00  0.00     0.275 HD
HETATM   27  H           1     -23.704  -5.128  -6.070  0.00  0.00     0.275 HD
HETATM   28  H           1     -23.016  -5.523  -4.560  0.00  0.00     0.275 HD
ENDBRANCH   1  25
TORSDOF 8
ENDMDL
MODEL 5
REMARK VINA RESULT:      -7.2      3.171      7.484
REMARK  8 active torsions:
REMARK  status: ('A' for Active; 'I' for Inactive)
REMARK    1  A    between atoms: C_3  and  C_12 
REMARK    2  A    between atoms: C_3  and  C_20 
REMARK    3  A    between atoms: C_9  and  C_11 
REMARK    4  A    between atoms: C_10  and  C_14 
REMARK    5  A    between atoms: C_10  and  C_11 
REMARK    6  A    between atoms: C_11  and  N_22 
REMARK    7  A    between atoms: C_12  and  C_13 
REMARK    8  A    between atoms: C_12  and  N_16 
REMARK       I    between atoms: C_13  and  N_22 
ROOT
HETATM    1  C           1     -20.398  -5.241  -6.435  0.00  0.00     0.278 C 
ENDROOT
BRANCH   1   2
HETATM    2  C           1     -21.078  -3.982  -6.955  0.00  0.00     0.083 C 
BRANCH   2   3
HETATM    3  C           1     -21.095  -4.005  -8.451  0.00  0.00    -0.028 A 
HETATM    4  C           1     -22.251  -3.929  -9.278  0.00  0.00    -0.002 A 
HETATM    5  C           1     -21.813  -3.984 -10.602  0.00  0.00     0.042 A 
HETATM    6  C           1     -23.631  -3.820  -9.025  0.00  0.00     0.014 A 
HETATM    7  C           1     -22.691  -3.935 -11.690  0.00  0.00     0.030 A 
HETATM    8  N           1     -20.441  -4.089 -10.570  0.00  0.00    -0.365 N 
HETATM    9  C           1     -24.058  -3.826 -11.415  0.00  0.00     0.002 A 
HETATM   10  C           1     -24.523  -3.769 -10.103  0.00  0.00     0.001 A 
HETATM   11  C           1     -19.996  -4.102  -9.274  0.00  0.00     0.096 A 
HETATM   12  H           1     -19.822  -4.150 -11.417  0.00  0.00     0.165 HD
ENDBRANCH   2   3
ENDBRANCH   1   2
BRANCH   1  13
HETATM   13  C           1     -21.329  -5.964  -5.492  0.00  0.00     0.249 C 
HETATM   14  O           1     -22.516  -5.741  -5.525  0.00  0.00    -0.271 OA
HETATM   15  N           1     -20.829  -6.874  -4.600  0.00  0.00    -0.344 N 
HETATM   16  H           1     -19.835  -7.061  -4.572  0.00  0.00     0.163 HD
BRANCH  15  17
HETATM   17  C           1     -21.723  -7.568  -3.694  0.00  0.00     0.195 C 
BRANCH  17  18
HETATM   18  C           1     -21.638  -6.940  -2.324  0.00  0.00     0.197 C 
HETATM   19  O           1     -22.242  -5.871  -2.088  0.00  0.00    -0.646 OA
HETATM   20  O           1     -20.964  -7.488  -1.426  0.00  0.00    -0.646 OA
ENDBRANCH  17  18
BRANCH  17  21
HETATM   21  C           1     -21.320  -9.034  -3.605  0.00  0.00     0.149 C 
BRANCH  21  22
HETATM   22  C           1     -20.085  -9.268  -4.441  0.00  0.00     0.175 C 
HETATM   23  O           1     -20.197  -9.604  -5.640  0.00  0.00    -0.648 OA
HETATM   24  O           1     -18.951  -9.128  -3.934  0.00  0.00    -0.648 OA
ENDBRANCH  21  22
ENDBRANCH  17  21
ENDBRANCH  15  17
ENDBRANCH   1  13
BRANCH   1  25
HETATM   25  N           1     -20.060  -6.138  -7.588  0.00  0.00    -0.066 N 
HETATM   26  H           1     -20.922  -6.636  -7.907  0.00  0.00     0.275 HD
HETATM   27  H           1     -19.345  -6.838  -7.288  0.00  0.00     0.275 HD
HETATM   28  H           1     -19.677  -5.566  -8.375  0.00  0.00     0.275 HD
ENDBRANCH   1  25
TORSDOF 8
ENDMDL
MODEL 6
REMARK VINA RESULT:      -7.2      3.594      8.106
REMARK  8 active torsions:
REMARK  status: ('A' for Active; 'I' for Inactive)
REMARK    1  A    between atoms: C_3  and  C_12 
REMARK    2  A    between atoms: C_3  and  C_20 
REMARK    3  A    between atoms: C_9  and  C_11 
REMARK    4  A    between atoms: C_10  and  C_14 
REMARK    5  A    between atoms: C_10  and  C_11 
REMARK    6  A    between atoms: C_11  and  N_22 
REMARK    7  A    between atoms: C_12  and  C_13 
REMARK    8  A    between atoms: C_12  and  N_16 
REMARK       I    between atoms: C_13  and  N_22 
ROOT
HETATM    1  C           1     -21.088  -5.694  -5.545  0.00  0.00     0.278 C 
ENDROOT
BRANCH   1   2
HETATM    2  C           1     -21.005  -6.023  -7.029  0.00  0.00     0.083 C 
BRANCH   2   3
HETATM    3  C           1     -21.901  -5.102  -7.796  0.00  0.00    -0.028 A 
HETATM    4  C           1     -21.636  -4.550  -9.080  0.00  0.00    -0.002 A 
HETATM    5  C           1     -22.730  -3.752  -9.418  0.00  0.00     0.042 A 
HETATM    6  C           1     -20.566  -4.652  -9.989  0.00  0.00     0.014 A 
HETATM    7  C           1     -22.807  -3.049 -10.626  0.00  0.00     0.030 A 
HETATM    8  N           1     -23.622  -3.824  -8.372  0.00  0.00    -0.365 N 
HETATM    9  C           1     -21.733  -3.167 -11.513  0.00  0.00     0.002 A 
HETATM   10  C           1     -20.628  -3.956 -11.201  0.00  0.00     0.001 A 
HETATM   11  C           1     -23.130  -4.638  -7.385  0.00  0.00     0.096 A 
HETATM   12  H           1     -24.546  -3.326  -8.334  0.00  0.00     0.165 HD
ENDBRANCH   2   3
ENDBRANCH   1   2
BRANCH   1  13
HETATM   13  C           1     -20.625  -6.883  -4.739  0.00  0.00     0.249 C 
HETATM   14  O           1     -19.758  -7.606  -5.170  0.00  0.00    -0.271 OA
HETATM   15  N           1     -21.186  -7.142  -3.517  0.00  0.00    -0.344 N 
HETATM   16  H           1     -21.911  -6.537  -3.155  0.00  0.00     0.163 HD
BRANCH  15  17
HETATM   17  C           1     -20.741  -8.284  -2.743  0.00  0.00     0.195 C 
BRANCH  17  18
HETATM   18  C           1     -21.646  -9.461  -3.017  0.00  0.00     0.197 C 
HETATM   19  O           1     -21.825 -10.330  -2.136  0.00  0.00    -0.646 OA
HETATM   20  O           1     -22.216  -9.566  -4.124  0.00  0.00    -0.646 OA
ENDBRANCH  17  18
BRANCH  17  21
HETATM   21  C           1     -20.789  -7.942  -1.259  0.00  0.00     0.149 C 
BRANCH  21  22
HETATM   22  C           1     -22.116  -7.302  -0.932  0.00  0.00     0.175 C 
HETATM   23  O           1     -22.392  -6.170  -1.385  0.00  0.00    -0.648 OA
HETATM   24  O           1     -22.939  -7.904  -0.209  0.00  0.00    -0.648 OA
ENDBRANCH  21  22
ENDBRANCH  17  21
ENDBRANCH  15  17
ENDBRANCH   1  13
BRANCH   1  25
HETATM   25  N           1     -20.211  -4.515  -5.245  0.00  0.00    -0.066 N 
HETATM   26  H           1     -19.353  -4.559  -5.840  0.00  0.00     0.275 HD
HETATM   27  H           1     -19.937  -4.532  -4.237  0.00  0.00     0.275 HD
HETATM   28  H           1     -20.733  -3.632  -5.449  0.00  0.00     0.275 HD
ENDBRANCH   1  25
TORSDOF 8
ENDMDL
MODEL 7
REMARK VINA RESULT:      -7.1     13.357     15.776
REMARK  8 active torsions:
REMARK  status: ('A' for Active; 'I' for Inactive)
REMARK    1  A    between atoms: C_3  and  C_12 
REMARK    2  A    between atoms: C_3  and  C_20 
REMARK    3  A    between atoms: C_9  and  C_11 
REMARK    4  A    between atoms: C_10  and  C_14 
REMARK    5  A    between atoms: C_10  and  C_11 
REMARK    6  A    between atoms: C_11  and  N_22 
REMARK    7  A    between atoms: C_12  and  C_13 
REMARK    8  A    between atoms: C_12  and  N_16 
REMARK       I    between atoms: C_13  and  N_22 
ROOT
HETATM    1  C           1     -35.942  -0.464 -11.063  0.00  0.00     0.278 C 
ENDROOT
BRANCH   1   2
HETATM    2  C           1     -36.123  -1.905 -10.607  0.00  0.00     0.083 C 
BRANCH   2   3
HETATM    3  C           1     -34.881  -2.685 -10.909  0.00  0.00    -0.028 A 
HETATM    4  C           1     -34.726  -4.095 -10.793  0.00  0.00    -0.002 A 
HETATM    5  C           1     -33.418  -4.397 -11.171  0.00  0.00     0.042 A 
HETATM    6  C           1     -35.578  -5.144 -10.401  0.00  0.00     0.014 A 
HETATM    7  C           1     -32.916  -5.703 -11.177  0.00  0.00     0.030 A 
HETATM    8  N           1     -32.808  -3.208 -11.502  0.00  0.00    -0.365 N 
HETATM    9  C           1     -33.780  -6.730 -10.785  0.00  0.00     0.002 A 
HETATM   10  C           1     -35.092  -6.457 -10.402  0.00  0.00     0.001 A 
HETATM   11  C           1     -33.684  -2.165 -11.347  0.00  0.00     0.096 A 
HETATM   12  H           1     -31.814  -3.112 -11.828  0.00  0.00     0.165 HD
ENDBRANCH   2   3
ENDBRANCH   1   2
BRANCH   1  13
HETATM   13  C           1     -36.448  -0.317 -12.478  0.00  0.00     0.249 C 
HETATM   14  O           1     -37.613  -0.512 -12.726  0.00  0.00    -0.271 OA
HETATM   15  N           1     -35.584   0.039 -13.479  0.00  0.00    -0.344 N 
HETATM   16  H           1     -34.608   0.203 -13.272  0.00  0.00     0.163 HD
BRANCH  15  17
HETATM   17  C           1     -36.070   0.181 -14.838  0.00  0.00     0.195 C 
BRANCH  17  18
HETATM   18  C           1     -35.603  -0.993 -15.664  0.00  0.00     0.197 C 
HETATM   19  O           1     -35.012  -1.948 -15.115  0.00  0.00    -0.646 OA
HETATM   20  O           1     -35.808  -1.010 -16.896  0.00  0.00    -0.646 OA
ENDBRANCH  17  18
BRANCH  17  21
HETATM   21  C           1     -35.528   1.471 -15.440  0.00  0.00     0.149 C 
BRANCH  21  22
HETATM   22  C           1     -36.613   2.149 -16.240  0.00  0.00     0.175 C 
HETATM   23  O           1     -36.342   3.149 -16.940  0.00  0.00    -0.648 OA
HETATM   24  O           1     -37.784   1.711 -16.202  0.00  0.00    -0.648 OA
ENDBRANCH  21  22
ENDBRANCH  17  21
ENDBRANCH  15  17
ENDBRANCH   1  13
BRANCH   1  25
HETATM   25  N           1     -36.717   0.447 -10.158  0.00  0.00    -0.066 N 
HETATM   26  H           1     -37.740   0.321 -10.330  0.00  0.00     0.275 HD
HETATM   27  H           1     -36.451   1.439 -10.351  0.00  0.00     0.275 HD
HETATM   28  H           1     -36.499   0.216  -9.162  0.00  0.00     0.275 HD
ENDBRANCH   1  25
TORSDOF 8
ENDMDL
MODEL 8
REMARK VINA RESULT:      -6.6      0.738      2.372
REMARK  8 active torsions:
REMARK  status: ('A' for Active; 'I' for Inactive)
REMARK    1  A    between atoms: C_3  and  C_12 
REMARK    2  A    between atoms: C_3  and  C_20 
REMARK    3  A    between atoms: C_9  and  C_11 
REMARK    4  A    between atoms: C_10  and  C_14 
REMARK    5  A    between atoms: C_10  and  C_11 
REMARK    6  A    between atoms: C_11  and  N_22 
REMARK    7  A    between atoms: C_12  and  C_13 
REMARK    8  A    between atoms: C_12  and  N_16 
REMARK       I    between atoms: C_13  and  N_22 
ROOT
HETATM    1  C           1     -20.849  -5.425  -6.321  0.00  0.00     0.278 C 
ENDROOT
BRANCH   1   2
HETATM    2  C           1     -21.959  -6.049  -5.487  0.00  0.00     0.083 C 
BRANCH   2   3
HETATM    3  C           1     -21.377  -7.082  -4.573  0.00  0.00    -0.028 A 
HETATM    4  C           1     -21.572  -7.163  -3.166  0.00  0.00    -0.002 A 
HETATM    5  C           1     -20.852  -8.269  -2.714  0.00  0.00     0.042 A 
HETATM    6  C           1     -22.295  -6.397  -2.232  0.00  0.00     0.014 A 
HETATM    7  C           1     -20.820  -8.650  -1.368  0.00  0.00     0.030 A 
HETATM    8  N           1     -20.245  -8.833  -3.813  0.00  0.00    -0.365 N 
HETATM    9  C           1     -21.545  -7.875  -0.458  0.00  0.00     0.002 A 
HETATM   10  C           1     -22.273  -6.765  -0.881  0.00  0.00     0.001 A 
HETATM   11  C           1     -20.556  -8.123  -4.943  0.00  0.00     0.096 A 
HETATM   12  H           1     -19.632  -9.686  -3.790  0.00  0.00     0.165 HD
ENDBRANCH   2   3
ENDBRANCH   1   2
BRANCH   1  13
HETATM   13  C           1     -21.452  -4.699  -7.499  0.00  0.00     0.249 C 
HETATM   14  O           1     -21.667  -3.513  -7.433  0.00  0.00    -0.271 OA
HETATM   15  N           1     -21.753  -5.386  -8.645  0.00  0.00    -0.344 N 
HETATM   16  H           1     -21.573  -6.380  -8.702  0.00  0.00     0.163 HD
BRANCH  15  17
HETATM   17  C           1     -22.332  -4.689  -9.777  0.00  0.00     0.195 C 
BRANCH  17  18
HETATM   18  C           1     -21.232  -4.252 -10.714  0.00  0.00     0.197 C 
HETATM   19  O           1     -21.486  -4.036 -11.918  0.00  0.00    -0.646 OA
HETATM   20  O           1     -20.067  -4.108 -10.285  0.00  0.00    -0.646 OA
ENDBRANCH  17  18
BRANCH  17  21
HETATM   21  C           1     -23.094  -3.465  -9.284  0.00  0.00     0.149 C 
BRANCH  21  22
HETATM   22  C           1     -24.435  -3.396  -9.973  0.00  0.00     0.175 C 
HETATM   23  O           1     -24.598  -3.955 -11.080  0.00  0.00    -0.648 OA
HETATM   24  O           1     -25.381  -2.779  -9.438  0.00  0.00    -0.648 OA
ENDBRANCH  21  22
ENDBRANCH  17  21
ENDBRANCH  15  17
ENDBRANCH   1  13
BRANCH   1  25
HETATM   25  N           1     -20.077  -4.454  -5.478  0.00  0.00    -0.066 N 
HETATM   26  H           1     -20.150  -4.731  -4.473  0.00  0.00     0.275 HD
HETATM   27  H           1     -20.468  -3.494  -5.605  0.00  0.00     0.275 HD
HETATM   28  H           1     -19.073  -4.461  -5.770  0.00  0.00     0.275 HD
ENDBRANCH   1  25
TORSDOF 8
ENDMDL
MODEL 9
REMARK VINA RESULT:      -6.6      4.818      8.109
REMARK  8 active torsions:
REMARK  status: ('A' for Active; 'I' for Inactive)
REMARK    1  A    between atoms: C_3  and  C_12 
REMARK    2  A    between atoms: C_3  and  C_20 
REMARK    3  A    between atoms: C_9  and  C_11 
REMARK    4  A    between atoms: C_10  and  C_14 
REMARK    5  A    between atoms: C_10  and  C_11 
REMARK    6  A    between atoms: C_11  and  N_22 
REMARK    7  A    between atoms: C_12  and  C_13 
REMARK    8  A    between atoms: C_12  and  N_16 
REMARK       I    between atoms: C_13  and  N_22 
ROOT
HETATM    1  C           1     -19.434  -8.602  -4.249  0.00  0.00     0.278 C 
ENDROOT
BRANCH   1   2
HETATM    2  C           1     -20.688  -8.787  -5.091  0.00  0.00     0.083 C 
BRANCH   2   3
HETATM    3  C           1     -21.323  -7.455  -5.342  0.00  0.00    -0.028 A 
HETATM    4  C           1     -20.804  -6.419  -6.167  0.00  0.00    -0.002 A 
HETATM    5  C           1     -21.710  -5.360  -6.116  0.00  0.00     0.042 A 
HETATM    6  C           1     -19.645  -6.283  -6.955  0.00  0.00     0.014 A 
HETATM    7  C           1     -21.514  -4.164  -6.817  0.00  0.00     0.030 A 
HETATM    8  N           1     -22.738  -5.747  -5.287  0.00  0.00    -0.365 N 
HETATM    9  C           1     -20.356  -4.052  -7.593  0.00  0.00     0.002 A 
HETATM   10  C           1     -19.434  -5.094  -7.663  0.00  0.00     0.001 A 
HETATM   11  C           1     -22.515  -7.013  -4.813  0.00  0.00     0.096 A 
HETATM   12  H           1     -23.575  -5.157  -5.052  0.00  0.00     0.165 HD
ENDBRANCH   2   3
ENDBRANCH   1   2
BRANCH   1  13
HETATM   13  C           1     -19.657  -9.191  -2.877  0.00  0.00     0.249 C 
HETATM   14  O           1     -18.824  -9.916  -2.387  0.00  0.00    -0.271 OA
HETATM   15  N           1     -20.804  -8.902  -2.187  0.00  0.00    -0.344 N 
HETATM   16  H           1     -21.501  -8.295  -2.596  0.00  0.00     0.163 HD
BRANCH  15  17
HETATM   17  C           1     -21.018  -9.467  -0.869  0.00  0.00     0.195 C 
BRANCH  17  18
HETATM   18  C           1     -22.221 -10.378  -0.902  0.00  0.00     0.197 C 
HETATM   19  O           1     -22.611 -10.938   0.145  0.00  0.00    -0.646 OA
HETATM   20  O           1     -22.828 -10.572  -1.978  0.00  0.00    -0.646 OA
ENDBRANCH  17  18
BRANCH  17  21
HETATM   21  C           1     -21.259  -8.345   0.133  0.00  0.00     0.149 C 
BRANCH  21  22
HETATM   22  C           1     -22.406  -7.486  -0.341  0.00  0.00     0.175 C 
HETATM   23  O           1     -22.236  -6.679  -1.280  0.00  0.00    -0.648 OA
HETATM   24  O           1     -23.526  -7.582   0.207  0.00  0.00    -0.648 OA
ENDBRANCH  21  22
ENDBRANCH  17  21
ENDBRANCH  15  17
ENDBRANCH   1  13
BRANCH   1  25
HETATM   25  N           1     -18.281  -9.299  -4.910  0.00  0.00    -0.066 N 
HETATM   26  H           1     -17.485  -9.370  -4.237  0.00  0.00     0.275 HD
HETATM   27  H           1     -17.980  -8.755  -5.749  0.00  0.00     0.275 HD
HETATM   28  H           1     -18.576 -10.258  -5.204  0.00  0.00     0.275 HD
ENDBRANCH   1  25
TORSDOF 8
ENDMDL
