MODEL 1
REMARK VINA RESULT:      -6.3      0.000      0.000
REMARK  9 active torsions:
REMARK  status: ('A' for Active; 'I' for Inactive)
REMARK       I    between atoms: C_1  and  N_6 
REMARK    1  A    between atoms: C_1  and  C_3 
REMARK    2  A    between atoms: C_3  and  C_4 
REMARK    3  A    between atoms: C_3  and  N_13 
REMARK    4  A    between atoms: C_4  and  C_9 
REMARK    5  A    between atoms: N_6  and  C_15 
REMARK    6  A    between atoms: C_8  and  C_21 
REMARK    7  A    between atoms: C_8  and  C_15 
REMARK    8  A    between atoms: C_11  and  C_15 
REMARK    9  A    between atoms: Se_20  and  C_21 
ROOT
HETATM    1  C           1     -21.073  -5.722  -6.799  0.00  0.00     0.280 C 
ENDROOT
BRANCH   1   2
HETATM    2  C           1     -21.607  -4.595  -7.650  0.00  0.00     0.249 C 
HETATM    3  N           1     -22.155  -4.863  -8.876  0.00  0.00    -0.345 N 
HETATM    4  H           1     -22.202  -5.817  -9.211  0.00  0.00     0.163 HD
HETATM    5  O           1     -21.552  -3.457  -7.250  0.00  0.00    -0.271 OA
BRANCH   3   6
HETATM    6  C           1     -22.668  -3.781  -9.694  0.00  0.00     0.185 C 
BRANCH   6   7
HETATM    7  C           1     -22.159  -3.937 -11.121  0.00  0.00     0.036 C 
BRANCH   7   8
HETATM    8  C           1     -22.579  -2.728 -11.944  0.00  0.00     0.003 C 
BRANCH   8   9
HETATM    9 Se           1     -23.878  -3.276 -13.291  0.00  0.00     0.000 Se
HETATM   10  C           1     -23.121  -2.174 -14.707  0.00  0.00     0.000 C 
ENDBRANCH   8   9
ENDBRANCH   7   8
ENDBRANCH   6   7
BRANCH   6  11
HETATM   11  C           1     -24.176  -3.822  -9.691  0.00  0.00     0.196 C 
HETATM   12  O           1     -24.829  -2.784  -9.450  0.00  0.00    -0.646 OA
HETATM   13  O           1     -24.773  -4.894  -9.929  0.00  0.00    -0.646 OA
ENDBRANCH   6  11
ENDBRANCH   3   6
ENDBRANCH   1   2
BRANCH   1  14
HETATM   14  C           1     -20.823  -5.215  -5.384  0.00  0.00     0.101 C 
BRANCH  14  15
HETATM   15  C           1     -21.141  -6.299  -4.402  0.00  0.00     0.028 A 
HETATM   16  C           1     -21.405  -6.093  -3.069  0.00  0.00     0.114 A 
HETATM   17  N           1     -21.637  -7.339  -2.557  0.00  0.00    -0.360 N 
HETATM   18  C           1     -21.505  -8.234  -3.580  0.00  0.00     0.180 A 
HETATM   19  H           1     -21.873  -7.566  -1.559  0.00  0.00     0.166 HD
HETATM   20  N           1     -21.205  -7.634  -4.709  0.00  0.00    -0.355 N 
ATOM     21  HN          1     -21.051  -8.068  -5.619  1.00  0.00     0.166 HD
ENDBRANCH  14  15
ENDBRANCH   1  14
BRANCH   1  22
HETATM   22  N           1     -19.787  -6.223  -7.385  0.00  0.00    -0.066 N 
HETATM   23  H           1     -19.079  -6.338  -6.625  0.00  0.00     0.275 HD
HETATM   24  H           1     -19.952  -7.145  -7.849  0.00  0.00     0.275 HD
HETATM   25  H           1     -19.434  -5.536  -8.089  0.00  0.00     0.275 HD
ENDBRANCH   1  22
TORSDOF 9
ENDMDL
MODEL 2
REMARK VINA RESULT:      -6.2      3.634      7.941
REMARK  9 active torsions:
REMARK  status: ('A' for Active; 'I' for Inactive)
REMARK       I    between atoms: C_1  and  N_6 
REMARK    1  A    between atoms: C_1  and  C_3 
REMARK    2  A    between atoms: C_3  and  C_4 
REMARK    3  A    between atoms: C_3  and  N_13 
REMARK    4  A    between atoms: C_4  and  C_9 
REMARK    5  A    between atoms: N_6  and  C_15 
REMARK    6  A    between atoms: C_8  and  C_21 
REMARK    7  A    between atoms: C_8  and  C_15 
REMARK    8  A    between atoms: C_11  and  C_15 
REMARK    9  A    between atoms: Se_20  and  C_21 
ROOT
HETATM    1  C           1     -22.979  -4.264  -8.966  0.00  0.00     0.280 C 
ENDROOT
BRANCH   1   2
HETATM    2  C           1     -22.147  -4.471  -7.723  0.00  0.00     0.249 C 
HETATM    3  N           1     -22.104  -5.701  -7.125  0.00  0.00    -0.345 N 
HETATM    4  H           1     -22.631  -6.472  -7.515  0.00  0.00     0.163 HD
HETATM    5  O           1     -21.518  -3.551  -7.258  0.00  0.00    -0.271 OA
BRANCH   3   6
HETATM    6  C           1     -21.305  -5.900  -5.931  0.00  0.00     0.185 C 
BRANCH   6   7
HETATM    7  C           1     -22.130  -6.638  -4.884  0.00  0.00     0.036 C 
BRANCH   7   8
HETATM    8  C           1     -21.729  -6.162  -3.494  0.00  0.00     0.003 C 
BRANCH   8   9
HETATM    9 Se           1     -21.372  -7.705  -2.357  0.00  0.00     0.000 Se
HETATM   10  C           1     -22.357  -7.010  -0.826  0.00  0.00     0.000 C 
ENDBRANCH   8   9
ENDBRANCH   7   8
ENDBRANCH   6   7
BRANCH   6  11
HETATM   11  C           1     -20.084  -6.716  -6.275  0.00  0.00     0.196 C 
HETATM   12  O           1     -19.307  -6.328  -7.173  0.00  0.00    -0.646 OA
HETATM   13  O           1     -19.851  -7.780  -5.662  0.00  0.00    -0.646 OA
ENDBRANCH   6  11
ENDBRANCH   3   6
ENDBRANCH   1   2
BRANCH   1  14
HETATM   14  C           1     -22.155  -3.523 -10.011  0.00  0.00     0.101 C 
BRANCH  14  15
HETATM   15  C           1     -22.895  -3.510 -11.313  0.00  0.00     0.028 A 
HETATM   16  C           1     -23.402  -4.626 -11.934  0.00  0.00     0.114 A 
HETATM   17  N           1     -23.988  -4.159 -13.078  0.00  0.00    -0.360 N 
HETATM   18  C           1     -23.816  -2.804 -13.103  0.00  0.00     0.180 A 
HETATM   19  H           1     -24.480  -4.736 -13.804  0.00  0.00     0.166 HD
HETATM   20  N           1     -23.157  -2.383 -12.048  0.00  0.00    -0.355 N 
ATOM     21  HN          1     -22.896  -1.422 -11.823  1.00  0.00     0.166 HD
ENDBRANCH  14  15
ENDBRANCH   1  14
BRANCH   1  22
HETATM   22  N           1     -24.195  -3.457  -8.623  0.00  0.00    -0.066 N 
HETATM   23  H           1     -23.976  -2.815  -7.829  0.00  0.00     0.275 HD
HETATM   24  H           1     -24.485  -2.894  -9.455  0.00  0.00     0.275 HD
HETATM   25  H           1     -24.973  -4.099  -8.348  0.00  0.00     0.275 HD
ENDBRANCH   1  22
TORSDOF 9
ENDMDL
MODEL 3
REMARK VINA RESULT:      -6.0     12.755     14.351
REMARK  9 active torsions:
REMARK  status: ('A' for Active; 'I' for Inactive)
REMARK       I    between atoms: C_1  and  N_6 
REMARK    1  A    between atoms: C_1  and  C_3 
REMARK    2  A    between atoms: C_3  and  C_4 
REMARK    3  A    between atoms: C_3  and  N_13 
REMARK    4  A    between atoms: C_4  and  C_9 
REMARK    5  A    between atoms: N_6  and  C_15 
REMARK    6  A    between atoms: C_8  and  C_21 
REMARK    7  A    between atoms: C_8  and  C_15 
REMARK    8  A    between atoms: C_11  and  C_15 
REMARK    9  A    between atoms: Se_20  and  C_21 
ROOT
HETATM    1  C           1     -33.162  -4.518 -16.729  0.00  0.00     0.280 C 
ENDROOT
BRANCH   1   2
HETATM    2  C           1     -33.925  -4.544 -15.427  0.00  0.00     0.249 C 
HETATM    3  N           1     -33.366  -4.013 -14.295  0.00  0.00    -0.345 N 
HETATM    4  H           1     -32.441  -3.604 -14.332  0.00  0.00     0.163 HD
HETATM    5  O           1     -35.028  -5.032 -15.383  0.00  0.00    -0.271 OA
BRANCH   3   6
HETATM    6  C           1     -34.098  -4.038 -13.044  0.00  0.00     0.185 C 
BRANCH   6   7
HETATM    7  C           1     -33.119  -4.159 -11.883  0.00  0.00     0.036 C 
BRANCH   7   8
HETATM    8  C           1     -33.188  -5.567 -11.307  0.00  0.00     0.003 C 
BRANCH   8   9
HETATM    9 Se           1     -34.844  -5.777 -10.300  0.00  0.00     0.000 Se
HETATM   10  C           1     -34.682  -7.710 -10.120  0.00  0.00     0.000 C 
ENDBRANCH   8   9
ENDBRANCH   7   8
ENDBRANCH   6   7
BRANCH   6  11
HETATM   11  C           1     -34.891  -2.762 -12.901  0.00  0.00     0.196 C 
HETATM   12  O           1     -35.643  -2.600 -11.916  0.00  0.00    -0.646 OA
HETATM   13  O           1     -34.796  -1.867 -13.769  0.00  0.00    -0.646 OA
ENDBRANCH   6  11
ENDBRANCH   3   6
ENDBRANCH   1   2
BRANCH   1  14
HETATM   14  C           1     -31.666  -4.548 -16.442  0.00  0.00     0.101 C 
BRANCH  14  15
HETATM   15  C           1     -31.033  -5.668 -17.207  0.00  0.00     0.028 A 
HETATM   16  C           1     -29.876  -5.557 -17.941  0.00  0.00     0.114 A 
HETATM   17  N           1     -29.667  -6.803 -18.464  0.00  0.00    -0.360 N 
HETATM   18  C           1     -30.686  -7.604 -18.035  0.00  0.00     0.180 A 
HETATM   19  H           1     -28.868  -7.090 -19.083  0.00  0.00     0.166 HD
HETATM   20  N           1     -31.528  -6.945 -17.273  0.00  0.00    -0.355 N 
ATOM     21  HN          1     -32.371  -7.306 -16.825  1.00  0.00     0.166 HD
ENDBRANCH  14  15
ENDBRANCH   1  14
BRANCH   1  22
HETATM   22  N           1     -33.501  -3.267 -17.481  0.00  0.00    -0.066 N 
HETATM   23  H           1     -32.879  -2.489 -17.164  0.00  0.00     0.275 HD
HETATM   24  H           1     -33.362  -3.428 -18.505  0.00  0.00     0.275 HD
HETATM   25  H           1     -34.498  -3.011 -17.300  0.00  0.00     0.275 HD
ENDBRANCH   1  22
TORSDOF 9
ENDMDL
MODEL 4
REMARK VINA RESULT:      -5.9      3.897      7.951
REMARK  9 active torsions:
REMARK  status: ('A' for Active; 'I' for Inactive)
REMARK       I    between atoms: C_1  and  N_6 
REMARK    1  A    between atoms: C_1  and  C_3 
REMARK    2  A    between atoms: C_3  and  C_4 
REMARK    3  A    between atoms: C_3  and  N_13 
REMARK    4  A    between atoms: C_4  and  C_9 
REMARK    5  A    between atoms: N_6  and  C_15 
REMARK    6  A    between atoms: C_8  and  C_21 
REMARK    7  A    between atoms: C_8  and  C_15 
REMARK    8  A    between atoms: C_11  and  C_15 
REMARK    9  A    between atoms: Se_20  and  C_21 
ROOT
HETATM    1  C           1     -22.317  -4.669  -8.070  0.00  0.00     0.280 C 
ENDROOT
BRANCH   1   2
HETATM    2  C           1     -21.536  -5.111  -6.856  0.00  0.00     0.249 C 
HETATM    3  N           1     -22.037  -6.088  -6.039  0.00  0.00    -0.345 N 
HETATM    4  H           1     -22.931  -6.514  -6.248  0.00  0.00     0.163 HD
HETATM    5  O           1     -20.470  -4.603  -6.606  0.00  0.00    -0.271 OA
BRANCH   3   6
HETATM    6  C           1     -21.287  -6.513  -4.873  0.00  0.00     0.185 C 
BRANCH   6   7
HETATM    7  C           1     -22.232  -6.660  -3.686  0.00  0.00     0.036 C 
BRANCH   7   8
HETATM    8  C           1     -21.559  -6.121  -2.432  0.00  0.00     0.003 C 
BRANCH   8   9
HETATM    9 Se           1     -22.259  -7.050  -0.867  0.00  0.00     0.000 Se
HETATM   10  C           1     -21.301  -8.709  -1.220  0.00  0.00     0.000 C 
ENDBRANCH   8   9
ENDBRANCH   7   8
ENDBRANCH   6   7
BRANCH   6  11
HETATM   11  C           1     -20.627  -7.840  -5.156  0.00  0.00     0.196 C 
HETATM   12  O           1     -21.112  -8.608  -6.015  0.00  0.00    -0.646 OA
HETATM   13  O           1     -19.596  -8.170  -4.532  0.00  0.00    -0.646 OA
ENDBRANCH   6  11
ENDBRANCH   3   6
ENDBRANCH   1   2
BRANCH   1  14
HETATM   14  C           1     -21.564  -3.551  -8.779  0.00  0.00     0.101 C 
BRANCH  14  15
HETATM   15  C           1     -21.804  -3.643 -10.254  0.00  0.00     0.028 A 
HETATM   16  C           1     -20.858  -4.020 -11.177  0.00  0.00     0.114 A 
HETATM   17  N           1     -21.500  -3.965 -12.383  0.00  0.00    -0.360 N 
HETATM   18  C           1     -22.784  -3.564 -12.147  0.00  0.00     0.180 A 
HETATM   19  H           1     -21.081  -4.190 -13.320  0.00  0.00     0.166 HD
HETATM   20  N           1     -22.997  -3.360 -10.868  0.00  0.00    -0.355 N 
ATOM     21  HN          1     -23.865  -3.057 -10.425  1.00  0.00     0.166 HD
ENDBRANCH  14  15
ENDBRANCH   1  14
BRANCH   1  22
HETATM   22  N           1     -23.665  -4.170  -7.642  0.00  0.00    -0.066 N 
HETATM   23  H           1     -23.865  -3.258  -8.111  0.00  0.00     0.275 HD
HETATM   24  H           1     -24.396  -4.867  -7.911  0.00  0.00     0.275 HD
HETATM   25  H           1     -23.674  -4.037  -6.605  0.00  0.00     0.275 HD
ENDBRANCH   1  22
TORSDOF 9
ENDMDL
MODEL 5
REMARK VINA RESULT:      -5.8      3.822      7.619
REMARK  9 active torsions:
REMARK  status: ('A' for Active; 'I' for Inactive)
REMARK       I    between atoms: C_1  and  N_6 
REMARK    1  A    between atoms: C_1  and  C_3 
REMARK    2  A    between atoms: C_3  and  C_4 
REMARK    3  A    between atoms: C_3  and  N_13 
REMARK    4  A    between atoms: C_4  and  C_9 
REMARK    5  A    between atoms: N_6  and  C_15 
REMARK    6  A    between atoms: C_8  and  C_21 
REMARK    7  A    between atoms: C_8  and  C_15 
REMARK    8  A    between atoms: C_11  and  C_15 
REMARK    9  A    between atoms: Se_20  and  C_21 
ROOT
HETATM    1  C           1     -21.338  -4.662  -6.796  0.00  0.00     0.280 C 
ENDROOT
BRANCH   1   2
HETATM    2  C           1     -21.938  -5.649  -5.824  0.00  0.00     0.249 C 
HETATM    3  N           1     -21.122  -6.449  -5.070  0.00  0.00    -0.345 N 
HETATM    4  H           1     -20.117  -6.379  -5.164  0.00  0.00     0.163 HD
HETATM    5  O           1     -23.137  -5.733  -5.712  0.00  0.00    -0.271 OA
BRANCH   3   6
HETATM    6  C           1     -21.698  -7.397  -4.136  0.00  0.00     0.185 C 
BRANCH   6   7
HETATM    7  C           1     -20.935  -8.714  -4.213  0.00  0.00     0.036 C 
BRANCH   7   8
HETATM    8  C           1     -19.629  -8.500  -4.965  0.00  0.00     0.003 C 
BRANCH   8   9
HETATM    9 Se           1     -18.503 -10.081  -4.778  0.00  0.00     0.000 Se
HETATM   10  C           1     -17.648  -9.480  -3.134  0.00  0.00     0.000 C 
ENDBRANCH   8   9
ENDBRANCH   7   8
ENDBRANCH   6   7
BRANCH   6  11
HETATM   11  C           1     -21.605  -6.843  -2.736  0.00  0.00     0.196 C 
HETATM   12  O           1     -20.781  -7.322  -1.928  0.00  0.00    -0.646 OA
HETATM   13  O           1     -22.353  -5.905  -2.384  0.00  0.00    -0.646 OA
ENDBRANCH   6  11
ENDBRANCH   3   6
ENDBRANCH   1   2
BRANCH   1  14
HETATM   14  C           1     -21.480  -5.197  -8.215  0.00  0.00     0.101 C 
BRANCH  14  15
HETATM   15  C           1     -22.551  -4.436  -8.932  0.00  0.00     0.028 A 
HETATM   16  C           1     -22.482  -4.039 -10.246  0.00  0.00     0.114 A 
HETATM   17  N           1     -23.659  -3.384 -10.481  0.00  0.00    -0.360 N 
HETATM   18  C           1     -24.381  -3.409  -9.321  0.00  0.00     0.180 A 
HETATM   19  H           1     -23.954  -2.942 -11.387  0.00  0.00     0.166 HD
HETATM   20  N           1     -23.735  -4.039  -8.366  0.00  0.00    -0.355 N 
ATOM     21  HN          1     -24.048  -4.198  -7.408  1.00  0.00     0.166 HD
ENDBRANCH  14  15
ENDBRANCH   1  14
BRANCH   1  22
HETATM   22  N           1     -19.886  -4.468  -6.478  0.00  0.00    -0.066 N 
HETATM   23  H           1     -19.308  -4.736  -7.306  0.00  0.00     0.275 HD
HETATM   24  H           1     -19.712  -3.464  -6.243  0.00  0.00     0.275 HD
HETATM   25  H           1     -19.625  -5.068  -5.662  0.00  0.00     0.275 HD
ENDBRANCH   1  22
TORSDOF 9
ENDMDL
MODEL 6
REMARK VINA RESULT:      -5.6     11.048     13.419
REMARK  9 active torsions:
REMARK  status: ('A' for Active; 'I' for Inactive)
REMARK       I    between atoms: C_1  and  N_6 
REMARK    1  A    between atoms: C_1  and  C_3 
REMARK    2  A    between atoms: C_3  and  C_4 
REMARK    3  A    between atoms: C_3  and  N_13 
REMARK    4  A    between atoms: C_4  and  C_9 
REMARK    5  A    between atoms: N_6  and  C_15 
REMARK    6  A    between atoms: C_8  and  C_21 
REMARK    7  A    between atoms: C_8  and  C_15 
REMARK    8  A    between atoms: C_11  and  C_15 
REMARK    9  A    between atoms: Se_20  and  C_21 
ROOT
HETATM    1  C           1     -25.599  -6.657 -19.609  0.00  0.00     0.280 C 
ENDROOT
BRANCH   1   2
HETATM    2  C           1     -26.932  -6.352 -18.970  0.00  0.00     0.249 C 
HETATM    3  N           1     -27.230  -6.858 -17.733  0.00  0.00    -0.345 N 
HETATM    4  H           1     -26.557  -7.437 -17.248  0.00  0.00     0.163 HD
HETATM    5  O           1     -27.735  -5.659 -19.548  0.00  0.00    -0.271 OA
BRANCH   3   6
HETATM    6  C           1     -28.510  -6.565 -17.119  0.00  0.00     0.185 C 
BRANCH   6   7
HETATM    7  C           1     -29.505  -7.664 -17.467  0.00  0.00     0.036 C 
BRANCH   7   8
HETATM    8  C           1     -30.599  -7.094 -18.359  0.00  0.00     0.003 C 
BRANCH   8   9
HETATM    9 Se           1     -32.146  -6.619 -17.271  0.00  0.00     0.000 Se
HETATM   10  C           1     -31.584  -4.776 -16.985  0.00  0.00     0.000 C 
ENDBRANCH   8   9
ENDBRANCH   7   8
ENDBRANCH   6   7
BRANCH   6  11
HETATM   11  C           1     -28.343  -6.494 -15.621  0.00  0.00     0.196 C 
HETATM   12  O           1     -28.732  -5.484 -14.996  0.00  0.00    -0.646 OA
HETATM   13  O           1     -27.815  -7.445 -15.006  0.00  0.00    -0.646 OA
ENDBRANCH   6  11
ENDBRANCH   3   6
ENDBRANCH   1   2
BRANCH   1  14
HETATM   14  C           1     -25.787  -7.705 -20.699  0.00  0.00     0.101 C 
BRANCH  14  15
HETATM   15  C           1     -24.468  -7.996 -21.345  0.00  0.00     0.028 A 
HETATM   16  C           1     -24.124  -7.619 -22.621  0.00  0.00     0.114 A 
HETATM   17  N           1     -22.850  -8.084 -22.796  0.00  0.00    -0.360 N 
HETATM   18  C           1     -22.481  -8.714 -21.642  0.00  0.00     0.180 A 
HETATM   19  H           1     -22.264  -7.977 -23.661  0.00  0.00     0.166 HD
HETATM   20  N           1     -23.440  -8.677 -20.746  0.00  0.00    -0.355 N 
ATOM     21  HN          1     -23.424  -9.070 -19.805  1.00  0.00     0.166 HD
ENDBRANCH  14  15
ENDBRANCH   1  14
BRANCH   1  22
HETATM   22  N           1     -24.655  -7.182 -18.569  0.00  0.00    -0.066 N 
HETATM   23  H           1     -23.966  -6.438 -18.316  0.00  0.00     0.275 HD
HETATM   24  H           1     -25.194  -7.460 -17.718  0.00  0.00     0.275 HD
HETATM   25  H           1     -24.147  -8.013 -18.948  0.00  0.00     0.275 HD
ENDBRANCH   1  22
TORSDOF 9
ENDMDL
MODEL 7
REMARK VINA RESULT:      -5.5     10.813     13.279
REMARK  9 active torsions:
REMARK  status: ('A' for Active; 'I' for Inactive)
REMARK       I    between atoms: C_1  and  N_6 
REMARK    1  A    between atoms: C_1  and  C_3 
REMARK    2  A    between atoms: C_3  and  C_4 
REMARK    3  A    between atoms: C_3  and  N_13 
REMARK    4  A    between atoms: C_4  and  C_9 
REMARK    5  A    between atoms: N_6  and  C_15 
REMARK    6  A    between atoms: C_8  and  C_21 
REMARK    7  A    between atoms: C_8  and  C_15 
REMARK    8  A    between atoms: C_11  and  C_15 
REMARK    9  A    between atoms: Se_20  and  C_21 
ROOT
HETATM    1  C           1     -31.296  -6.146 -17.551  0.00  0.00     0.280 C 
ENDROOT
BRANCH   1   2
HETATM    2  C           1     -29.996  -6.913 -17.555  0.00  0.00     0.249 C 
HETATM    3  N           1     -28.842  -6.307 -17.136  0.00  0.00    -0.345 N 
HETATM    4  H           1     -28.860  -5.345 -16.825  0.00  0.00     0.163 HD
HETATM    5  O           1     -29.974  -8.062 -17.927  0.00  0.00    -0.271 OA
BRANCH   3   6
HETATM    6  C           1     -27.593  -7.044 -17.140  0.00  0.00     0.185 C 
BRANCH   6   7
HETATM    7  C           1     -26.538  -6.251 -17.902  0.00  0.00     0.036 C 
BRANCH   7   8
HETATM    8  C           1     -26.917  -6.185 -19.375  0.00  0.00     0.003 C 
BRANCH   8   9
HETATM    9 Se           1     -25.493  -6.971 -20.450  0.00  0.00     0.000 Se
HETATM   10  C           1     -24.239  -7.131 -18.968  0.00  0.00     0.000 C 
ENDBRANCH   8   9
ENDBRANCH   7   8
ENDBRANCH   6   7
BRANCH   6  11
HETATM   11  C           1     -27.132  -7.258 -15.720  0.00  0.00     0.196 C 
HETATM   12  O           1     -25.914  -7.221 -15.446  0.00  0.00    -0.646 OA
HETATM   13  O           1     -27.970  -7.476 -14.818  0.00  0.00    -0.646 OA
ENDBRANCH   6  11
ENDBRANCH   3   6
ENDBRANCH   1   2
BRANCH   1  14
HETATM   14  C           1     -31.252  -5.078 -16.465  0.00  0.00     0.101 C 
BRANCH  14  15
HETATM   15  C           1     -32.526  -4.293 -16.484  0.00  0.00     0.028 A 
HETATM   16  C           1     -32.897  -3.429 -17.487  0.00  0.00     0.114 A 
HETATM   17  N           1     -34.113  -2.938 -17.101  0.00  0.00    -0.360 N 
HETATM   18  C           1     -34.424  -3.512 -15.901  0.00  0.00     0.180 A 
HETATM   19  H           1     -34.699  -2.245 -17.629  0.00  0.00     0.166 HD
HETATM   20  N           1     -33.483  -4.336 -15.503  0.00  0.00    -0.355 N 
ATOM     21  HN          1     -33.467  -4.891 -14.647  1.00  0.00     0.166 HD
ENDBRANCH  14  15
ENDBRANCH   1  14
BRANCH   1  22
HETATM   22  N           1     -32.430  -7.088 -17.279  0.00  0.00    -0.066 N 
HETATM   23  H           1     -33.328  -6.554 -17.247  0.00  0.00     0.275 HD
HETATM   24  H           1     -32.479  -7.803 -18.041  0.00  0.00     0.275 HD
HETATM   25  H           1     -32.275  -7.565 -16.362  0.00  0.00     0.275 HD
ENDBRANCH   1  22
TORSDOF 9
ENDMDL
MODEL 8
REMARK VINA RESULT:      -5.4      4.485      8.018
REMARK  9 active torsions:
REMARK  status: ('A' for Active; 'I' for Inactive)
REMARK       I    between atoms: C_1  and  N_6 
REMARK    1  A    between atoms: C_1  and  C_3 
REMARK    2  A    between atoms: C_3  and  C_4 
REMARK    3  A    between atoms: C_3  and  N_13 
REMARK    4  A    between atoms: C_4  and  C_9 
REMARK    5  A    between atoms: N_6  and  C_15 
REMARK    6  A    between atoms: C_8  and  C_21 
REMARK    7  A    between atoms: C_8  and  C_15 
REMARK    8  A    between atoms: C_11  and  C_15 
REMARK    9  A    between atoms: Se_20  and  C_21 
ROOT
HETATM    1  C           1     -21.945  -6.167  -6.181  0.00  0.00     0.280 C 
ENDROOT
BRANCH   1   2
HETATM    2  C           1     -20.736  -7.002  -5.834  0.00  0.00     0.249 C 
HETATM    3  N           1     -20.812  -7.937  -4.837  0.00  0.00    -0.345 N 
HETATM    4  H           1     -21.679  -8.068  -4.332  0.00  0.00     0.163 HD
HETATM    5  O           1     -19.702  -6.845  -6.437  0.00  0.00    -0.271 OA
BRANCH   3   6
HETATM    6  C           1     -19.650  -8.738  -4.504  0.00  0.00     0.185 C 
BRANCH   6   7
HETATM    7  C           1     -19.567  -8.909  -2.993  0.00  0.00     0.036 C 
BRANCH   7   8
HETATM    8  C           1     -20.961  -9.150  -2.431  0.00  0.00     0.003 C 
BRANCH   8   9
HETATM    9 Se           1     -21.143  -8.231  -0.722  0.00  0.00     0.000 Se
HETATM   10  C           1     -22.163  -6.738  -1.446  0.00  0.00     0.000 C 
ENDBRANCH   8   9
ENDBRANCH   7   8
ENDBRANCH   6   7
BRANCH   6  11
HETATM   11  C           1     -19.772 -10.093  -5.157  0.00  0.00     0.196 C 
HETATM   12  O           1     -20.721 -10.329  -5.935  0.00  0.00    -0.646 OA
HETATM   13  O           1     -18.923 -10.979  -4.919  0.00  0.00    -0.646 OA
ENDBRANCH   6  11
ENDBRANCH   3   6
ENDBRANCH   1   2
BRANCH   1  14
HETATM   14  C           1     -21.498  -4.771  -6.593  0.00  0.00     0.101 C 
BRANCH  14  15
HETATM   15  C           1     -22.232  -4.356  -7.830  0.00  0.00     0.028 A 
HETATM   16  C           1     -21.646  -4.166  -9.059  0.00  0.00     0.114 A 
HETATM   17  N           1     -22.671  -3.797  -9.886  0.00  0.00    -0.360 N 
HETATM   18  C           1     -23.814  -3.778  -9.139  0.00  0.00     0.180 A 
HETATM   19  H           1     -22.592  -3.570 -10.908  0.00  0.00     0.166 HD
HETATM   20  N           1     -23.579  -4.111  -7.891  0.00  0.00    -0.355 N 
ATOM     21  HN          1     -24.255  -4.175  -7.129  1.00  0.00     0.166 HD
ENDBRANCH  14  15
ENDBRANCH   1  14
BRANCH   1  22
HETATM   22  N           1     -22.844  -6.071  -4.984  0.00  0.00    -0.066 N 
HETATM   23  H           1     -23.325  -6.986  -4.834  0.00  0.00     0.275 HD
HETATM   24  H           1     -22.275  -5.835  -4.140  0.00  0.00     0.275 HD
HETATM   25  H           1     -23.558  -5.323  -5.145  0.00  0.00     0.275 HD
ENDBRANCH   1  22
TORSDOF 9
ENDMDL
MODEL 9
REMARK VINA RESULT:      -5.3     19.016     20.570
REMARK  9 active torsions:
REMARK  status: ('A' for Active; 'I' for Inactive)
REMARK       I    between atoms: C_1  and  N_6 
REMARK    1  A    between atoms: C_1  and  C_3 
REMARK    2  A    between atoms: C_3  and  C_4 
REMARK    3  A    between atoms: C_3  and  N_13 
REMARK    4  A    between atoms: C_4  and  C_9 
REMARK    5  A    between atoms: N_6  and  C_15 
REMARK    6  A    between atoms: C_8  and  C_21 
REMARK    7  A    between atoms: C_8  and  C_15 
REMARK    8  A    between atoms: C_11  and  C_15 
REMARK    9  A    between atoms: Se_20  and  C_21 
ROOT
HETATM    1  C           1     -11.162   4.366 -20.511  0.00  0.00     0.280 C 
ENDROOT
BRANCH   1   2
HETATM    2  C           1     -10.448   5.648 -20.159  0.00  0.00     0.249 C 
HETATM    3  N           1     -10.870   6.836 -20.694  0.00  0.00    -0.345 N 
HETATM    4  H           1     -11.659   6.853 -21.327  0.00  0.00     0.163 HD
HETATM    5  O           1      -9.507   5.627 -19.403  0.00  0.00    -0.271 OA
BRANCH   3   6
HETATM    6  C           1     -10.184   8.068 -20.355  0.00  0.00     0.185 C 
BRANCH   6   7
HETATM    7  C           1     -10.321   9.058 -21.505  0.00  0.00     0.036 C 
BRANCH   7   8
HETATM    8  C           1     -11.165   8.439 -22.611  0.00  0.00     0.003 C 
BRANCH   8   9
HETATM    9 Se           1     -12.957   9.206 -22.569  0.00  0.00     0.000 Se
HETATM   10  C           1     -12.391  10.903 -21.798  0.00  0.00     0.000 C 
ENDBRANCH   8   9
ENDBRANCH   7   8
ENDBRANCH   6   7
BRANCH   6  11
HETATM   11  C           1     -10.797   8.656 -19.109  0.00  0.00     0.196 C 
HETATM   12  O           1     -10.062   9.073 -18.188  0.00  0.00    -0.646 OA
HETATM   13  O           1     -12.040   8.725 -18.996  0.00  0.00    -0.646 OA
ENDBRANCH   6  11
ENDBRANCH   3   6
ENDBRANCH   1   2
BRANCH   1  14
HETATM   14  C           1     -12.616   4.455 -20.067  0.00  0.00     0.101 C 
BRANCH  14  15
HETATM   15  C           1     -13.513   4.189 -21.236  0.00  0.00     0.028 A 
HETATM   16  C           1     -13.580   2.995 -21.914  0.00  0.00     0.114 A 
HETATM   17  N           1     -14.514   3.196 -22.893  0.00  0.00    -0.360 N 
HETATM   18  C           1     -14.966   4.479 -22.772  0.00  0.00     0.180 A 
HETATM   19  H           1     -14.825   2.491 -23.607  0.00  0.00     0.166 HD
HETATM   20  N           1     -14.378   5.105 -21.779  0.00  0.00    -0.355 N 
ATOM     21  HN          1     -14.531   6.067 -21.475  1.00  0.00     0.166 HD
ENDBRANCH  14  15
ENDBRANCH   1  14
BRANCH   1  22
HETATM   22  N           1     -10.497   3.217 -19.815  0.00  0.00    -0.066 N 
HETATM   23  H           1      -9.529   3.093 -20.190  0.00  0.00     0.275 HD
HETATM   24  H           1     -10.449   3.412 -18.789  0.00  0.00     0.275 HD
HETATM   25  H           1     -11.048   2.344 -19.979  0.00  0.00     0.275 HD
ENDBRANCH   1  22
TORSDOF 9
ENDMDL
