MODEL 1
REMARK VINA RESULT:      -6.2      0.000      0.000
REMARK  13 active torsions:
REMARK  status: ('A' for Active; 'I' for Inactive)
REMARK    1  A    between atoms: C_6  and  C_16 
REMARK    2  A    between atoms: C_6  and  C_25 
REMARK    3  A    between atoms: C_7  and  C_25 
REMARK    4  A    between atoms: C_12  and  C_14 
REMARK    5  A    between atoms: C_12  and  N_15 
REMARK    6  A    between atoms: C_14  and  C_24 
REMARK    7  A    between atoms: C_16  and  C_18 
REMARK    8  A    between atoms: C_18  and  N_19 
REMARK       I    between atoms: C_21  and  N_22 
REMARK    9  A    between atoms: C_21  and  C_26 
REMARK   10  A    between atoms: N_22  and  C_25 
REMARK   11  A    between atoms: N_23  and  C_26 
REMARK   12  A    between atoms: C_24  and  C_27 
REMARK   13  A    between atoms: C_26  and  C_27 
ROOT
HETATM    1  O           1     -21.614  -3.314  -7.342  0.00  0.00    -0.271 OA
HETATM    2  C           1     -21.597  -4.460  -7.725  0.00  0.00     0.249 C 
HETATM    3  N           1     -22.128  -4.782  -8.945  0.00  0.00    -0.345 N 
HETATM    4  H           1     -22.114  -5.741  -9.266  0.00  0.00     0.163 HD
ENDROOT
BRANCH   2   5
HETATM    5  C           1     -20.992  -5.537  -6.858  0.00  0.00     0.274 C 
BRANCH   5   6
HETATM    6  N           1     -19.701  -5.043  -6.276  0.00  0.00    -0.067 N 
HETATM    7  H           1     -19.898  -4.477  -5.421  0.00  0.00     0.275 HD
HETATM    8  H           1     -19.099  -5.859  -6.023  0.00  0.00     0.275 HD
HETATM    9  H           1     -19.206  -4.450  -6.980  0.00  0.00     0.275 HD
ENDBRANCH   5   6
BRANCH   5  10
HETATM   10  C           1     -21.957  -5.884  -5.731  0.00  0.00     0.042 C 
BRANCH  10  11
HETATM   11  C           1     -21.203  -5.914  -4.409  0.00  0.00     0.004 C 
BRANCH  11  12
HETATM   12  C           1     -21.351  -7.288  -3.769  0.00  0.00     0.027 C 
BRANCH  12  13
HETATM   13  C           1     -21.588  -7.130  -2.273  0.00  0.00     0.229 C 
BRANCH  13  14
HETATM   14  N           1     -22.315  -5.843  -2.015  0.00  0.00    -0.079 N 
HETATM   15  H           1     -21.845  -5.329  -1.236  0.00  0.00     0.274 HD
HETATM   16  H           1     -22.302  -5.257  -2.879  0.00  0.00     0.274 HD
HETATM   17  H           1     -23.304  -6.049  -1.748  0.00  0.00     0.274 HD
ENDBRANCH  13  14
ENDBRANCH  12  13
ENDBRANCH  11  12
ENDBRANCH  10  11
ENDBRANCH   5  10
ENDBRANCH   2   5
BRANCH   3  18
HETATM   18  C           1     -22.710  -3.747  -9.778  0.00  0.00     0.185 C 
BRANCH  18  19
HETATM   19  C           1     -22.242  -3.932 -11.216  0.00  0.00     0.038 C 
BRANCH  19  20
HETATM   20  C           1     -22.546  -2.671 -12.015  0.00  0.00     0.030 C 
BRANCH  20  21
HETATM   21  C           1     -23.386  -3.032 -13.234  0.00  0.00     0.230 C 
BRANCH  21  22
HETATM   22  N           1     -22.523  -3.006 -14.461  0.00  0.00    -0.079 N 
HETATM   23  H           1     -22.570  -3.934 -14.939  0.00  0.00     0.274 HD
HETATM   24  H           1     -22.865  -2.263 -15.111  0.00  0.00     0.274 HD
HETATM   25  H           1     -21.535  -2.804 -14.188  0.00  0.00     0.274 HD
ENDBRANCH  21  22
ENDBRANCH  20  21
ENDBRANCH  19  20
ENDBRANCH  18  19
BRANCH  18  26
HETATM   26  C           1     -24.214  -3.844  -9.721  0.00  0.00     0.196 C 
HETATM   27  O           1     -24.778  -4.940  -9.928  0.00  0.00    -0.646 OA
HETATM   28  O           1     -24.897  -2.828  -9.464  0.00  0.00    -0.646 OA
ENDBRANCH  18  26
ENDBRANCH   3  18
TORSDOF 13
ENDMDL
MODEL 2
REMARK VINA RESULT:      -5.8     11.266     13.435
REMARK  13 active torsions:
REMARK  status: ('A' for Active; 'I' for Inactive)
REMARK    1  A    between atoms: C_6  and  C_16 
REMARK    2  A    between atoms: C_6  and  C_25 
REMARK    3  A    between atoms: C_7  and  C_25 
REMARK    4  A    between atoms: C_12  and  C_14 
REMARK    5  A    between atoms: C_12  and  N_15 
REMARK    6  A    between atoms: C_14  and  C_24 
REMARK    7  A    between atoms: C_16  and  C_18 
REMARK    8  A    between atoms: C_18  and  N_19 
REMARK       I    between atoms: C_21  and  N_22 
REMARK    9  A    between atoms: C_21  and  C_26 
REMARK   10  A    between atoms: N_22  and  C_25 
REMARK   11  A    between atoms: N_23  and  C_26 
REMARK   12  A    between atoms: C_24  and  C_27 
REMARK   13  A    between atoms: C_26  and  C_27 
ROOT
HETATM    1  O           1     -27.216  -6.053 -16.605  0.00  0.00    -0.271 OA
HETATM    2  C           1     -27.045  -6.412 -17.746  0.00  0.00     0.249 C 
HETATM    3  N           1     -28.098  -6.886 -18.480  0.00  0.00    -0.345 N 
HETATM    4  H           1     -27.955  -7.187 -19.435  0.00  0.00     0.163 HD
ENDROOT
BRANCH   2   5
HETATM    5  C           1     -25.669  -6.339 -18.362  0.00  0.00     0.274 C 
BRANCH   5   6
HETATM    6  N           1     -24.734  -7.235 -17.604  0.00  0.00    -0.067 N 
HETATM    7  H           1     -24.703  -6.941 -16.603  0.00  0.00     0.275 HD
HETATM    8  H           1     -25.071  -8.222 -17.668  0.00  0.00     0.275 HD
HETATM    9  H           1     -23.776  -7.167 -18.017  0.00  0.00     0.275 HD
ENDBRANCH   5   6
BRANCH   5  10
HETATM   10  C           1     -25.738  -6.791 -19.815  0.00  0.00     0.042 C 
BRANCH  10  11
HETATM   11  C           1     -24.412  -7.422 -20.214  0.00  0.00     0.004 C 
BRANCH  11  12
HETATM   12  C           1     -24.527  -8.005 -21.617  0.00  0.00     0.027 C 
BRANCH  12  13
HETATM   13  C           1     -23.134  -8.271 -22.173  0.00  0.00     0.229 C 
BRANCH  13  14
HETATM   14  N           1     -22.429  -9.268 -21.301  0.00  0.00    -0.079 N 
HETATM   15  H           1     -22.929 -10.184 -21.346  0.00  0.00     0.274 HD
HETATM   16  H           1     -21.447  -9.389 -21.634  0.00  0.00     0.274 HD
HETATM   17  H           1     -22.422  -8.924 -20.314  0.00  0.00     0.274 HD
ENDBRANCH  13  14
ENDBRANCH  12  13
ENDBRANCH  11  12
ENDBRANCH  10  11
ENDBRANCH   5  10
ENDBRANCH   2   5
BRANCH   3  18
HETATM   18  C           1     -29.420  -6.956 -17.888  0.00  0.00     0.185 C 
BRANCH  18  19
HETATM   19  C           1     -30.060  -5.574 -17.910  0.00  0.00     0.038 C 
BRANCH  19  20
HETATM   20  C           1     -30.741  -5.307 -16.574  0.00  0.00     0.030 C 
BRANCH  20  21
HETATM   21  C           1     -32.114  -4.695 -16.817  0.00  0.00     0.230 C 
BRANCH  21  22
HETATM   22  N           1     -33.144  -5.785 -16.875  0.00  0.00    -0.079 N 
HETATM   23  H           1     -33.520  -5.858 -17.847  0.00  0.00     0.274 HD
HETATM   24  H           1     -32.705  -6.693 -16.602  0.00  0.00     0.274 HD
HETATM   25  H           1     -33.924  -5.562 -16.216  0.00  0.00     0.274 HD
ENDBRANCH  21  22
ENDBRANCH  20  21
ENDBRANCH  19  20
ENDBRANCH  18  19
BRANCH  18  26
HETATM   26  C           1     -30.273  -7.919 -18.677  0.00  0.00     0.196 C 
HETATM   27  O           1     -29.739  -8.869 -19.289  0.00  0.00    -0.646 OA
HETATM   28  O           1     -31.513  -7.766 -18.719  0.00  0.00    -0.646 OA
ENDBRANCH  18  26
ENDBRANCH   3  18
TORSDOF 13
ENDMDL
MODEL 3
REMARK VINA RESULT:      -5.8      1.325      1.541
REMARK  13 active torsions:
REMARK  status: ('A' for Active; 'I' for Inactive)
REMARK    1  A    between atoms: C_6  and  C_16 
REMARK    2  A    between atoms: C_6  and  C_25 
REMARK    3  A    between atoms: C_7  and  C_25 
REMARK    4  A    between atoms: C_12  and  C_14 
REMARK    5  A    between atoms: C_12  and  N_15 
REMARK    6  A    between atoms: C_14  and  C_24 
REMARK    7  A    between atoms: C_16  and  C_18 
REMARK    8  A    between atoms: C_18  and  N_19 
REMARK       I    between atoms: C_21  and  N_22 
REMARK    9  A    between atoms: C_21  and  C_26 
REMARK   10  A    between atoms: N_22  and  C_25 
REMARK   11  A    between atoms: N_23  and  C_26 
REMARK   12  A    between atoms: C_24  and  C_27 
REMARK   13  A    between atoms: C_26  and  C_27 
ROOT
HETATM    1  O           1     -21.546  -3.309  -7.250  0.00  0.00    -0.271 OA
HETATM    2  C           1     -21.607  -4.466  -7.590  0.00  0.00     0.249 C 
HETATM    3  N           1     -22.166  -4.798  -8.794  0.00  0.00    -0.345 N 
HETATM    4  H           1     -22.217  -5.768  -9.079  0.00  0.00     0.163 HD
ENDROOT
BRANCH   2   5
HETATM    5  C           1     -21.069  -5.548  -6.685  0.00  0.00     0.274 C 
BRANCH   5   6
HETATM    6  N           1     -19.896  -5.017  -5.915  0.00  0.00    -0.067 N 
HETATM    7  H           1     -19.211  -4.587  -6.575  0.00  0.00     0.275 HD
HETATM    8  H           1     -20.225  -4.295  -5.234  0.00  0.00     0.275 HD
HETATM    9  H           1     -19.437  -5.800  -5.397  0.00  0.00     0.275 HD
ENDBRANCH   5   6
BRANCH   5  10
HETATM   10  C           1     -22.157  -5.986  -5.714  0.00  0.00     0.042 C 
BRANCH  10  11
HETATM   11  C           1     -21.523  -6.385  -4.388  0.00  0.00     0.004 C 
BRANCH  11  12
HETATM   12  C           1     -21.467  -7.903  -4.286  0.00  0.00     0.027 C 
BRANCH  12  13
HETATM   13  C           1     -20.015  -8.360  -4.288  0.00  0.00     0.229 C 
BRANCH  13  14
HETATM   14  N           1     -19.658  -8.888  -5.646  0.00  0.00    -0.079 N 
HETATM   15  H           1     -19.344  -8.099  -6.255  0.00  0.00     0.274 HD
HETATM   16  H           1     -18.887  -9.588  -5.556  0.00  0.00     0.274 HD
HETATM   17  H           1     -20.495  -9.345  -6.073  0.00  0.00     0.274 HD
ENDBRANCH  13  14
ENDBRANCH  12  13
ENDBRANCH  11  12
ENDBRANCH  10  11
ENDBRANCH   5  10
ENDBRANCH   2   5
BRANCH   3  18
HETATM   18  C           1     -22.684  -3.759  -9.664  0.00  0.00     0.185 C 
BRANCH  18  19
HETATM   19  C           1     -22.127  -3.950 -11.069  0.00  0.00     0.038 C 
BRANCH  19  20
HETATM   20  C           1     -22.389  -2.697 -11.894  0.00  0.00     0.030 C 
BRANCH  20  21
HETATM   21  C           1     -23.201  -3.063 -13.130  0.00  0.00     0.230 C 
BRANCH  21  22
HETATM   22  N           1     -23.851  -1.831 -13.685  0.00  0.00    -0.079 N 
HETATM   23  H           1     -24.641  -2.105 -14.312  0.00  0.00     0.274 HD
HETATM   24  H           1     -24.218  -1.247 -12.899  0.00  0.00     0.274 HD
HETATM   25  H           1     -23.149  -1.282 -14.229  0.00  0.00     0.274 HD
ENDBRANCH  21  22
ENDBRANCH  20  21
ENDBRANCH  19  20
ENDBRANCH  18  19
BRANCH  18  26
HETATM   26  C           1     -24.190  -3.842  -9.703  0.00  0.00     0.196 C 
HETATM   27  O           1     -24.749  -4.934  -9.946  0.00  0.00    -0.646 OA
HETATM   28  O           1     -24.878  -2.820  -9.491  0.00  0.00    -0.646 OA
ENDBRANCH  18  26
ENDBRANCH   3  18
TORSDOF 13
ENDMDL
MODEL 4
REMARK VINA RESULT:      -5.6      2.620      7.869
REMARK  13 active torsions:
REMARK  status: ('A' for Active; 'I' for Inactive)
REMARK    1  A    between atoms: C_6  and  C_16 
REMARK    2  A    between atoms: C_6  and  C_25 
REMARK    3  A    between atoms: C_7  and  C_25 
REMARK    4  A    between atoms: C_12  and  C_14 
REMARK    5  A    between atoms: C_12  and  N_15 
REMARK    6  A    between atoms: C_14  and  C_24 
REMARK    7  A    between atoms: C_16  and  C_18 
REMARK    8  A    between atoms: C_18  and  N_19 
REMARK       I    between atoms: C_21  and  N_22 
REMARK    9  A    between atoms: C_21  and  C_26 
REMARK   10  A    between atoms: N_22  and  C_25 
REMARK   11  A    between atoms: N_23  and  C_26 
REMARK   12  A    between atoms: C_24  and  C_27 
REMARK   13  A    between atoms: C_26  and  C_27 
ROOT
HETATM    1  O           1     -20.341  -4.361  -6.022  0.00  0.00    -0.271 OA
HETATM    2  C           1     -20.982  -5.125  -6.704  0.00  0.00     0.249 C 
HETATM    3  N           1     -21.297  -6.368  -6.228  0.00  0.00    -0.345 N 
HETATM    4  H           1     -21.833  -7.009  -6.799  0.00  0.00     0.163 HD
ENDROOT
BRANCH   2   5
HETATM    5  C           1     -21.434  -4.709  -8.082  0.00  0.00     0.274 C 
BRANCH   5   6
HETATM    6  N           1     -22.494  -3.653  -7.963  0.00  0.00    -0.067 N 
HETATM    7  H           1     -22.127  -2.747  -8.330  0.00  0.00     0.275 HD
HETATM    8  H           1     -23.333  -3.939  -8.517  0.00  0.00     0.275 HD
HETATM    9  H           1     -22.761  -3.541  -6.959  0.00  0.00     0.275 HD
ENDBRANCH   5   6
BRANCH   5  10
HETATM   10  C           1     -20.249  -4.151  -8.859  0.00  0.00     0.042 C 
BRANCH  10  11
HETATM   11  C           1     -20.375  -4.539 -10.326  0.00  0.00     0.004 C 
BRANCH  11  12
HETATM   12  C           1     -20.559  -3.284 -11.170  0.00  0.00     0.027 C 
BRANCH  12  13
HETATM   13  C           1     -21.999  -3.205 -11.658  0.00  0.00     0.229 C 
BRANCH  13  14
HETATM   14  N           1     -22.480  -4.579 -12.023  0.00  0.00    -0.079 N 
HETATM   15  H           1     -22.124  -5.269 -11.324  0.00  0.00     0.274 HD
HETATM   16  H           1     -23.525  -4.592 -12.027  0.00  0.00     0.274 HD
HETATM   17  H           1     -22.126  -4.831 -12.973  0.00  0.00     0.274 HD
ENDBRANCH  13  14
ENDBRANCH  12  13
ENDBRANCH  11  12
ENDBRANCH  10  11
ENDBRANCH   5  10
ENDBRANCH   2   5
BRANCH   3  18
HETATM   18  C           1     -20.862  -6.769  -4.903  0.00  0.00     0.185 C 
BRANCH  18  19
HETATM   19  C           1     -22.049  -6.738  -3.949  0.00  0.00     0.038 C 
BRANCH  19  20
HETATM   20  C           1     -21.630  -6.088  -2.637  0.00  0.00     0.030 C 
BRANCH  20  21
HETATM   21  C           1     -22.000  -7.003  -1.476  0.00  0.00     0.230 C 
BRANCH  21  22
HETATM   22  N           1     -20.936  -8.046  -1.303  0.00  0.00    -0.079 N 
HETATM   23  H           1     -21.376  -8.993  -1.275  0.00  0.00     0.274 HD
HETATM   24  H           1     -20.267  -7.997  -2.104  0.00  0.00     0.274 HD
HETATM   25  H           1     -20.422  -7.874  -0.409  0.00  0.00     0.274 HD
ENDBRANCH  21  22
ENDBRANCH  20  21
ENDBRANCH  19  20
ENDBRANCH  18  19
BRANCH  18  26
HETATM   26  C           1     -20.298  -8.167  -4.962  0.00  0.00     0.196 C 
HETATM   27  O           1     -20.783  -9.067  -4.241  0.00  0.00    -0.646 OA
HETATM   28  O           1     -19.347  -8.426  -5.730  0.00  0.00    -0.646 OA
ENDBRANCH  18  26
ENDBRANCH   3  18
TORSDOF 13
ENDMDL
MODEL 5
REMARK VINA RESULT:      -5.5      2.933      7.545
REMARK  13 active torsions:
REMARK  status: ('A' for Active; 'I' for Inactive)
REMARK    1  A    between atoms: C_6  and  C_16 
REMARK    2  A    between atoms: C_6  and  C_25 
REMARK    3  A    between atoms: C_7  and  C_25 
REMARK    4  A    between atoms: C_12  and  C_14 
REMARK    5  A    between atoms: C_12  and  N_15 
REMARK    6  A    between atoms: C_14  and  C_24 
REMARK    7  A    between atoms: C_16  and  C_18 
REMARK    8  A    between atoms: C_18  and  N_19 
REMARK       I    between atoms: C_21  and  N_22 
REMARK    9  A    between atoms: C_21  and  C_26 
REMARK   10  A    between atoms: N_22  and  C_25 
REMARK   11  A    between atoms: N_23  and  C_26 
REMARK   12  A    between atoms: C_24  and  C_27 
REMARK   13  A    between atoms: C_26  and  C_27 
ROOT
HETATM    1  O           1     -22.652  -5.525  -5.805  0.00  0.00    -0.271 OA
HETATM    2  C           1     -21.449  -5.503  -5.696  0.00  0.00     0.249 C 
HETATM    3  N           1     -20.822  -6.368  -4.841  0.00  0.00    -0.345 N 
HETATM    4  H           1     -19.814  -6.349  -4.750  0.00  0.00     0.163 HD
ENDROOT
BRANCH   2   5
HETATM    5  C           1     -20.636  -4.519  -6.503  0.00  0.00     0.274 C 
BRANCH   5   6
HETATM    6  N           1     -19.574  -5.255  -7.264  0.00  0.00    -0.067 N 
HETATM    7  H           1     -19.784  -6.277  -7.258  0.00  0.00     0.275 HD
HETATM    8  H           1     -19.551  -4.910  -8.251  0.00  0.00     0.275 HD
HETATM    9  H           1     -18.645  -5.087  -6.815  0.00  0.00     0.275 HD
ENDBRANCH   5   6
BRANCH   5  10
HETATM   10  C           1     -21.548  -3.789  -7.481  0.00  0.00     0.042 C 
BRANCH  10  11
HETATM   11  C           1     -21.194  -4.195  -8.905  0.00  0.00     0.004 C 
BRANCH  11  12
HETATM   12  C           1     -22.456  -4.220  -9.756  0.00  0.00     0.027 C 
BRANCH  12  13
HETATM   13  C           1     -23.676  -4.029  -8.863  0.00  0.00     0.229 C 
BRANCH  13  14
HETATM   14  N           1     -24.921  -4.324  -9.647  0.00  0.00    -0.079 N 
HETATM   15  H           1     -25.024  -3.622 -10.414  0.00  0.00     0.274 HD
HETATM   16  H           1     -24.854  -5.283 -10.057  0.00  0.00     0.274 HD
HETATM   17  H           1     -25.751  -4.273  -9.015  0.00  0.00     0.274 HD
ENDBRANCH  13  14
ENDBRANCH  12  13
ENDBRANCH  11  12
ENDBRANCH  10  11
ENDBRANCH   5  10
ENDBRANCH   2   5
BRANCH   3  18
HETATM   18  C           1     -21.602  -7.313  -4.066  0.00  0.00     0.185 C 
BRANCH  18  19
HETATM   19  C           1     -20.956  -8.690  -4.146  0.00  0.00     0.038 C 
BRANCH  19  20
HETATM   20  C           1     -19.602  -8.577  -4.833  0.00  0.00     0.030 C 
BRANCH  20  21
HETATM   21  C           1     -18.538  -9.245  -3.971  0.00  0.00     0.230 C 
BRANCH  21  22
HETATM   22  N           1     -19.143  -9.663  -2.664  0.00  0.00    -0.079 N 
HETATM   23  H           1     -19.950  -9.039  -2.438  0.00  0.00     0.274 HD
HETATM   24  H           1     -19.476 -10.651  -2.735  0.00  0.00     0.274 HD
HETATM   25  H           1     -18.424  -9.591  -1.909  0.00  0.00     0.274 HD
ENDBRANCH  21  22
ENDBRANCH  20  21
ENDBRANCH  19  20
ENDBRANCH  18  19
BRANCH  18  26
HETATM   26  C           1     -21.651  -6.862  -2.626  0.00  0.00     0.196 C 
HETATM   27  O           1     -22.414  -5.931  -2.289  0.00  0.00    -0.646 OA
HETATM   28  O           1     -20.930  -7.421  -1.772  0.00  0.00    -0.646 OA
ENDBRANCH  18  26
ENDBRANCH   3  18
TORSDOF 13
ENDMDL
MODEL 6
REMARK VINA RESULT:      -5.5     10.362     13.246
REMARK  13 active torsions:
REMARK  status: ('A' for Active; 'I' for Inactive)
REMARK    1  A    between atoms: C_6  and  C_16 
REMARK    2  A    between atoms: C_6  and  C_25 
REMARK    3  A    between atoms: C_7  and  C_25 
REMARK    4  A    between atoms: C_12  and  C_14 
REMARK    5  A    between atoms: C_12  and  N_15 
REMARK    6  A    between atoms: C_14  and  C_24 
REMARK    7  A    between atoms: C_16  and  C_18 
REMARK    8  A    between atoms: C_18  and  N_19 
REMARK       I    between atoms: C_21  and  N_22 
REMARK    9  A    between atoms: C_21  and  C_26 
REMARK   10  A    between atoms: N_22  and  C_25 
REMARK   11  A    between atoms: N_23  and  C_26 
REMARK   12  A    between atoms: C_24  and  C_27 
REMARK   13  A    between atoms: C_26  and  C_27 
ROOT
HETATM    1  O           1     -28.518  -5.094 -19.109  0.00  0.00    -0.271 OA
HETATM    2  C           1     -28.669  -6.268 -18.866  0.00  0.00     0.249 C 
HETATM    3  N           1     -27.667  -7.158 -19.140  0.00  0.00    -0.345 N 
HETATM    4  H           1     -27.793  -8.141 -18.936  0.00  0.00     0.163 HD
ENDROOT
BRANCH   2   5
HETATM    5  C           1     -29.963  -6.752 -18.260  0.00  0.00     0.274 C 
BRANCH   5   6
HETATM    6  N           1     -30.222  -8.164 -18.696  0.00  0.00    -0.067 N 
HETATM    7  H           1     -29.354  -8.563 -19.118  0.00  0.00     0.275 HD
HETATM    8  H           1     -30.502  -8.738 -17.868  0.00  0.00     0.275 HD
HETATM    9  H           1     -30.991  -8.174 -19.404  0.00  0.00     0.275 HD
ENDBRANCH   5   6
BRANCH   5  10
HETATM   10  C           1     -29.863  -6.701 -16.741  0.00  0.00     0.042 C 
BRANCH  10  11
HETATM   11  C           1     -30.527  -5.429 -16.230  0.00  0.00     0.004 C 
BRANCH  11  12
HETATM   12  C           1     -31.782  -5.147 -17.046  0.00  0.00     0.027 C 
BRANCH  12  13
HETATM   13  C           1     -31.805  -3.680 -17.453  0.00  0.00     0.229 C 
BRANCH  13  14
HETATM   14  N           1     -33.218  -3.174 -17.422  0.00  0.00    -0.079 N 
HETATM   15  H           1     -33.623  -3.213 -18.384  0.00  0.00     0.274 HD
HETATM   16  H           1     -33.786  -3.770 -16.779  0.00  0.00     0.274 HD
HETATM   17  H           1     -33.227  -2.187 -17.080  0.00  0.00     0.274 HD
ENDBRANCH  13  14
ENDBRANCH  12  13
ENDBRANCH  11  12
ENDBRANCH  10  11
ENDBRANCH   5  10
ENDBRANCH   2   5
BRANCH   3  18
HETATM   18  C           1     -26.423  -6.693 -19.722  0.00  0.00     0.185 C 
BRANCH  18  19
HETATM   19  C           1     -25.349  -6.632 -18.643  0.00  0.00     0.038 C 
BRANCH  19  20
HETATM   20  C           1     -26.006  -6.440 -17.283  0.00  0.00     0.030 C 
BRANCH  20  21
HETATM   21  C           1     -25.066  -6.936 -16.191  0.00  0.00     0.230 C 
BRANCH  21  22
HETATM   22  N           1     -24.086  -7.908 -16.777  0.00  0.00    -0.079 N 
HETATM   23  H           1     -24.306  -8.872 -16.439  0.00  0.00     0.274 HD
HETATM   24  H           1     -24.152  -7.882 -17.820  0.00  0.00     0.274 HD
HETATM   25  H           1     -23.118  -7.647 -16.482  0.00  0.00     0.274 HD
ENDBRANCH  21  22
ENDBRANCH  20  21
ENDBRANCH  19  20
ENDBRANCH  18  19
BRANCH  18  26
HETATM   26  C           1     -25.991  -7.645 -20.810  0.00  0.00     0.196 C 
HETATM   27  O           1     -26.814  -8.449 -21.300  0.00  0.00    -0.646 OA
HETATM   28  O           1     -24.811  -7.629 -21.223  0.00  0.00    -0.646 OA
ENDBRANCH  18  26
ENDBRANCH   3  18
TORSDOF 13
ENDMDL
MODEL 7
REMARK VINA RESULT:      -5.3      4.047      8.735
REMARK  13 active torsions:
REMARK  status: ('A' for Active; 'I' for Inactive)
REMARK    1  A    between atoms: C_6  and  C_16 
REMARK    2  A    between atoms: C_6  and  C_25 
REMARK    3  A    between atoms: C_7  and  C_25 
REMARK    4  A    between atoms: C_12  and  C_14 
REMARK    5  A    between atoms: C_12  and  N_15 
REMARK    6  A    between atoms: C_14  and  C_24 
REMARK    7  A    between atoms: C_16  and  C_18 
REMARK    8  A    between atoms: C_18  and  N_19 
REMARK       I    between atoms: C_21  and  N_22 
REMARK    9  A    between atoms: C_21  and  C_26 
REMARK   10  A    between atoms: N_22  and  C_25 
REMARK   11  A    between atoms: N_23  and  C_26 
REMARK   12  A    between atoms: C_24  and  C_27 
REMARK   13  A    between atoms: C_26  and  C_27 
ROOT
HETATM    1  O           1     -19.646  -8.011  -5.012  0.00  0.00    -0.271 OA
HETATM    2  C           1     -20.726  -7.539  -4.748  0.00  0.00     0.249 C 
HETATM    3  N           1     -21.366  -7.899  -3.593  0.00  0.00    -0.345 N 
HETATM    4  H           1     -22.271  -7.505  -3.371  0.00  0.00     0.163 HD
ENDROOT
BRANCH   2   5
HETATM    5  C           1     -21.372  -6.554  -5.691  0.00  0.00     0.274 C 
BRANCH   5   6
HETATM    6  N           1     -22.702  -6.132  -5.141  0.00  0.00    -0.067 N 
HETATM    7  H           1     -23.464  -6.478  -5.766  0.00  0.00     0.275 HD
HETATM    8  H           1     -22.826  -6.535  -4.184  0.00  0.00     0.275 HD
HETATM    9  H           1     -22.742  -5.089  -5.088  0.00  0.00     0.275 HD
ENDBRANCH   5   6
BRANCH   5  10
HETATM   10  C           1     -20.475  -5.332  -5.841  0.00  0.00     0.042 C 
BRANCH  10  11
HETATM   11  C           1     -20.508  -4.851  -7.285  0.00  0.00     0.004 C 
BRANCH  11  12
HETATM   12  C           1     -21.365  -3.597  -7.385  0.00  0.00     0.027 C 
BRANCH  12  13
HETATM   13  C           1     -22.403  -3.776  -8.484  0.00  0.00     0.229 C 
BRANCH  13  14
HETATM   14  N           1     -23.723  -4.142  -7.871  0.00  0.00    -0.079 N 
HETATM   15  H           1     -24.427  -4.296  -8.627  0.00  0.00     0.274 HD
HETATM   16  H           1     -23.615  -5.016  -7.310  0.00  0.00     0.274 HD
HETATM   17  H           1     -24.045  -3.366  -7.249  0.00  0.00     0.274 HD
ENDBRANCH  13  14
ENDBRANCH  12  13
ENDBRANCH  11  12
ENDBRANCH  10  11
ENDBRANCH   5  10
ENDBRANCH   2   5
BRANCH   3  18
HETATM   18  C           1     -20.747  -8.846  -2.686  0.00  0.00     0.185 C 
BRANCH  18  19
HETATM   19  C           1     -20.600  -8.209  -1.310  0.00  0.00     0.038 C 
BRANCH  19  20
HETATM   20  C           1     -21.886  -7.478  -0.949  0.00  0.00     0.030 C 
BRANCH  20  21
HETATM   21  C           1     -22.362  -7.936   0.424  0.00  0.00     0.230 C 
BRANCH  21  22
HETATM   22  N           1     -21.443  -9.002   0.942  0.00  0.00    -0.079 N 
HETATM   23  H           1     -20.497  -8.593   1.116  0.00  0.00     0.274 HD
HETATM   24  H           1     -21.824  -9.386   1.836  0.00  0.00     0.274 HD
HETATM   25  H           1     -21.367  -9.769   0.237  0.00  0.00     0.274 HD
ENDBRANCH  21  22
ENDBRANCH  20  21
ENDBRANCH  19  20
ENDBRANCH  18  19
BRANCH  18  26
HETATM   26  C           1     -21.610 -10.079  -2.581  0.00  0.00     0.196 C 
HETATM   27  O           1     -21.475 -10.855  -1.610  0.00  0.00    -0.646 OA
HETATM   28  O           1     -22.461 -10.324  -3.463  0.00  0.00    -0.646 OA
ENDBRANCH  18  26
ENDBRANCH   3  18
TORSDOF 13
ENDMDL
MODEL 8
REMARK VINA RESULT:      -5.2      2.784      7.966
REMARK  13 active torsions:
REMARK  status: ('A' for Active; 'I' for Inactive)
REMARK    1  A    between atoms: C_6  and  C_16 
REMARK    2  A    between atoms: C_6  and  C_25 
REMARK    3  A    between atoms: C_7  and  C_25 
REMARK    4  A    between atoms: C_12  and  C_14 
REMARK    5  A    between atoms: C_12  and  N_15 
REMARK    6  A    between atoms: C_14  and  C_24 
REMARK    7  A    between atoms: C_16  and  C_18 
REMARK    8  A    between atoms: C_18  and  N_19 
REMARK       I    between atoms: C_21  and  N_22 
REMARK    9  A    between atoms: C_21  and  C_26 
REMARK   10  A    between atoms: N_22  and  C_25 
REMARK   11  A    between atoms: N_23  and  C_26 
REMARK   12  A    between atoms: C_24  and  C_27 
REMARK   13  A    between atoms: C_26  and  C_27 
ROOT
HETATM    1  O           1     -22.641  -5.384  -5.977  0.00  0.00    -0.271 OA
HETATM    2  C           1     -21.441  -5.302  -5.863  0.00  0.00     0.249 C 
HETATM    3  N           1     -20.772  -6.157  -5.029  0.00  0.00    -0.345 N 
HETATM    4  H           1     -19.767  -6.089  -4.934  0.00  0.00     0.163 HD
ENDROOT
BRANCH   2   5
HETATM    5  C           1     -20.678  -4.256  -6.639  0.00  0.00     0.274 C 
BRANCH   5   6
HETATM    6  N           1     -19.325  -4.791  -7.003  0.00  0.00    -0.067 N 
HETATM    7  H           1     -18.886  -5.230  -6.163  0.00  0.00     0.275 HD
HETATM    8  H           1     -19.425  -5.506  -7.758  0.00  0.00     0.275 HD
HETATM    9  H           1     -18.721  -4.008  -7.342  0.00  0.00     0.275 HD
ENDBRANCH   5   6
BRANCH   5  10
HETATM   10  C           1     -21.444  -3.908  -7.909  0.00  0.00     0.042 C 
BRANCH  10  11
HETATM   11  C           1     -20.879  -4.704  -9.077  0.00  0.00     0.004 C 
BRANCH  11  12
HETATM   12  C           1     -20.854  -3.830 -10.324  0.00  0.00     0.027 C 
BRANCH  12  13
HETATM   13  C           1     -21.702  -4.474 -11.413  0.00  0.00     0.229 C 
BRANCH  13  14
HETATM   14  N           1     -21.682  -3.609 -12.640  0.00  0.00    -0.079 N 
HETATM   15  H           1     -20.925  -2.895 -12.549  0.00  0.00     0.274 HD
HETATM   16  H           1     -21.504  -4.203 -13.481  0.00  0.00     0.274 HD
HETATM   17  H           1     -22.604  -3.128 -12.742  0.00  0.00     0.274 HD
ENDBRANCH  13  14
ENDBRANCH  12  13
ENDBRANCH  11  12
ENDBRANCH  10  11
ENDBRANCH   5  10
ENDBRANCH   2   5
BRANCH   3  18
HETATM   18  C           1     -21.504  -7.163  -4.283  0.00  0.00     0.185 C 
BRANCH  18  19
HETATM   19  C           1     -20.773  -8.496  -4.377  0.00  0.00     0.038 C 
BRANCH  19  20
HETATM   20  C           1     -21.760  -9.634  -4.148  0.00  0.00     0.030 C 
BRANCH  20  21
HETATM   21  C           1     -21.210 -10.577  -3.086  0.00  0.00     0.230 C 
BRANCH  21  22
HETATM   22  N           1     -21.716 -10.159  -1.737  0.00  0.00    -0.079 N 
HETATM   23  H           1     -20.997 -10.382  -1.011  0.00  0.00     0.274 HD
HETATM   24  H           1     -21.901  -9.131  -1.738  0.00  0.00     0.274 HD
HETATM   25  H           1     -22.599 -10.674  -1.522  0.00  0.00     0.274 HD
ENDBRANCH  21  22
ENDBRANCH  20  21
ENDBRANCH  19  20
ENDBRANCH  18  19
BRANCH  18  26
HETATM   26  C           1     -21.603  -6.742  -2.838  0.00  0.00     0.196 C 
HETATM   27  O           1     -20.801  -7.204  -1.997  0.00  0.00    -0.646 OA
HETATM   28  O           1     -22.485  -5.931  -2.481  0.00  0.00    -0.646 OA
ENDBRANCH  18  26
ENDBRANCH   3  18
TORSDOF 13
ENDMDL
MODEL 9
REMARK VINA RESULT:      -5.2      1.589      7.587
REMARK  13 active torsions:
REMARK  status: ('A' for Active; 'I' for Inactive)
REMARK    1  A    between atoms: C_6  and  C_16 
REMARK    2  A    between atoms: C_6  and  C_25 
REMARK    3  A    between atoms: C_7  and  C_25 
REMARK    4  A    between atoms: C_12  and  C_14 
REMARK    5  A    between atoms: C_12  and  N_15 
REMARK    6  A    between atoms: C_14  and  C_24 
REMARK    7  A    between atoms: C_16  and  C_18 
REMARK    8  A    between atoms: C_18  and  N_19 
REMARK       I    between atoms: C_21  and  N_22 
REMARK    9  A    between atoms: C_21  and  C_26 
REMARK   10  A    between atoms: N_22  and  C_25 
REMARK   11  A    between atoms: N_23  and  C_26 
REMARK   12  A    between atoms: C_24  and  C_27 
REMARK   13  A    between atoms: C_26  and  C_27 
ROOT
HETATM    1  O           1     -22.926  -3.724  -8.006  0.00  0.00    -0.271 OA
HETATM    2  C           1     -22.115  -4.229  -8.746  0.00  0.00     0.249 C 
HETATM    3  N           1     -21.173  -5.087  -8.246  0.00  0.00    -0.345 N 
HETATM    4  H           1     -20.493  -5.510  -8.865  0.00  0.00     0.163 HD
ENDROOT
BRANCH   2   5
HETATM    5  C           1     -22.140  -3.914 -10.222  0.00  0.00     0.274 C 
BRANCH   5   6
HETATM    6  N           1     -20.928  -4.504 -10.880  0.00  0.00    -0.067 N 
HETATM    7  H           1     -20.880  -4.186 -11.873  0.00  0.00     0.275 HD
HETATM    8  H           1     -20.070  -4.190 -10.372  0.00  0.00     0.275 HD
HETATM    9  H           1     -20.988  -5.547 -10.850  0.00  0.00     0.275 HD
ENDBRANCH   5   6
BRANCH   5  10
HETATM   10  C           1     -23.395  -4.509 -10.847  0.00  0.00     0.042 C 
BRANCH  10  11
HETATM   11  C           1     -24.270  -3.389 -11.393  0.00  0.00     0.004 C 
BRANCH  11  12
HETATM   12  C           1     -24.277  -3.444 -12.915  0.00  0.00     0.027 C 
BRANCH  12  13
HETATM   13  C           1     -23.306  -2.409 -13.466  0.00  0.00     0.229 C 
BRANCH  13  14
HETATM   14  N           1     -22.552  -2.997 -14.623  0.00  0.00    -0.079 N 
HETATM   15  H           1     -21.706  -3.496 -14.270  0.00  0.00     0.274 HD
HETATM   16  H           1     -23.168  -3.669 -15.134  0.00  0.00     0.274 HD
HETATM   17  H           1     -22.259  -2.232 -15.272  0.00  0.00     0.274 HD
ENDBRANCH  13  14
ENDBRANCH  12  13
ENDBRANCH  11  12
ENDBRANCH  10  11
ENDBRANCH   5  10
ENDBRANCH   2   5
BRANCH   3  18
HETATM   18  C           1     -21.148  -5.390  -6.828  0.00  0.00     0.185 C 
BRANCH  18  19
HETATM   19  C           1     -21.083  -6.899  -6.633  0.00  0.00     0.038 C 
BRANCH  19  20
HETATM   20  C           1     -20.637  -7.209  -5.210  0.00  0.00     0.030 C 
BRANCH  20  21
HETATM   21  C           1     -21.860  -7.335  -4.310  0.00  0.00     0.230 C 
BRANCH  21  22
HETATM   22  N           1     -21.950  -6.132  -3.419  0.00  0.00    -0.079 N 
HETATM   23  H           1     -21.038  -5.992  -2.928  0.00  0.00     0.274 HD
HETATM   24  H           1     -22.168  -5.287  -3.994  0.00  0.00     0.274 HD
HETATM   25  H           1     -22.707  -6.278  -2.713  0.00  0.00     0.274 HD
ENDBRANCH  21  22
ENDBRANCH  20  21
ENDBRANCH  19  20
ENDBRANCH  18  19
BRANCH  18  26
HETATM   26  C           1     -19.936  -4.748  -6.199  0.00  0.00     0.196 C 
HETATM   27  O           1     -19.995  -4.321  -5.025  0.00  0.00    -0.646 OA
HETATM   28  O           1     -18.875  -4.644  -6.850  0.00  0.00    -0.646 OA
ENDBRANCH  18  26
ENDBRANCH   3  18
TORSDOF 13
ENDMDL
