MODEL 1
REMARK VINA RESULT:      -8.2      0.000      0.000
REMARK  11 active torsions:
REMARK  status: ('A' for Active; 'I' for Inactive)
REMARK    1  A    between atoms: C_4  and  O_5 
REMARK    2  A    between atoms: O_5  and  P_24 
REMARK    3  A    between atoms: C_6  and  C_22 
REMARK    4  A    between atoms: C_6  and  C_9 
REMARK    5  A    between atoms: C_6  and  N_28 
REMARK    6  A    between atoms: C_9  and  C_25 
REMARK    7  A    between atoms: N_12  and  C_18 
REMARK    8  A    between atoms: C_15  and  C_17 
REMARK    9  A    between atoms: C_17  and  C_18 
REMARK   10  A    between atoms: C_18  and  C_27 
REMARK   11  A    between atoms: P_24  and  O_30 
REMARK       I    between atoms: C_27  and  N_28 
ROOT
HETATM    1  C           1     -21.738  -6.581  -5.572  0.00  0.00     0.189 C 
ENDROOT
BRANCH   1   2
HETATM    2  C           1     -20.859  -7.803  -5.463  0.00  0.00     0.197 C 
HETATM    3  O           1     -19.640  -7.676  -5.215  0.00  0.00    -0.646 OA
HETATM    4  O           1     -21.349  -8.942  -5.620  0.00  0.00    -0.646 OA
ENDBRANCH   1   2
BRANCH   1   5
HETATM    5  C           1     -20.877  -5.362  -5.878  0.00  0.00     0.074 C 
BRANCH   5   6
HETATM    6  C           1     -21.261  -4.803  -7.213  0.00  0.00    -0.056 A 
HETATM    7  C           1     -20.333  -4.778  -8.253  0.00  0.00     0.010 A 
HETATM    8  C           1     -20.691  -4.258  -9.497  0.00  0.00     0.038 A 
HETATM    9  C           1     -21.979  -3.762  -9.699  0.00  0.00     0.081 A 
HETATM   10  C           1     -22.908  -3.786  -8.660  0.00  0.00     0.038 A 
HETATM   11  C           1     -22.549  -4.307  -7.416  0.00  0.00     0.010 A 
BRANCH   9  12
HETATM   12  O           1     -22.327  -3.256 -10.908  0.00  0.00    -0.247 OA
BRANCH  12  13
HETATM   13  P           1     -23.597  -3.907 -11.664  0.00  0.00     0.411 P 
HETATM   14  O           1     -23.698  -5.341 -11.312  0.00  0.00    -0.624 OA
HETATM   15  O           1     -24.833  -3.209 -11.245  0.00  0.00    -0.624 OA
BRANCH  13  16
HETATM   16  O           1     -23.408  -3.755 -13.261  0.00  0.00    -0.300 OA
HETATM   17  H           1     -22.537  -3.412 -13.371  0.00  0.00     0.223 HD
ENDBRANCH  13  16
ENDBRANCH  12  13
ENDBRANCH   9  12
ENDBRANCH   5   6
ENDBRANCH   1   5
BRANCH   1  18
HETATM   18  N           1     -22.437  -6.375  -4.318  0.00  0.00    -0.344 N 
HETATM   19  H           1     -23.435  -6.211  -4.316  0.00  0.00     0.163 HD
HETATM   20  C           1     -21.745  -6.402  -3.137  0.00  0.00     0.249 C 
HETATM   21  O           1     -21.270  -5.385  -2.692  0.00  0.00    -0.271 OA
BRANCH  20  22
HETATM   22  C           1     -21.575  -7.703  -2.393  0.00  0.00     0.275 C 
BRANCH  22  23
HETATM   23  N           1     -20.113  -7.988  -2.212  0.00  0.00    -0.066 N 
HETATM   24  H           1     -19.901  -8.093  -1.194  0.00  0.00     0.275 HD
HETATM   25  H           1     -19.867  -8.873  -2.711  0.00  0.00     0.275 HD
HETATM   26  H           1     -19.553  -7.198  -2.605  0.00  0.00     0.275 HD
ENDBRANCH  22  23
BRANCH  22  27
HETATM   27  C           1     -22.244  -7.599  -1.028  0.00  0.00     0.046 C 
BRANCH  27  28
HETATM   28  C           1     -21.911  -8.836  -0.203  0.00  0.00    -0.020 C 
HETATM   29  C           1     -23.141  -9.728  -0.108  0.00  0.00     0.009 C 
HETATM   30  C           1     -21.481  -8.414   1.194  0.00  0.00     0.009 C 
ENDBRANCH  27  28
ENDBRANCH  22  27
ENDBRANCH  20  22
ENDBRANCH   1  18
TORSDOF 11
ENDMDL
MODEL 2
REMARK VINA RESULT:      -7.7      1.849      3.074
REMARK  11 active torsions:
REMARK  status: ('A' for Active; 'I' for Inactive)
REMARK    1  A    between atoms: C_4  and  O_5 
REMARK    2  A    between atoms: O_5  and  P_24 
REMARK    3  A    between atoms: C_6  and  C_22 
REMARK    4  A    between atoms: C_6  and  C_9 
REMARK    5  A    between atoms: C_6  and  N_28 
REMARK    6  A    between atoms: C_9  and  C_25 
REMARK    7  A    between atoms: N_12  and  C_18 
REMARK    8  A    between atoms: C_15  and  C_17 
REMARK    9  A    between atoms: C_17  and  C_18 
REMARK   10  A    between atoms: C_18  and  C_27 
REMARK   11  A    between atoms: P_24  and  O_30 
REMARK       I    between atoms: C_27  and  N_28 
ROOT
HETATM    1  C           1     -20.040  -5.883  -7.342  0.00  0.00     0.189 C 
ENDROOT
BRANCH   1   2
HETATM    2  C           1     -19.379  -4.687  -6.701  0.00  0.00     0.197 C 
HETATM    3  O           1     -19.813  -4.240  -5.617  0.00  0.00    -0.646 OA
HETATM    4  O           1     -18.399  -4.144  -7.254  0.00  0.00    -0.646 OA
ENDBRANCH   1   2
BRANCH   1   5
HETATM    5  C           1     -21.542  -5.646  -7.432  0.00  0.00     0.074 C 
BRANCH   5   6
HETATM    6  C           1     -21.848  -4.851  -8.663  0.00  0.00    -0.056 A 
HETATM    7  C           1     -23.079  -4.208  -8.790  0.00  0.00     0.010 A 
HETATM    8  C           1     -23.364  -3.466  -9.936  0.00  0.00     0.038 A 
HETATM    9  C           1     -22.417  -3.368 -10.956  0.00  0.00     0.081 A 
HETATM   10  C           1     -21.186  -4.010 -10.829  0.00  0.00     0.038 A 
HETATM   11  C           1     -20.901  -4.752  -9.682  0.00  0.00     0.010 A 
BRANCH   9  12
HETATM   12  O           1     -22.694  -2.647 -12.069  0.00  0.00    -0.247 OA
BRANCH  12  13
HETATM   13  P           1     -23.792  -3.234 -13.098  0.00  0.00     0.411 P 
HETATM   14  O           1     -25.122  -2.667 -12.776  0.00  0.00    -0.624 OA
HETATM   15  O           1     -23.421  -2.863 -14.482  0.00  0.00    -0.624 OA
BRANCH  13  16
HETATM   16  O           1     -23.846  -4.843 -12.968  0.00  0.00    -0.300 OA
HETATM   17  H           1     -23.100  -5.151 -13.455  0.00  0.00     0.223 HD
ENDBRANCH  13  16
ENDBRANCH  12  13
ENDBRANCH   9  12
ENDBRANCH   5   6
ENDBRANCH   1   5
BRANCH   1  18
HETATM   18  N           1     -19.785  -7.063  -6.538  0.00  0.00    -0.344 N 
HETATM   19  H           1     -18.884  -7.522  -6.584  0.00  0.00     0.163 HD
HETATM   20  C           1     -20.764  -7.557  -5.719  0.00  0.00     0.249 C 
HETATM   21  O           1     -21.544  -8.379  -6.136  0.00  0.00    -0.271 OA
BRANCH  20  22
HETATM   22  C           1     -20.869  -7.073  -4.294  0.00  0.00     0.275 C 
BRANCH  22  23
HETATM   23  N           1     -21.948  -6.035  -4.197  0.00  0.00    -0.066 N 
HETATM   24  H           1     -22.416  -5.930  -5.125  0.00  0.00     0.275 HD
HETATM   25  H           1     -22.653  -6.332  -3.484  0.00  0.00     0.275 HD
HETATM   26  H           1     -21.528  -5.122  -3.913  0.00  0.00     0.275 HD
ENDBRANCH  22  23
BRANCH  22  27
HETATM   27  C           1     -21.210  -8.245  -3.383  0.00  0.00     0.046 C 
BRANCH  27  28
HETATM   28  C           1     -20.209  -8.305  -2.236  0.00  0.00    -0.020 C 
HETATM   29  C           1     -19.047  -9.208  -2.624  0.00  0.00     0.009 C 
HETATM   30  C           1     -20.892  -8.861  -0.994  0.00  0.00     0.009 C 
ENDBRANCH  27  28
ENDBRANCH  22  27
ENDBRANCH  20  22
ENDBRANCH   1  18
TORSDOF 11
ENDMDL
MODEL 3
REMARK VINA RESULT:      -7.7      1.739      2.370
REMARK  11 active torsions:
REMARK  status: ('A' for Active; 'I' for Inactive)
REMARK    1  A    between atoms: C_4  and  O_5 
REMARK    2  A    between atoms: O_5  and  P_24 
REMARK    3  A    between atoms: C_6  and  C_22 
REMARK    4  A    between atoms: C_6  and  C_9 
REMARK    5  A    between atoms: C_6  and  N_28 
REMARK    6  A    between atoms: C_9  and  C_25 
REMARK    7  A    between atoms: N_12  and  C_18 
REMARK    8  A    between atoms: C_15  and  C_17 
REMARK    9  A    between atoms: C_17  and  C_18 
REMARK   10  A    between atoms: C_18  and  C_27 
REMARK   11  A    between atoms: P_24  and  O_30 
REMARK       I    between atoms: C_27  and  N_28 
ROOT
HETATM    1  C           1     -21.579  -5.595  -6.612  0.00  0.00     0.189 C 
ENDROOT
BRANCH   1   2
HETATM    2  C           1     -20.088  -5.618  -6.379  0.00  0.00     0.197 C 
HETATM    3  O           1     -19.424  -6.635  -6.676  0.00  0.00    -0.646 OA
HETATM    4  O           1     -19.517  -4.620  -5.888  0.00  0.00    -0.646 OA
ENDBRANCH   1   2
BRANCH   1   5
HETATM    5  C           1     -21.999  -4.205  -7.074  0.00  0.00     0.074 C 
BRANCH   5   6
HETATM    6  C           1     -22.455  -4.270  -8.498  0.00  0.00    -0.056 A 
HETATM    7  C           1     -21.524  -4.452  -9.522  0.00  0.00     0.010 A 
HETATM    8  C           1     -21.949  -4.513 -10.849  0.00  0.00     0.038 A 
HETATM    9  C           1     -23.305  -4.392 -11.152  0.00  0.00     0.081 A 
HETATM   10  C           1     -24.236  -4.210 -10.130  0.00  0.00     0.038 A 
HETATM   11  C           1     -23.811  -4.150  -8.802  0.00  0.00     0.010 A 
BRANCH   9  12
HETATM   12  O           1     -23.718  -4.451 -12.442  0.00  0.00    -0.247 OA
BRANCH  12  13
HETATM   13  P           1     -23.860  -3.064 -13.256  0.00  0.00     0.411 P 
HETATM   14  O           1     -25.234  -2.537 -13.098  0.00  0.00    -0.624 OA
HETATM   15  O           1     -22.891  -2.078 -12.727  0.00  0.00    -0.624 OA
BRANCH  13  16
HETATM   16  O           1     -23.559  -3.325 -14.822  0.00  0.00    -0.300 OA
HETATM   17  H           1     -22.854  -3.950 -14.833  0.00  0.00     0.223 HD
ENDBRANCH  13  16
ENDBRANCH  12  13
ENDBRANCH   9  12
ENDBRANCH   5   6
ENDBRANCH   1   5
BRANCH   1  18
HETATM   18  N           1     -22.265  -5.920  -5.377  0.00  0.00    -0.344 N 
HETATM   19  H           1     -23.254  -5.725  -5.281  0.00  0.00     0.163 HD
HETATM   20  C           1     -21.576  -6.490  -4.341  0.00  0.00     0.249 C 
HETATM   21  O           1     -21.048  -5.792  -3.510  0.00  0.00    -0.271 OA
BRANCH  20  22
HETATM   22  C           1     -21.476  -7.992  -4.238  0.00  0.00     0.275 C 
BRANCH  22  23
HETATM   23  N           1     -21.336  -8.580  -5.611  0.00  0.00    -0.066 N 
HETATM   24  H           1     -20.551  -9.270  -5.618  0.00  0.00     0.275 HD
HETATM   25  H           1     -22.225  -9.062  -5.876  0.00  0.00     0.275 HD
HETATM   26  H           1     -21.134  -7.817  -6.297  0.00  0.00     0.275 HD
ENDBRANCH  22  23
BRANCH  22  27
HETATM   27  C           1     -20.260  -8.365  -3.401  0.00  0.00     0.046 C 
BRANCH  27  28
HETATM   28  C           1     -20.709  -9.132  -2.164  0.00  0.00    -0.020 C 
HETATM   29  C           1     -21.957  -9.939  -2.494  0.00  0.00     0.009 C 
HETATM   30  C           1     -21.020  -8.151  -1.043  0.00  0.00     0.009 C 
ENDBRANCH  27  28
ENDBRANCH  22  27
ENDBRANCH  20  22
ENDBRANCH   1  18
TORSDOF 11
ENDMDL
MODEL 4
REMARK VINA RESULT:      -7.7      4.029      8.760
REMARK  11 active torsions:
REMARK  status: ('A' for Active; 'I' for Inactive)
REMARK    1  A    between atoms: C_4  and  O_5 
REMARK    2  A    between atoms: O_5  and  P_24 
REMARK    3  A    between atoms: C_6  and  C_22 
REMARK    4  A    between atoms: C_6  and  C_9 
REMARK    5  A    between atoms: C_6  and  N_28 
REMARK    6  A    between atoms: C_9  and  C_25 
REMARK    7  A    between atoms: N_12  and  C_18 
REMARK    8  A    between atoms: C_15  and  C_17 
REMARK    9  A    between atoms: C_17  and  C_18 
REMARK   10  A    between atoms: C_18  and  C_27 
REMARK   11  A    between atoms: P_24  and  O_30 
REMARK       I    between atoms: C_27  and  N_28 
ROOT
HETATM    1  C           1     -20.739  -5.059  -6.213  0.00  0.00     0.189 C 
ENDROOT
BRANCH   1   2
HETATM    2  C           1     -19.653  -5.257  -7.243  0.00  0.00     0.197 C 
HETATM    3  O           1     -19.600  -6.320  -7.900  0.00  0.00    -0.646 OA
HETATM    4  O           1     -18.807  -4.359  -7.439  0.00  0.00    -0.646 OA
ENDBRANCH   1   2
BRANCH   1   5
HETATM    5  C           1     -21.493  -6.368  -6.013  0.00  0.00     0.074 C 
BRANCH   5   6
HETATM    6  C           1     -21.301  -6.843  -4.606  0.00  0.00    -0.056 A 
HETATM    7  C           1     -21.950  -6.196  -3.555  0.00  0.00     0.010 A 
HETATM    8  C           1     -21.772  -6.639  -2.245  0.00  0.00     0.038 A 
HETATM    9  C           1     -20.943  -7.731  -1.986  0.00  0.00     0.081 A 
HETATM   10  C           1     -20.294  -8.380  -3.036  0.00  0.00     0.038 A 
HETATM   11  C           1     -20.473  -7.936  -4.347  0.00  0.00     0.010 A 
BRANCH   9  12
HETATM   12  O           1     -20.770  -8.162  -0.713  0.00  0.00    -0.247 OA
BRANCH  12  13
HETATM   13  P           1     -21.934  -9.068  -0.055  0.00  0.00     0.411 P 
HETATM   14  O           1     -22.657  -9.795  -1.123  0.00  0.00    -0.624 OA
HETATM   15  O           1     -21.331 -10.042   0.883  0.00  0.00    -0.624 OA
BRANCH  13  16
HETATM   16  O           1     -22.966  -8.119   0.746  0.00  0.00    -0.300 OA
HETATM   17  H           1     -22.441  -7.405   1.067  0.00  0.00     0.223 HD
ENDBRANCH  13  16
ENDBRANCH  12  13
ENDBRANCH   9  12
ENDBRANCH   5   6
ENDBRANCH   1   5
BRANCH   1  18
HETATM   18  N           1     -21.660  -4.038  -6.674  0.00  0.00    -0.344 N 
HETATM   19  H           1     -21.426  -3.060  -6.566  0.00  0.00     0.163 HD
HETATM   20  C           1     -22.847  -4.398  -7.253  0.00  0.00     0.249 C 
HETATM   21  O           1     -23.831  -4.551  -6.570  0.00  0.00    -0.271 OA
BRANCH  20  22
HETATM   22  C           1     -22.925  -4.605  -8.745  0.00  0.00     0.275 C 
BRANCH  22  23
HETATM   23  N           1     -24.334  -4.378  -9.208  0.00  0.00    -0.066 N 
HETATM   24  H           1     -24.452  -3.379  -9.490  0.00  0.00     0.275 HD
HETATM   25  H           1     -24.535  -4.996 -10.027  0.00  0.00     0.275 HD
HETATM   26  H           1     -24.996  -4.602  -8.431  0.00  0.00     0.275 HD
ENDBRANCH  22  23
BRANCH  22  27
HETATM   27  C           1     -21.997  -3.621  -9.445  0.00  0.00     0.046 C 
BRANCH  27  28
HETATM   28  C           1     -21.632  -4.158 -10.823  0.00  0.00    -0.020 C 
HETATM   29  C           1     -20.133  -4.418 -10.885  0.00  0.00     0.009 C 
HETATM   30  C           1     -22.015  -3.136 -11.884  0.00  0.00     0.009 C 
ENDBRANCH  27  28
ENDBRANCH  22  27
ENDBRANCH  20  22
ENDBRANCH   1  18
TORSDOF 11
ENDMDL
MODEL 5
REMARK VINA RESULT:      -7.1      3.633      5.180
REMARK  11 active torsions:
REMARK  status: ('A' for Active; 'I' for Inactive)
REMARK    1  A    between atoms: C_4  and  O_5 
REMARK    2  A    between atoms: O_5  and  P_24 
REMARK    3  A    between atoms: C_6  and  C_22 
REMARK    4  A    between atoms: C_6  and  C_9 
REMARK    5  A    between atoms: C_6  and  N_28 
REMARK    6  A    between atoms: C_9  and  C_25 
REMARK    7  A    between atoms: N_12  and  C_18 
REMARK    8  A    between atoms: C_15  and  C_17 
REMARK    9  A    between atoms: C_17  and  C_18 
REMARK   10  A    between atoms: C_18  and  C_27 
REMARK   11  A    between atoms: P_24  and  O_30 
REMARK       I    between atoms: C_27  and  N_28 
ROOT
HETATM    1  C           1     -19.535 -10.568  -2.713  0.00  0.00     0.189 C 
ENDROOT
BRANCH   1   2
HETATM    2  C           1     -18.134 -11.113  -2.844  0.00  0.00     0.197 C 
HETATM    3  O           1     -17.807 -11.759  -3.863  0.00  0.00    -0.646 OA
HETATM    4  O           1     -17.300 -10.918  -1.933  0.00  0.00    -0.646 OA
ENDBRANCH   1   2
BRANCH   1   5
HETATM    5  C           1     -19.477  -9.133  -2.207  0.00  0.00     0.074 C 
BRANCH   5   6
HETATM    6  C           1     -20.271  -8.250  -3.118  0.00  0.00    -0.056 A 
HETATM    7  C           1     -20.357  -8.547  -4.479  0.00  0.00     0.010 A 
HETATM    8  C           1     -21.097  -7.725  -5.327  0.00  0.00     0.038 A 
HETATM    9  C           1     -21.752  -6.605  -4.816  0.00  0.00     0.081 A 
HETATM   10  C           1     -21.668  -6.307  -3.456  0.00  0.00     0.038 A 
HETATM   11  C           1     -20.927  -7.130  -2.607  0.00  0.00     0.010 A 
BRANCH   9  12
HETATM   12  O           1     -22.472  -5.806  -5.641  0.00  0.00    -0.247 OA
BRANCH  12  13
HETATM   13  P           1     -21.670  -4.928  -6.734  0.00  0.00     0.411 P 
HETATM   14  O           1     -20.516  -4.267  -6.085  0.00  0.00    -0.624 OA
HETATM   15  O           1     -21.187  -5.810  -7.819  0.00  0.00    -0.624 OA
BRANCH  13  16
HETATM   16  O           1     -22.656  -3.807  -7.351  0.00  0.00    -0.300 OA
HETATM   17  H           1     -22.174  -3.426  -8.066  0.00  0.00     0.223 HD
ENDBRANCH  13  16
ENDBRANCH  12  13
ENDBRANCH   9  12
ENDBRANCH   5   6
ENDBRANCH   1   5
BRANCH   1  18
HETATM   18  N           1     -20.283 -11.381  -1.773  0.00  0.00    -0.344 N 
HETATM   19  H           1     -19.812 -11.801  -0.981  0.00  0.00     0.163 HD
HETATM   20  C           1     -21.624 -11.581  -1.957  0.00  0.00     0.249 C 
HETATM   21  O           1     -22.011 -12.519  -2.611  0.00  0.00    -0.271 OA
BRANCH  20  22
HETATM   22  C           1     -22.620 -10.628  -1.343  0.00  0.00     0.275 C 
BRANCH  22  23
HETATM   23  N           1     -23.991 -11.236  -1.394  0.00  0.00    -0.066 N 
HETATM   24  H           1     -24.708 -10.476  -1.429  0.00  0.00     0.275 HD
HETATM   25  H           1     -24.075 -11.833  -2.248  0.00  0.00     0.275 HD
HETATM   26  H           1     -24.144 -11.821  -0.542  0.00  0.00     0.275 HD
ENDBRANCH  22  23
BRANCH  22  27
HETATM   27  C           1     -22.239 -10.359   0.107  0.00  0.00     0.046 C 
BRANCH  27  28
HETATM   28  C           1     -21.943  -8.876   0.288  0.00  0.00    -0.020 C 
HETATM   29  C           1     -21.009  -8.686   1.476  0.00  0.00     0.009 C 
HETATM   30  C           1     -23.243  -8.126   0.540  0.00  0.00     0.009 C 
ENDBRANCH  27  28
ENDBRANCH  22  27
ENDBRANCH  20  22
ENDBRANCH   1  18
TORSDOF 11
ENDMDL
MODEL 6
REMARK VINA RESULT:      -6.9      4.118      7.807
REMARK  11 active torsions:
REMARK  status: ('A' for Active; 'I' for Inactive)
REMARK    1  A    between atoms: C_4  and  O_5 
REMARK    2  A    between atoms: O_5  and  P_24 
REMARK    3  A    between atoms: C_6  and  C_22 
REMARK    4  A    between atoms: C_6  and  C_9 
REMARK    5  A    between atoms: C_6  and  N_28 
REMARK    6  A    between atoms: C_9  and  C_25 
REMARK    7  A    between atoms: N_12  and  C_18 
REMARK    8  A    between atoms: C_15  and  C_17 
REMARK    9  A    between atoms: C_17  and  C_18 
REMARK   10  A    between atoms: C_18  and  C_27 
REMARK   11  A    between atoms: P_24  and  O_30 
REMARK       I    between atoms: C_27  and  N_28 
ROOT
HETATM    1  C           1     -21.413  -7.767  -2.335  0.00  0.00     0.189 C 
ENDROOT
BRANCH   1   2
HETATM    2  C           1     -22.268  -7.758  -1.092  0.00  0.00     0.197 C 
HETATM    3  O           1     -22.516  -8.829  -0.496  0.00  0.00    -0.646 OA
HETATM    4  O           1     -22.729  -6.680  -0.658  0.00  0.00    -0.646 OA
ENDBRANCH   1   2
BRANCH   1   5
HETATM    5  C           1     -19.978  -8.116  -1.962  0.00  0.00     0.074 C 
BRANCH   5   6
HETATM    6  C           1     -19.502  -9.251  -2.814  0.00  0.00    -0.056 A 
HETATM    7  C           1     -20.417 -10.175  -3.320  0.00  0.00     0.010 A 
HETATM    8  C           1     -19.974 -11.232  -4.115  0.00  0.00     0.038 A 
HETATM    9  C           1     -18.616 -11.365  -4.403  0.00  0.00     0.081 A 
HETATM   10  C           1     -17.701 -10.442  -3.898  0.00  0.00     0.038 A 
HETATM   11  C           1     -18.144  -9.384  -3.103  0.00  0.00     0.010 A 
BRANCH   9  12
HETATM   12  O           1     -18.186 -12.392  -5.176  0.00  0.00    -0.247 OA
BRANCH  12  13
HETATM   13  P           1     -18.483 -12.324  -6.762  0.00  0.00     0.411 P 
HETATM   14  O           1     -18.647 -10.912  -7.172  0.00  0.00    -0.624 OA
HETATM   15  O           1     -17.351 -12.924  -7.503  0.00  0.00    -0.624 OA
BRANCH  13  16
HETATM   16  O           1     -19.836 -13.143  -7.091  0.00  0.00    -0.300 OA
HETATM   17  H           1     -20.485 -12.481  -7.263  0.00  0.00     0.223 HD
ENDBRANCH  13  16
ENDBRANCH  12  13
ENDBRANCH   9  12
ENDBRANCH   5   6
ENDBRANCH   1   5
BRANCH   1  18
HETATM   18  N           1     -21.445  -6.455  -2.952  0.00  0.00    -0.344 N 
HETATM   19  H           1     -21.291  -5.627  -2.390  0.00  0.00     0.163 HD
HETATM   20  C           1     -21.683  -6.335  -4.294  0.00  0.00     0.249 C 
HETATM   21  O           1     -22.816  -6.221  -4.699  0.00  0.00    -0.271 OA
BRANCH  20  22
HETATM   22  C           1     -20.532  -6.348  -5.269  0.00  0.00     0.275 C 
BRANCH  22  23
HETATM   23  N           1     -20.911  -7.147  -6.481  0.00  0.00    -0.066 N 
HETATM   24  H           1     -20.472  -6.724  -7.330  0.00  0.00     0.275 HD
HETATM   25  H           1     -20.573  -8.131  -6.368  0.00  0.00     0.275 HD
HETATM   26  H           1     -21.950  -7.145  -6.588  0.00  0.00     0.275 HD
ENDBRANCH  22  23
BRANCH  22  27
HETATM   27  C           1     -20.203  -4.921  -5.686  0.00  0.00     0.046 C 
BRANCH  27  28
HETATM   28  C           1     -20.499  -4.743  -7.170  0.00  0.00    -0.020 C 
HETATM   29  C           1     -19.238  -4.282  -7.887  0.00  0.00     0.009 C 
HETATM   30  C           1     -21.595  -3.702  -7.348  0.00  0.00     0.009 C 
ENDBRANCH  27  28
ENDBRANCH  22  27
ENDBRANCH  20  22
ENDBRANCH   1  18
TORSDOF 11
ENDMDL
MODEL 7
REMARK VINA RESULT:      -6.9      4.211      8.960
REMARK  11 active torsions:
REMARK  status: ('A' for Active; 'I' for Inactive)
REMARK    1  A    between atoms: C_4  and  O_5 
REMARK    2  A    between atoms: O_5  and  P_24 
REMARK    3  A    between atoms: C_6  and  C_22 
REMARK    4  A    between atoms: C_6  and  C_9 
REMARK    5  A    between atoms: C_6  and  N_28 
REMARK    6  A    between atoms: C_9  and  C_25 
REMARK    7  A    between atoms: N_12  and  C_18 
REMARK    8  A    between atoms: C_15  and  C_17 
REMARK    9  A    between atoms: C_17  and  C_18 
REMARK   10  A    between atoms: C_18  and  C_27 
REMARK   11  A    between atoms: P_24  and  O_30 
REMARK       I    between atoms: C_27  and  N_28 
ROOT
HETATM    1  C           1     -21.095  -7.023  -6.005  0.00  0.00     0.189 C 
ENDROOT
BRANCH   1   2
HETATM    2  C           1     -21.737  -6.186  -4.926  0.00  0.00     0.197 C 
HETATM    3  O           1     -21.026  -5.609  -4.075  0.00  0.00    -0.646 OA
HETATM    4  O           1     -22.981  -6.069  -4.883  0.00  0.00    -0.646 OA
ENDBRANCH   1   2
BRANCH   1   5
HETATM    5  C           1     -19.894  -7.762  -5.427  0.00  0.00     0.074 C 
BRANCH   5   6
HETATM    6  C           1     -20.362  -8.746  -4.401  0.00  0.00    -0.056 A 
HETATM    7  C           1     -19.689  -8.860  -3.185  0.00  0.00     0.010 A 
HETATM    8  C           1     -20.125  -9.777  -2.229  0.00  0.00     0.038 A 
HETATM    9  C           1     -21.235 -10.581  -2.490  0.00  0.00     0.081 A 
HETATM   10  C           1     -21.909 -10.468  -3.705  0.00  0.00     0.038 A 
HETATM   11  C           1     -21.472  -9.550  -4.662  0.00  0.00     0.010 A 
BRANCH   9  12
HETATM   12  O           1     -21.659 -11.472  -1.561  0.00  0.00    -0.247 OA
BRANCH  12  13
HETATM   13  P           1     -22.356 -10.897  -0.222  0.00  0.00     0.411 P 
HETATM   14  O           1     -21.322 -10.663   0.811  0.00  0.00    -0.624 OA
HETATM   15  O           1     -23.042  -9.622  -0.531  0.00  0.00    -0.624 OA
BRANCH  13  16
HETATM   16  O           1     -23.433 -11.969   0.326  0.00  0.00    -0.300 OA
HETATM   17  H           1     -23.212 -12.093   1.233  0.00  0.00     0.223 HD
ENDBRANCH  13  16
ENDBRANCH  12  13
ENDBRANCH   9  12
ENDBRANCH   5   6
ENDBRANCH   1   5
BRANCH   1  18
HETATM   18  N           1     -20.656  -6.162  -7.086  0.00  0.00    -0.344 N 
HETATM   19  H           1     -19.920  -6.468  -7.710  0.00  0.00     0.163 HD
HETATM   20  C           1     -21.235  -4.934  -7.262  0.00  0.00     0.249 C 
HETATM   21  O           1     -20.778  -3.964  -6.707  0.00  0.00    -0.271 OA
BRANCH  20  22
HETATM   22  C           1     -22.448  -4.794  -8.149  0.00  0.00     0.275 C 
BRANCH  22  23
HETATM   23  N           1     -23.615  -4.327  -7.330  0.00  0.00    -0.066 N 
HETATM   24  H           1     -24.350  -5.071  -7.314  0.00  0.00     0.275 HD
HETATM   25  H           1     -23.299  -4.131  -6.353  0.00  0.00     0.275 HD
HETATM   26  H           1     -24.010  -3.456  -7.751  0.00  0.00     0.275 HD
ENDBRANCH  22  23
BRANCH  22  27
HETATM   27  C           1     -22.161  -3.777  -9.246  0.00  0.00     0.046 C 
BRANCH  27  28
HETATM   28  C           1     -22.174  -4.474 -10.600  0.00  0.00    -0.020 C 
HETATM   29  C           1     -21.589  -3.544 -11.655  0.00  0.00     0.009 C 
HETATM   30  C           1     -23.606  -4.828 -10.975  0.00  0.00     0.009 C 
ENDBRANCH  27  28
ENDBRANCH  22  27
ENDBRANCH  20  22
ENDBRANCH   1  18
TORSDOF 11
ENDMDL
MODEL 8
REMARK VINA RESULT:      -6.8      4.684      7.943
REMARK  11 active torsions:
REMARK  status: ('A' for Active; 'I' for Inactive)
REMARK    1  A    between atoms: C_4  and  O_5 
REMARK    2  A    between atoms: O_5  and  P_24 
REMARK    3  A    between atoms: C_6  and  C_22 
REMARK    4  A    between atoms: C_6  and  C_9 
REMARK    5  A    between atoms: C_6  and  N_28 
REMARK    6  A    between atoms: C_9  and  C_25 
REMARK    7  A    between atoms: N_12  and  C_18 
REMARK    8  A    between atoms: C_15  and  C_17 
REMARK    9  A    between atoms: C_17  and  C_18 
REMARK   10  A    between atoms: C_18  and  C_27 
REMARK   11  A    between atoms: P_24  and  O_30 
REMARK       I    between atoms: C_27  and  N_28 
ROOT
HETATM    1  C           1     -20.551  -7.406  -4.485  0.00  0.00     0.189 C 
ENDROOT
BRANCH   1   2
HETATM    2  C           1     -20.676  -6.341  -5.548  0.00  0.00     0.197 C 
HETATM    3  O           1     -20.552  -5.136  -5.242  0.00  0.00    -0.646 OA
HETATM    4  O           1     -20.905  -6.666  -6.733  0.00  0.00    -0.646 OA
ENDBRANCH   1   2
BRANCH   1   5
HETATM    5  C           1     -20.266  -8.750  -5.144  0.00  0.00     0.074 C 
BRANCH   5   6
HETATM    6  C           1     -18.944  -9.268  -4.670  0.00  0.00    -0.056 A 
HETATM    7  C           1     -18.683  -9.368  -3.303  0.00  0.00     0.010 A 
HETATM    8  C           1     -17.451  -9.851  -2.861  0.00  0.00     0.038 A 
HETATM    9  C           1     -16.481 -10.235  -3.787  0.00  0.00     0.081 A 
HETATM   10  C           1     -16.741 -10.136  -5.153  0.00  0.00     0.038 A 
HETATM   11  C           1     -17.974  -9.653  -5.595  0.00  0.00     0.010 A 
BRANCH   9  12
HETATM   12  O           1     -15.284 -10.705  -3.357  0.00  0.00    -0.247 OA
BRANCH  12  13
HETATM   13  P           1     -15.189 -12.260  -2.934  0.00  0.00     0.411 P 
HETATM   14  O           1     -13.850 -12.785  -3.283  0.00  0.00    -0.624 OA
HETATM   15  O           1     -15.403 -12.390  -1.475  0.00  0.00    -0.624 OA
BRANCH  13  16
HETATM   16  O           1     -16.320 -13.102  -3.721  0.00  0.00    -0.300 OA
HETATM   17  H           1     -16.429 -12.655  -4.543  0.00  0.00     0.223 HD
ENDBRANCH  13  16
ENDBRANCH  12  13
ENDBRANCH   9  12
ENDBRANCH   5   6
ENDBRANCH   1   5
BRANCH   1  18
HETATM   18  N           1     -21.790  -7.490  -3.737  0.00  0.00    -0.344 N 
HETATM   19  H           1     -22.596  -7.949  -4.141  0.00  0.00     0.163 HD
HETATM   20  C           1     -21.870  -6.945  -2.483  0.00  0.00     0.249 C 
HETATM   21  O           1     -22.215  -5.796  -2.344  0.00  0.00    -0.271 OA
BRANCH  20  22
HETATM   22  C           1     -21.526  -7.781  -1.275  0.00  0.00     0.275 C 
BRANCH  22  23
HETATM   23  N           1     -22.248  -7.246  -0.074  0.00  0.00    -0.066 N 
HETATM   24  H           1     -23.276  -7.223  -0.266  0.00  0.00     0.275 HD
HETATM   25  H           1     -22.061  -7.863   0.748  0.00  0.00     0.275 HD
HETATM   26  H           1     -21.911  -6.278   0.131  0.00  0.00     0.275 HD
ENDBRANCH  22  23
BRANCH  22  27
HETATM   27  C           1     -21.948  -9.224  -1.518  0.00  0.00     0.046 C 
BRANCH  27  28
HETATM   28  C           1     -22.412  -9.846  -0.208  0.00  0.00    -0.020 C 
HETATM   29  C           1     -21.324 -10.764   0.332  0.00  0.00     0.009 C 
HETATM   30  C           1     -23.682 -10.650  -0.449  0.00  0.00     0.009 C 
ENDBRANCH  27  28
ENDBRANCH  22  27
ENDBRANCH  20  22
ENDBRANCH   1  18
TORSDOF 11
ENDMDL
MODEL 9
REMARK VINA RESULT:      -6.8      2.775      4.419
REMARK  11 active torsions:
REMARK  status: ('A' for Active; 'I' for Inactive)
REMARK    1  A    between atoms: C_4  and  O_5 
REMARK    2  A    between atoms: O_5  and  P_24 
REMARK    3  A    between atoms: C_6  and  C_22 
REMARK    4  A    between atoms: C_6  and  C_9 
REMARK    5  A    between atoms: C_6  and  N_28 
REMARK    6  A    between atoms: C_9  and  C_25 
REMARK    7  A    between atoms: N_12  and  C_18 
REMARK    8  A    between atoms: C_15  and  C_17 
REMARK    9  A    between atoms: C_17  and  C_18 
REMARK   10  A    between atoms: C_18  and  C_27 
REMARK   11  A    between atoms: P_24  and  O_30 
REMARK       I    between atoms: C_27  and  N_28 
ROOT
HETATM    1  C           1     -21.168  -7.543  -3.744  0.00  0.00     0.189 C 
ENDROOT
BRANCH   1   2
HETATM    2  C           1     -21.465  -6.802  -2.463  0.00  0.00     0.197 C 
HETATM    3  O           1     -20.992  -7.210  -1.380  0.00  0.00    -0.646 OA
HETATM    4  O           1     -22.184  -5.780  -2.485  0.00  0.00    -0.646 OA
ENDBRANCH   1   2
BRANCH   1   5
HETATM    5  C           1     -22.257  -7.244  -4.767  0.00  0.00     0.074 C 
BRANCH   5   6
HETATM    6  C           1     -21.715  -6.325  -5.817  0.00  0.00    -0.056 A 
HETATM    7  C           1     -20.429  -6.521  -6.321  0.00  0.00     0.010 A 
HETATM    8  C           1     -19.925  -5.665  -7.300  0.00  0.00     0.038 A 
HETATM    9  C           1     -20.708  -4.613  -7.776  0.00  0.00     0.081 A 
HETATM   10  C           1     -21.994  -4.417  -7.274  0.00  0.00     0.038 A 
HETATM   11  C           1     -22.498  -5.274  -6.294  0.00  0.00     0.010 A 
BRANCH   9  12
HETATM   12  O           1     -20.218  -3.782  -8.728  0.00  0.00    -0.247 OA
BRANCH  12  13
HETATM   13  P           1     -20.496  -4.153 -10.274  0.00  0.00     0.411 P 
HETATM   14  O           1     -19.583  -5.241 -10.693  0.00  0.00    -0.624 OA
HETATM   15  O           1     -21.899  -4.601 -10.431  0.00  0.00    -0.624 OA
BRANCH  13  16
HETATM   16  O           1     -20.242  -2.851 -11.195  0.00  0.00    -0.300 OA
HETATM   17  H           1     -21.097  -2.480 -11.334  0.00  0.00     0.223 HD
ENDBRANCH  13  16
ENDBRANCH  12  13
ENDBRANCH   9  12
ENDBRANCH   5   6
ENDBRANCH   1   5
BRANCH   1  18
HETATM   18  N           1     -21.133  -8.968  -3.479  0.00  0.00    -0.344 N 
HETATM   19  H           1     -21.982  -9.456  -3.224  0.00  0.00     0.163 HD
HETATM   20  C           1     -19.952  -9.652  -3.574  0.00  0.00     0.249 C 
HETATM   21  O           1     -19.237  -9.762  -2.606  0.00  0.00    -0.271 OA
BRANCH  20  22
HETATM   22  C           1     -19.541 -10.270  -4.888  0.00  0.00     0.275 C 
BRANCH  22  23
HETATM   23  N           1     -20.680 -10.180  -5.860  0.00  0.00    -0.066 N 
HETATM   24  H           1     -21.114  -9.231  -5.803  0.00  0.00     0.275 HD
HETATM   25  H           1     -20.323 -10.341  -6.830  0.00  0.00     0.275 HD
HETATM   26  H           1     -21.395 -10.905  -5.627  0.00  0.00     0.275 HD
ENDBRANCH  22  23
BRANCH  22  27
HETATM   27  C           1     -18.337  -9.523  -5.447  0.00  0.00     0.046 C 
BRANCH  27  28
HETATM   28  C           1     -17.080 -10.357  -5.239  0.00  0.00    -0.020 C 
HETATM   29  C           1     -15.938  -9.765  -6.053  0.00  0.00     0.009 C 
HETATM   30  C           1     -17.338 -11.787  -5.692  0.00  0.00     0.009 C 
ENDBRANCH  27  28
ENDBRANCH  22  27
ENDBRANCH  20  22
ENDBRANCH   1  18
TORSDOF 11
ENDMDL
