MODEL 1
REMARK VINA RESULT:      -7.7      0.000      0.000
REMARK  6 active torsions:
REMARK  status: ('A' for Active; 'I' for Inactive)
REMARK    1  A    between atoms: C_1  and  C_2 
REMARK    2  A    between atoms: C_2  and  C_18 
REMARK    3  A    between atoms: C_3  and  C_4 
REMARK    4  A    between atoms: C_4  and  N_11 
REMARK       I    between atoms: C_9  and  N_11 
REMARK    5  A    between atoms: C_9  and  C_18 
REMARK    6  A    between atoms: N_14  and  C_18 
ROOT
HETATM    1  C           1     -35.817  -0.539 -11.435  0.00  0.00     0.278 C 
ENDROOT
BRANCH   1   2
HETATM    2  C           1     -36.280  -1.873 -10.864  0.00  0.00     0.081 C 
BRANCH   2   3
HETATM    3  C           1     -35.195  -2.892 -11.030  0.00  0.00    -0.056 A 
HETATM    4  C           1     -33.895  -2.483 -11.321  0.00  0.00     0.007 A 
HETATM    5  C           1     -32.884  -3.431 -11.476  0.00  0.00     0.001 A 
HETATM    6  C           1     -33.175  -4.789 -11.340  0.00  0.00     0.000 A 
HETATM    7  C           1     -34.477  -5.197 -11.049  0.00  0.00     0.001 A 
HETATM    8  C           1     -35.487  -4.249 -10.894  0.00  0.00     0.007 A 
ENDBRANCH   2   3
ENDBRANCH   1   2
BRANCH   1   9
HETATM    9  C           1     -36.494  -0.296 -12.762  0.00  0.00     0.249 C 
HETATM   10  O           1     -37.674  -0.523 -12.888  0.00  0.00    -0.271 OA
HETATM   11  N           1     -35.771   0.180 -13.822  0.00  0.00    -0.345 N 
HETATM   12  H           1     -34.783   0.370 -13.716  0.00  0.00     0.163 HD
BRANCH  11  13
HETATM   13  C           1     -36.421   0.414 -15.096  0.00  0.00     0.181 C 
HETATM   14  C           1     -35.912   1.719 -15.696  0.00  0.00     0.043 C 
BRANCH  13  15
HETATM   15  C           1     -36.110  -0.725 -16.035  0.00  0.00     0.196 C 
HETATM   16  O           1     -35.240  -1.570 -15.728  0.00  0.00    -0.646 OA
HETATM   17  O           1     -36.720  -0.824 -17.122  0.00  0.00    -0.646 OA
ENDBRANCH  13  15
ENDBRANCH  11  13
ENDBRANCH   1   9
BRANCH   1  18
HETATM   18  N           1     -36.175   0.563 -10.482  0.00  0.00    -0.066 N 
HETATM   19  H           1     -35.430   0.650  -9.755  0.00  0.00     0.275 HD
HETATM   20  H           1     -37.087   0.345 -10.022  0.00  0.00     0.275 HD
HETATM   21  H           1     -36.258   1.463 -11.007  0.00  0.00     0.275 HD
ENDBRANCH   1  18
TORSDOF 6
ENDMDL
MODEL 2
REMARK VINA RESULT:      -7.0     12.345     14.137
REMARK  6 active torsions:
REMARK  status: ('A' for Active; 'I' for Inactive)
REMARK    1  A    between atoms: C_1  and  C_2 
REMARK    2  A    between atoms: C_2  and  C_18 
REMARK    3  A    between atoms: C_3  and  C_4 
REMARK    4  A    between atoms: C_4  and  N_11 
REMARK       I    between atoms: C_9  and  N_11 
REMARK    5  A    between atoms: C_9  and  C_18 
REMARK    6  A    between atoms: N_14  and  C_18 
ROOT
HETATM    1  C           1     -21.346  -4.381 -10.658  0.00  0.00     0.278 C 
ENDROOT
BRANCH   1   2
HETATM    2  C           1     -21.657  -3.515  -9.445  0.00  0.00     0.081 C 
BRANCH   2   3
HETATM    3  C           1     -21.152  -4.189  -8.206  0.00  0.00    -0.056 A 
HETATM    4  C           1     -19.786  -4.199  -7.927  0.00  0.00     0.007 A 
HETATM    5  C           1     -19.314  -4.826  -6.774  0.00  0.00     0.001 A 
HETATM    6  C           1     -20.209  -5.445  -5.902  0.00  0.00     0.000 A 
HETATM    7  C           1     -21.576  -5.435  -6.181  0.00  0.00     0.001 A 
HETATM    8  C           1     -22.047  -4.808  -7.334  0.00  0.00     0.007 A 
ENDBRANCH   2   3
ENDBRANCH   1   2
BRANCH   1   9
HETATM    9  C           1     -22.505  -4.332 -11.623  0.00  0.00     0.249 C 
HETATM   10  O           1     -23.423  -5.110 -11.504  0.00  0.00    -0.271 OA
HETATM   11  N           1     -22.518  -3.407 -12.632  0.00  0.00    -0.345 N 
HETATM   12  H           1     -21.750  -2.756 -12.731  0.00  0.00     0.163 HD
BRANCH  11  13
HETATM   13  C           1     -23.632  -3.360 -13.557  0.00  0.00     0.181 C 
HETATM   14  C           1     -24.868  -2.831 -12.841  0.00  0.00     0.043 C 
BRANCH  13  15
HETATM   15  C           1     -23.291  -2.446 -14.708  0.00  0.00     0.196 C 
HETATM   16  O           1     -22.357  -2.741 -15.486  0.00  0.00    -0.646 OA
HETATM   17  O           1     -23.941  -1.393 -14.885  0.00  0.00    -0.646 OA
ENDBRANCH  13  15
ENDBRANCH  11  13
ENDBRANCH   1   9
BRANCH   1  18
HETATM   18  N           1     -20.111  -3.866 -11.335  0.00  0.00    -0.066 N 
HETATM   19  H           1     -20.188  -2.831 -11.459  0.00  0.00     0.275 HD
HETATM   20  H           1     -20.009  -4.322 -12.270  0.00  0.00     0.275 HD
HETATM   21  H           1     -19.275  -4.086 -10.748  0.00  0.00     0.275 HD
ENDBRANCH   1  18
TORSDOF 6
ENDMDL
MODEL 3
REMARK VINA RESULT:      -6.9     14.601     16.876
REMARK  6 active torsions:
REMARK  status: ('A' for Active; 'I' for Inactive)
REMARK    1  A    between atoms: C_1  and  C_2 
REMARK    2  A    between atoms: C_2  and  C_18 
REMARK    3  A    between atoms: C_3  and  C_4 
REMARK    4  A    between atoms: C_4  and  N_11 
REMARK       I    between atoms: C_9  and  N_11 
REMARK    5  A    between atoms: C_9  and  C_18 
REMARK    6  A    between atoms: N_14  and  C_18 
ROOT
HETATM    1  C           1     -22.253  -5.106  -6.798  0.00  0.00     0.278 C 
ENDROOT
BRANCH   1   2
HETATM    2  C           1     -21.673  -3.818  -7.368  0.00  0.00     0.081 C 
BRANCH   2   3
HETATM    3  C           1     -21.603  -3.918  -8.860  0.00  0.00    -0.056 A 
HETATM    4  C           1     -22.744  -3.690  -9.628  0.00  0.00     0.007 A 
HETATM    5  C           1     -22.679  -3.783 -11.018  0.00  0.00     0.001 A 
HETATM    6  C           1     -21.473  -4.105 -11.640  0.00  0.00     0.000 A 
HETATM    7  C           1     -20.331  -4.333 -10.871  0.00  0.00     0.001 A 
HETATM    8  C           1     -20.396  -4.240  -9.481  0.00  0.00     0.007 A 
ENDBRANCH   2   3
ENDBRANCH   1   2
BRANCH   1   9
HETATM    9  C           1     -21.469  -5.515  -5.576  0.00  0.00     0.249 C 
HETATM   10  O           1     -20.280  -5.304  -5.522  0.00  0.00    -0.271 OA
HETATM   11  N           1     -22.103  -6.125  -4.527  0.00  0.00    -0.345 N 
HETATM   12  H           1     -23.099  -6.301  -4.572  0.00  0.00     0.163 HD
BRANCH  11  13
HETATM   13  C           1     -21.350  -6.516  -3.353  0.00  0.00     0.181 C 
HETATM   14  C           1     -22.140  -6.162  -2.099  0.00  0.00     0.043 C 
BRANCH  13  15
HETATM   15  C           1     -21.104  -8.005  -3.387  0.00  0.00     0.196 C 
HETATM   16  O           1     -21.760  -8.730  -4.167  0.00  0.00    -0.646 OA
HETATM   17  O           1     -20.246  -8.514  -2.634  0.00  0.00    -0.646 OA
ENDBRANCH  13  15
ENDBRANCH  11  13
ENDBRANCH   1   9
BRANCH   1  18
HETATM   18  N           1     -23.688  -4.883  -6.420  0.00  0.00    -0.066 N 
HETATM   19  H           1     -24.220  -4.555  -7.257  0.00  0.00     0.275 HD
HETATM   20  H           1     -23.742  -4.162  -5.667  0.00  0.00     0.275 HD
HETATM   21  H           1     -24.099  -5.779  -6.074  0.00  0.00     0.275 HD
ENDBRANCH   1  18
TORSDOF 6
ENDMDL
MODEL 4
REMARK VINA RESULT:      -6.8      3.175      5.352
REMARK  6 active torsions:
REMARK  status: ('A' for Active; 'I' for Inactive)
REMARK    1  A    between atoms: C_1  and  C_2 
REMARK    2  A    between atoms: C_2  and  C_18 
REMARK    3  A    between atoms: C_3  and  C_4 
REMARK    4  A    between atoms: C_4  and  N_11 
REMARK       I    between atoms: C_9  and  N_11 
REMARK    5  A    between atoms: C_9  and  C_18 
REMARK    6  A    between atoms: N_14  and  C_18 
ROOT
HETATM    1  C           1     -36.496  -0.420 -11.958  0.00  0.00     0.278 C 
ENDROOT
BRANCH   1   2
HETATM    2  C           1     -37.245  -1.036 -10.784  0.00  0.00     0.081 C 
BRANCH   2   3
HETATM    3  C           1     -37.264  -0.069  -9.640  0.00  0.00    -0.056 A 
HETATM    4  C           1     -36.489  -0.314  -8.507  0.00  0.00     0.007 A 
HETATM    5  C           1     -36.507   0.586  -7.443  0.00  0.00     0.001 A 
HETATM    6  C           1     -37.300   1.731  -7.511  0.00  0.00     0.000 A 
HETATM    7  C           1     -38.075   1.977  -8.644  0.00  0.00     0.001 A 
HETATM    8  C           1     -38.057   1.077  -9.709  0.00  0.00     0.007 A 
ENDBRANCH   2   3
ENDBRANCH   1   2
BRANCH   1   9
HETATM    9  C           1     -35.458  -1.394 -12.461  0.00  0.00     0.249 C 
HETATM   10  O           1     -34.832  -1.145 -13.464  0.00  0.00    -0.271 OA
HETATM   11  N           1     -35.226  -2.559 -11.780  0.00  0.00    -0.345 N 
HETATM   12  H           1     -35.751  -2.767 -10.940  0.00  0.00     0.163 HD
BRANCH  11  13
HETATM   13  C           1     -34.230  -3.494 -12.262  0.00  0.00     0.181 C 
HETATM   14  C           1     -32.955  -3.349 -11.440  0.00  0.00     0.043 C 
BRANCH  13  15
HETATM   15  C           1     -34.755  -4.902 -12.129  0.00  0.00     0.196 C 
HETATM   16  O           1     -34.702  -5.487 -11.025  0.00  0.00    -0.646 OA
HETATM   17  O           1     -35.241  -5.484 -13.122  0.00  0.00    -0.646 OA
ENDBRANCH  13  15
ENDBRANCH  11  13
ENDBRANCH   1   9
BRANCH   1  18
HETATM   18  N           1     -37.464  -0.109 -13.061  0.00  0.00    -0.066 N 
HETATM   19  H           1     -38.371  -0.593 -12.873  0.00  0.00     0.275 HD
HETATM   20  H           1     -37.074  -0.439 -13.972  0.00  0.00     0.275 HD
HETATM   21  H           1     -37.621   0.923 -13.104  0.00  0.00     0.275 HD
ENDBRANCH   1  18
TORSDOF 6
ENDMDL
MODEL 5
REMARK VINA RESULT:      -6.7     13.627     15.564
REMARK  6 active torsions:
REMARK  status: ('A' for Active; 'I' for Inactive)
REMARK    1  A    between atoms: C_1  and  C_2 
REMARK    2  A    between atoms: C_2  and  C_18 
REMARK    3  A    between atoms: C_3  and  C_4 
REMARK    4  A    between atoms: C_4  and  N_11 
REMARK       I    between atoms: C_9  and  N_11 
REMARK    5  A    between atoms: C_9  and  C_18 
REMARK    6  A    between atoms: N_14  and  C_18 
ROOT
HETATM    1  C           1     -21.094  -5.695  -6.779  0.00  0.00     0.278 C 
ENDROOT
BRANCH   1   2
HETATM    2  C           1     -20.808  -5.251  -5.350  0.00  0.00     0.081 C 
BRANCH   2   3
HETATM    3  C           1     -21.116  -6.373  -4.407  0.00  0.00    -0.056 A 
HETATM    4  C           1     -21.234  -7.676  -4.889  0.00  0.00     0.007 A 
HETATM    5  C           1     -21.521  -8.721  -4.011  0.00  0.00     0.001 A 
HETATM    6  C           1     -21.690  -8.462  -2.651  0.00  0.00     0.000 A 
HETATM    7  C           1     -21.572  -7.159  -2.169  0.00  0.00     0.001 A 
HETATM    8  C           1     -21.285  -6.114  -3.047  0.00  0.00     0.007 A 
ENDBRANCH   2   3
ENDBRANCH   1   2
BRANCH   1   9
HETATM    9  C           1     -21.636  -4.529  -7.569  0.00  0.00     0.249 C 
HETATM   10  O           1     -21.522  -3.404  -7.142  0.00  0.00    -0.271 OA
HETATM   11  N           1     -22.258  -4.746  -8.769  0.00  0.00    -0.345 N 
HETATM   12  H           1     -22.353  -5.688  -9.126  0.00  0.00     0.163 HD
BRANCH  11  13
HETATM   13  C           1     -22.778  -3.627  -9.528  0.00  0.00     0.181 C 
HETATM   14  C           1     -22.121  -3.594 -10.902  0.00  0.00     0.043 C 
BRANCH  13  15
HETATM   15  C           1     -24.271  -3.779  -9.690  0.00  0.00     0.196 C 
HETATM   16  O           1     -24.760  -4.900  -9.953  0.00  0.00    -0.646 OA
HETATM   17  O           1     -25.018  -2.786  -9.562  0.00  0.00    -0.646 OA
ENDBRANCH  13  15
ENDBRANCH  11  13
ENDBRANCH   1   9
BRANCH   1  18
HETATM   18  N           1     -19.825  -6.182  -7.414  0.00  0.00    -0.066 N 
HETATM   19  H           1     -19.366  -6.877  -6.783  0.00  0.00     0.275 HD
HETATM   20  H           1     -19.181  -5.374  -7.570  0.00  0.00     0.275 HD
HETATM   21  H           1     -20.046  -6.633  -8.330  0.00  0.00     0.275 HD
ENDBRANCH   1  18
TORSDOF 6
ENDMDL
MODEL 6
REMARK VINA RESULT:      -6.5     14.658     17.175
REMARK  6 active torsions:
REMARK  status: ('A' for Active; 'I' for Inactive)
REMARK    1  A    between atoms: C_1  and  C_2 
REMARK    2  A    between atoms: C_2  and  C_18 
REMARK    3  A    between atoms: C_3  and  C_4 
REMARK    4  A    between atoms: C_4  and  N_11 
REMARK       I    between atoms: C_9  and  N_11 
REMARK    5  A    between atoms: C_9  and  C_18 
REMARK    6  A    between atoms: N_14  and  C_18 
ROOT
HETATM    1  C           1     -20.884  -4.866  -6.518  0.00  0.00     0.278 C 
ENDROOT
BRANCH   1   2
HETATM    2  C           1     -20.596  -5.597  -7.823  0.00  0.00     0.081 C 
BRANCH   2   3
HETATM    3  C           1     -21.094  -4.780  -8.975  0.00  0.00    -0.056 A 
HETATM    4  C           1     -22.417  -4.339  -8.995  0.00  0.00     0.007 A 
HETATM    5  C           1     -22.881  -3.578 -10.067  0.00  0.00     0.001 A 
HETATM    6  C           1     -22.024  -3.260 -11.120  0.00  0.00     0.000 A 
HETATM    7  C           1     -20.701  -3.702 -11.100  0.00  0.00     0.001 A 
HETATM    8  C           1     -20.236  -4.463 -10.028  0.00  0.00     0.007 A 
ENDBRANCH   2   3
ENDBRANCH   1   2
BRANCH   1   9
HETATM    9  C           1     -21.648  -5.777  -5.589  0.00  0.00     0.249 C 
HETATM   10  O           1     -22.856  -5.774  -5.599  0.00  0.00    -0.271 OA
HETATM   11  N           1     -20.972  -6.606  -4.734  0.00  0.00    -0.345 N 
HETATM   12  H           1     -19.960  -6.608  -4.726  0.00  0.00     0.163 HD
BRANCH  11  13
HETATM   13  C           1     -21.706  -7.481  -3.842  0.00  0.00     0.181 C 
HETATM   14  C           1     -21.077  -8.869  -3.859  0.00  0.00     0.043 C 
BRANCH  13  15
HETATM   15  C           1     -21.656  -6.926  -2.440  0.00  0.00     0.196 C 
HETATM   16  O           1     -20.959  -7.490  -1.568  0.00  0.00    -0.646 OA
HETATM   17  O           1     -22.311  -5.902  -2.149  0.00  0.00    -0.646 OA
ENDBRANCH  13  15
ENDBRANCH  11  13
ENDBRANCH   1   9
BRANCH   1  18
HETATM   18  N           1     -19.590  -4.465  -5.874  0.00  0.00    -0.066 N 
HETATM   19  H           1     -19.453  -5.016  -4.997  0.00  0.00     0.275 HD
HETATM   20  H           1     -19.615  -3.446  -5.645  0.00  0.00     0.275 HD
HETATM   21  H           1     -18.801  -4.654  -6.533  0.00  0.00     0.275 HD
ENDBRANCH   1  18
TORSDOF 6
ENDMDL
MODEL 7
REMARK VINA RESULT:      -6.4     15.440     17.550
REMARK  6 active torsions:
REMARK  status: ('A' for Active; 'I' for Inactive)
REMARK    1  A    between atoms: C_1  and  C_2 
REMARK    2  A    between atoms: C_2  and  C_18 
REMARK    3  A    between atoms: C_3  and  C_4 
REMARK    4  A    between atoms: C_4  and  N_11 
REMARK       I    between atoms: C_9  and  N_11 
REMARK    5  A    between atoms: C_9  and  C_18 
REMARK    6  A    between atoms: N_14  and  C_18 
ROOT
HETATM    1  C           1     -21.572  -8.211  -4.433  0.00  0.00     0.278 C 
ENDROOT
BRANCH   1   2
HETATM    2  C           1     -20.677  -8.352  -3.209  0.00  0.00     0.081 C 
BRANCH   2   3
HETATM    3  C           1     -21.525  -8.488  -1.982  0.00  0.00    -0.056 A 
HETATM    4  C           1     -22.046  -9.732  -1.629  0.00  0.00     0.007 A 
HETATM    5  C           1     -22.836  -9.858  -0.487  0.00  0.00     0.001 A 
HETATM    6  C           1     -23.106  -8.739   0.302  0.00  0.00     0.000 A 
HETATM    7  C           1     -22.584  -7.495  -0.051  0.00  0.00     0.001 A 
HETATM    8  C           1     -21.794  -7.369  -1.194  0.00  0.00     0.007 A 
ENDBRANCH   2   3
ENDBRANCH   1   2
BRANCH   1   9
HETATM    9  C           1     -21.585  -6.771  -4.885  0.00  0.00     0.249 C 
HETATM   10  O           1     -22.268  -5.961  -4.303  0.00  0.00    -0.271 OA
HETATM   11  N           1     -20.823  -6.382  -5.953  0.00  0.00    -0.345 N 
HETATM   12  H           1     -20.251  -7.060  -6.440  0.00  0.00     0.163 HD
BRANCH  11  13
HETATM   13  C           1     -20.834  -4.999  -6.386  0.00  0.00     0.181 C 
HETATM   14  C           1     -19.462  -4.626  -6.934  0.00  0.00     0.043 C 
BRANCH  13  15
HETATM   15  C           1     -21.872  -4.819  -7.466  0.00  0.00     0.196 C 
HETATM   16  O           1     -23.023  -4.432  -7.170  0.00  0.00    -0.646 OA
HETATM   17  O           1     -21.581  -5.058  -8.659  0.00  0.00    -0.646 OA
ENDBRANCH  13  15
ENDBRANCH  11  13
ENDBRANCH   1   9
BRANCH   1  18
HETATM   18  N           1     -21.046  -9.077  -5.539  0.00  0.00    -0.066 N 
HETATM   19  H           1     -20.009  -8.970  -5.601  0.00  0.00     0.275 HD
HETATM   20  H           1     -21.482  -8.790  -6.444  0.00  0.00     0.275 HD
HETATM   21  H           1     -21.283 -10.075  -5.341  0.00  0.00     0.275 HD
ENDBRANCH   1  18
TORSDOF 6
ENDMDL
MODEL 8
REMARK VINA RESULT:      -6.1     16.408     18.882
REMARK  6 active torsions:
REMARK  status: ('A' for Active; 'I' for Inactive)
REMARK    1  A    between atoms: C_1  and  C_2 
REMARK    2  A    between atoms: C_2  and  C_18 
REMARK    3  A    between atoms: C_3  and  C_4 
REMARK    4  A    between atoms: C_4  and  N_11 
REMARK       I    between atoms: C_9  and  N_11 
REMARK    5  A    between atoms: C_9  and  C_18 
REMARK    6  A    between atoms: N_14  and  C_18 
ROOT
HETATM    1  C           1     -21.380  -7.376  -4.072  0.00  0.00     0.278 C 
ENDROOT
BRANCH   1   2
HETATM    2  C           1     -22.387  -6.546  -4.859  0.00  0.00     0.081 C 
BRANCH   2   3
HETATM    3  C           1     -21.659  -5.659  -5.822  0.00  0.00    -0.056 A 
HETATM    4  C           1     -22.377  -4.865  -6.715  0.00  0.00     0.007 A 
HETATM    5  C           1     -21.700  -4.039  -7.612  0.00  0.00     0.001 A 
HETATM    6  C           1     -20.306  -4.008  -7.616  0.00  0.00     0.000 A 
HETATM    7  C           1     -19.588  -4.803  -6.721  0.00  0.00     0.001 A 
HETATM    8  C           1     -20.265  -5.629  -5.825  0.00  0.00     0.007 A 
ENDBRANCH   2   3
ENDBRANCH   1   2
BRANCH   1   9
HETATM    9  C           1     -21.545  -7.101  -2.597  0.00  0.00     0.249 C 
HETATM   10  O           1     -21.658  -5.964  -2.203  0.00  0.00    -0.271 OA
HETATM   11  N           1     -21.567  -8.140  -1.706  0.00  0.00    -0.345 N 
HETATM   12  H           1     -21.472  -9.091  -2.036  0.00  0.00     0.163 HD
BRANCH  11  13
HETATM   13  C           1     -21.726  -7.876  -0.290  0.00  0.00     0.181 C 
HETATM   14  C           1     -23.208  -7.851   0.061  0.00  0.00     0.043 C 
BRANCH  13  15
HETATM   15  C           1     -21.041  -8.961   0.504  0.00  0.00     0.196 C 
HETATM   16  O           1     -20.645 -10.000  -0.069  0.00  0.00    -0.646 OA
HETATM   17  O           1     -20.869  -8.823   1.734  0.00  0.00    -0.646 OA
ENDBRANCH  13  15
ENDBRANCH  11  13
ENDBRANCH   1   9
BRANCH   1  18
HETATM   18  N           1     -21.616  -8.833  -4.338  0.00  0.00    -0.066 N 
HETATM   19  H           1     -22.538  -8.954  -4.817  0.00  0.00     0.275 HD
HETATM   20  H           1     -21.621  -9.357  -3.435  0.00  0.00     0.275 HD
HETATM   21  H           1     -20.854  -9.202  -4.950  0.00  0.00     0.275 HD
ENDBRANCH   1  18
TORSDOF 6
ENDMDL
MODEL 9
REMARK VINA RESULT:      -6.0     14.689     16.914
REMARK  6 active torsions:
REMARK  status: ('A' for Active; 'I' for Inactive)
REMARK    1  A    between atoms: C_1  and  C_2 
REMARK    2  A    between atoms: C_2  and  C_18 
REMARK    3  A    between atoms: C_3  and  C_4 
REMARK    4  A    between atoms: C_4  and  N_11 
REMARK       I    between atoms: C_9  and  N_11 
REMARK    5  A    between atoms: C_9  and  C_18 
REMARK    6  A    between atoms: N_14  and  C_18 
ROOT
HETATM    1  C           1     -19.807  -4.292  -7.540  0.00  0.00     0.278 C 
ENDROOT
BRANCH   1   2
HETATM    2  C           1     -20.193  -5.183  -8.713  0.00  0.00     0.081 C 
BRANCH   2   3
HETATM    3  C           1     -21.142  -4.448  -9.608  0.00  0.00    -0.056 A 
HETATM    4  C           1     -20.687  -3.899 -10.806  0.00  0.00     0.007 A 
HETATM    5  C           1     -21.570  -3.214 -11.640  0.00  0.00     0.001 A 
HETATM    6  C           1     -22.909  -3.078 -11.275  0.00  0.00     0.000 A 
HETATM    7  C           1     -23.365  -3.627 -10.077  0.00  0.00     0.001 A 
HETATM    8  C           1     -22.482  -4.312  -9.243  0.00  0.00     0.007 A 
ENDBRANCH   2   3
ENDBRANCH   1   2
BRANCH   1   9
HETATM    9  C           1     -20.207  -4.960  -6.247  0.00  0.00     0.249 C 
HETATM   10  O           1     -19.954  -4.430  -5.190  0.00  0.00    -0.271 OA
HETATM   11  N           1     -20.854  -6.165  -6.271  0.00  0.00    -0.345 N 
HETATM   12  H           1     -21.065  -6.609  -7.156  0.00  0.00     0.163 HD
BRANCH  11  13
HETATM   13  C           1     -21.239  -6.806  -5.029  0.00  0.00     0.181 C 
HETATM   14  C           1     -22.747  -6.691  -4.842  0.00  0.00     0.043 C 
BRANCH  13  15
HETATM   15  C           1     -20.849  -8.262  -5.073  0.00  0.00     0.196 C 
HETATM   16  O           1     -21.559  -9.118  -4.501  0.00  0.00    -0.646 OA
HETATM   17  O           1     -19.814  -8.615  -5.680  0.00  0.00    -0.646 OA
ENDBRANCH  13  15
ENDBRANCH  11  13
ENDBRANCH   1   9
BRANCH   1  18
HETATM   18  N           1     -18.323  -4.069  -7.550  0.00  0.00    -0.066 N 
HETATM   19  H           1     -17.905  -4.476  -6.683  0.00  0.00     0.275 HD
HETATM   20  H           1     -18.125  -3.044  -7.584  0.00  0.00     0.275 HD
HETATM   21  H           1     -17.908  -4.533  -8.389  0.00  0.00     0.275 HD
ENDBRANCH   1  18
TORSDOF 6
ENDMDL
