MODEL 1
REMARK VINA RESULT:      -6.2      0.000      0.000
REMARK  9 active torsions:
REMARK  status: ('A' for Active; 'I' for Inactive)
REMARK    1  A    between atoms: C_1  and  C_7 
REMARK    2  A    between atoms: C_1  and  C_11 
REMARK    3  A    between atoms: N_5  and  C_17 
REMARK       I    between atoms: N_5  and  C_6 
REMARK    4  A    between atoms: C_6  and  C_7 
REMARK    5  A    between atoms: C_7  and  N_14 
REMARK    6  A    between atoms: C_9  and  C_18 
REMARK    7  A    between atoms: C_11  and  S_12 
REMARK    8  A    between atoms: C_17  and  C_23 
REMARK    9  A    between atoms: C_17  and  C_18 
ROOT
HETATM    1  N           1     -22.763  -4.178  -8.040  0.00  0.00    -0.344 N 
HETATM    2  C           1     -21.505  -4.006  -7.529  0.00  0.00     0.249 C 
HETATM    3  O           1     -21.259  -3.049  -6.836  0.00  0.00    -0.271 OA
HETATM    4  H           1     -23.456  -4.698  -7.517  0.00  0.00     0.163 HD
ENDROOT
BRANCH   1   5
HETATM    5  C           1     -23.104  -3.613  -9.332  0.00  0.00     0.191 C 
BRANCH   5   6
HETATM    6  C           1     -24.594  -3.719  -9.548  0.00  0.00     0.197 C 
HETATM    7  O           1     -25.119  -4.837  -9.747  0.00  0.00    -0.646 OA
HETATM    8  O           1     -25.303  -2.690  -9.531  0.00  0.00    -0.646 OA
ENDBRANCH   5   6
BRANCH   5   9
HETATM    9  C           1     -22.376  -4.380 -10.428  0.00  0.00     0.094 C 
BRANCH   9  10
HETATM   10  C           1     -22.800  -3.859 -11.766  0.00  0.00     0.028 A 
HETATM   11  N           1     -23.630  -4.522 -12.633  0.00  0.00    -0.354 N 
HETATM   12  C           1     -23.747  -3.731 -13.674  0.00  0.00     0.180 A 
ATOM     13  HN          1     -24.065  -5.435 -12.497  1.00  0.00     0.166 HD
HETATM   14  N           1     -23.025  -2.583 -13.514  0.00  0.00    -0.360 N 
HETATM   15  C           1     -22.412  -2.650 -12.293  0.00  0.00     0.114 A 
HETATM   16  H           1     -22.955  -1.794 -14.202  0.00  0.00     0.166 HD
ENDBRANCH   9  10
ENDBRANCH   5   9
ENDBRANCH   1   5
BRANCH   2  17
HETATM   17  C           1     -20.424  -5.016  -7.832  0.00  0.00     0.275 C 
BRANCH  17  18
HETATM   18  C           1     -20.644  -6.264  -6.986  0.00  0.00     0.053 C 
BRANCH  18  19
HETATM   19  C           1     -20.621  -5.889  -5.511  0.00  0.00     0.076 C 
BRANCH  19  20
HETATM   20  S           1     -22.044  -6.639  -4.672  0.00  0.00    -0.173 SA
HETATM   21  C           1     -21.482  -6.297  -2.980  0.00  0.00     0.089 C 
ENDBRANCH  19  20
ENDBRANCH  18  19
ENDBRANCH  17  18
BRANCH  17  22
HETATM   22  N           1     -19.085  -4.425  -7.510  0.00  0.00    -0.066 N 
HETATM   23  H           1     -18.354  -4.864  -8.115  0.00  0.00     0.275 HD
HETATM   24  H           1     -19.108  -3.394  -7.687  0.00  0.00     0.275 HD
HETATM   25  H           1     -18.857  -4.601  -6.506  0.00  0.00     0.275 HD
ENDBRANCH  17  22
ENDBRANCH   2  17
TORSDOF 9
ENDMDL
MODEL 2
REMARK VINA RESULT:      -6.0      3.194      7.290
REMARK  9 active torsions:
REMARK  status: ('A' for Active; 'I' for Inactive)
REMARK    1  A    between atoms: C_1  and  C_7 
REMARK    2  A    between atoms: C_1  and  C_11 
REMARK    3  A    between atoms: N_5  and  C_17 
REMARK       I    between atoms: N_5  and  C_6 
REMARK    4  A    between atoms: C_6  and  C_7 
REMARK    5  A    between atoms: C_7  and  N_14 
REMARK    6  A    between atoms: C_9  and  C_18 
REMARK    7  A    between atoms: C_11  and  S_12 
REMARK    8  A    between atoms: C_17  and  C_23 
REMARK    9  A    between atoms: C_17  and  C_18 
ROOT
HETATM    1  N           1     -21.305  -5.636  -8.014  0.00  0.00    -0.344 N 
HETATM    2  C           1     -21.946  -4.649  -8.714  0.00  0.00     0.249 C 
HETATM    3  O           1     -21.339  -3.667  -9.067  0.00  0.00    -0.271 OA
HETATM    4  H           1     -20.859  -6.399  -8.508  0.00  0.00     0.163 HD
ENDROOT
BRANCH   1   5
HETATM    5  C           1     -21.263  -5.588  -6.566  0.00  0.00     0.191 C 
BRANCH   5   6
HETATM    6  C           1     -20.006  -4.880  -6.122  0.00  0.00     0.197 C 
HETATM    7  O           1     -19.012  -4.837  -6.880  0.00  0.00    -0.646 OA
HETATM    8  O           1     -19.957  -4.339  -4.997  0.00  0.00    -0.646 OA
ENDBRANCH   5   6
BRANCH   5   9
HETATM    9  C           1     -21.270  -7.006  -6.011  0.00  0.00     0.094 C 
BRANCH   9  10
HETATM   10  C           1     -21.387  -6.958  -4.520  0.00  0.00     0.028 A 
HETATM   11  N           1     -22.216  -6.111  -3.830  0.00  0.00    -0.354 N 
HETATM   12  C           1     -22.018  -6.388  -2.562  0.00  0.00     0.180 A 
ATOM     13  HN          1     -22.852  -5.415  -4.219  1.00  0.00     0.166 HD
HETATM   14  N           1     -21.093  -7.381  -2.406  0.00  0.00    -0.360 N 
HETATM   15  C           1     -20.680  -7.758  -3.654  0.00  0.00     0.114 A 
HETATM   16  H           1     -20.762  -7.782  -1.494  0.00  0.00     0.166 HD
ENDBRANCH   9  10
ENDBRANCH   5   9
ENDBRANCH   1   5
BRANCH   2  17
HETATM   17  C           1     -23.412  -4.791  -9.045  0.00  0.00     0.275 C 
BRANCH  17  18
HETATM   18  C           1     -23.599  -4.730 -10.556  0.00  0.00     0.053 C 
BRANCH  18  19
HETATM   19  C           1     -24.394  -3.484 -10.920  0.00  0.00     0.076 C 
BRANCH  19  20
HETATM   20  S           1     -23.965  -2.960 -12.603  0.00  0.00    -0.173 SA
HETATM   21  C           1     -22.182  -3.276 -12.462  0.00  0.00     0.089 C 
ENDBRANCH  19  20
ENDBRANCH  18  19
ENDBRANCH  17  18
BRANCH  17  22
HETATM   22  N           1     -24.178  -3.675  -8.402  0.00  0.00    -0.066 N 
HETATM   23  H           1     -25.147  -3.999  -8.180  0.00  0.00     0.275 HD
HETATM   24  H           1     -23.698  -3.386  -7.519  0.00  0.00     0.275 HD
HETATM   25  H           1     -24.225  -2.861  -9.056  0.00  0.00     0.275 HD
ENDBRANCH  17  22
ENDBRANCH   2  17
TORSDOF 9
ENDMDL
MODEL 3
REMARK VINA RESULT:      -5.8      2.537      3.387
REMARK  9 active torsions:
REMARK  status: ('A' for Active; 'I' for Inactive)
REMARK    1  A    between atoms: C_1  and  C_7 
REMARK    2  A    between atoms: C_1  and  C_11 
REMARK    3  A    between atoms: N_5  and  C_17 
REMARK       I    between atoms: N_5  and  C_6 
REMARK    4  A    between atoms: C_6  and  C_7 
REMARK    5  A    between atoms: C_7  and  N_14 
REMARK    6  A    between atoms: C_9  and  C_18 
REMARK    7  A    between atoms: C_11  and  S_12 
REMARK    8  A    between atoms: C_17  and  C_23 
REMARK    9  A    between atoms: C_17  and  C_18 
ROOT
HETATM    1  N           1     -22.232  -4.758  -6.498  0.00  0.00    -0.344 N 
HETATM    2  C           1     -21.409  -5.388  -5.604  0.00  0.00     0.249 C 
HETATM    3  O           1     -20.442  -4.814  -5.163  0.00  0.00    -0.271 OA
HETATM    4  H           1     -23.021  -4.217  -6.166  0.00  0.00     0.163 HD
ENDROOT
BRANCH   1   5
HETATM    5  C           1     -21.974  -4.864  -7.921  0.00  0.00     0.191 C 
BRANCH   5   6
HETATM    6  C           1     -20.484  -4.892  -8.161  0.00  0.00     0.197 C 
HETATM    7  O           1     -19.854  -3.822  -8.307  0.00  0.00    -0.646 OA
HETATM    8  O           1     -19.880  -5.985  -8.215  0.00  0.00    -0.646 OA
ENDBRANCH   5   6
BRANCH   5   9
HETATM    9  C           1     -22.580  -3.664  -8.637  0.00  0.00     0.094 C 
BRANCH   9  10
HETATM   10  C           1     -22.568  -3.906 -10.114  0.00  0.00     0.028 A 
HETATM   11  N           1     -21.712  -3.297 -10.996  0.00  0.00    -0.354 N 
HETATM   12  C           1     -22.028  -3.781 -12.175  0.00  0.00     0.180 A 
ATOM     13  HN          1     -20.985  -2.615 -10.782  1.00  0.00     0.166 HD
HETATM   14  N           1     -23.053  -4.679 -12.089  0.00  0.00    -0.360 N 
HETATM   15  C           1     -23.410  -4.771 -10.772  0.00  0.00     0.114 A 
HETATM   16  H           1     -23.487  -5.204 -12.888  0.00  0.00     0.166 HD
ENDBRANCH   9  10
ENDBRANCH   5   9
ENDBRANCH   1   5
BRANCH   2  17
HETATM   17  C           1     -21.710  -6.802  -5.168  0.00  0.00     0.275 C 
BRANCH  17  18
HETATM   18  C           1     -21.716  -6.873  -3.646  0.00  0.00     0.053 C 
BRANCH  18  19
HETATM   19  C           1     -21.076  -8.180  -3.197  0.00  0.00     0.076 C 
BRANCH  19  20
HETATM   20  S           1     -20.966  -8.209  -1.386  0.00  0.00    -0.173 SA
HETATM   21  C           1     -22.240  -6.951  -1.088  0.00  0.00     0.089 C 
ENDBRANCH  19  20
ENDBRANCH  18  19
ENDBRANCH  17  18
BRANCH  17  22
HETATM   22  N           1     -20.659  -7.725  -5.708  0.00  0.00    -0.066 N 
HETATM   23  H           1     -21.064  -8.303  -6.478  0.00  0.00     0.275 HD
HETATM   24  H           1     -19.860  -7.162  -6.079  0.00  0.00     0.275 HD
HETATM   25  H           1     -20.320  -8.351  -4.944  0.00  0.00     0.275 HD
ENDBRANCH  17  22
ENDBRANCH   2  17
TORSDOF 9
ENDMDL
MODEL 4
REMARK VINA RESULT:      -5.8      2.980      4.542
REMARK  9 active torsions:
REMARK  status: ('A' for Active; 'I' for Inactive)
REMARK    1  A    between atoms: C_1  and  C_7 
REMARK    2  A    between atoms: C_1  and  C_11 
REMARK    3  A    between atoms: N_5  and  C_17 
REMARK       I    between atoms: N_5  and  C_6 
REMARK    4  A    between atoms: C_6  and  C_7 
REMARK    5  A    between atoms: C_7  and  N_14 
REMARK    6  A    between atoms: C_9  and  C_18 
REMARK    7  A    between atoms: C_11  and  S_12 
REMARK    8  A    between atoms: C_17  and  C_23 
REMARK    9  A    between atoms: C_17  and  C_18 
ROOT
HETATM    1  N           1     -21.838  -6.893  -6.180  0.00  0.00    -0.344 N 
HETATM    2  C           1     -22.343  -6.427  -4.996  0.00  0.00     0.249 C 
HETATM    3  O           1     -23.507  -6.116  -4.916  0.00  0.00    -0.271 OA
HETATM    4  H           1     -21.854  -7.885  -6.381  0.00  0.00     0.163 HD
ENDROOT
BRANCH   1   5
HETATM    5  C           1     -21.281  -5.966  -7.146  0.00  0.00     0.191 C 
BRANCH   5   6
HETATM    6  C           1     -19.784  -5.894  -6.968  0.00  0.00     0.197 C 
HETATM    7  O           1     -19.122  -6.944  -6.814  0.00  0.00    -0.646 OA
HETATM    8  O           1     -19.206  -4.786  -6.974  0.00  0.00    -0.646 OA
ENDBRANCH   5   6
BRANCH   5   9
HETATM    9  C           1     -21.885  -4.584  -6.929  0.00  0.00     0.094 C 
BRANCH   9  10
HETATM   10  C           1     -22.615  -4.160  -8.165  0.00  0.00     0.028 A 
HETATM   11  N           1     -23.967  -3.941  -8.235  0.00  0.00    -0.354 N 
HETATM   12  C           1     -24.197  -3.588  -9.479  0.00  0.00     0.180 A 
ATOM     13  HN          1     -24.648  -4.032  -7.482  1.00  0.00     0.166 HD
HETATM   14  N           1     -23.046  -3.570 -10.214  0.00  0.00    -0.360 N 
HETATM   15  C           1     -22.022  -3.934  -9.385  0.00  0.00     0.114 A 
HETATM   16  H           1     -22.964  -3.321 -11.231  0.00  0.00     0.166 HD
ENDBRANCH   9  10
ENDBRANCH   5   9
ENDBRANCH   1   5
BRANCH   2  17
HETATM   17  C           1     -21.444  -6.302  -3.790  0.00  0.00     0.275 C 
BRANCH  17  18
HETATM   18  C           1     -20.716  -7.620  -3.560  0.00  0.00     0.053 C 
BRANCH  18  19
HETATM   19  C           1     -21.004  -8.121  -2.152  0.00  0.00     0.076 C 
BRANCH  19  20
HETATM   20  S           1     -21.184  -9.927  -2.176  0.00  0.00    -0.173 SA
HETATM   21  C           1     -21.906 -10.033  -3.839  0.00  0.00     0.089 C 
ENDBRANCH  19  20
ENDBRANCH  18  19
ENDBRANCH  17  18
BRANCH  17  22
HETATM   22  N           1     -22.270  -5.971  -2.583  0.00  0.00    -0.066 N 
HETATM   23  H           1     -23.039  -5.317  -2.855  0.00  0.00     0.275 HD
HETATM   24  H           1     -22.683  -6.849  -2.193  0.00  0.00     0.275 HD
HETATM   25  H           1     -21.667  -5.519  -1.860  0.00  0.00     0.275 HD
ENDBRANCH  17  22
ENDBRANCH   2  17
TORSDOF 9
ENDMDL
MODEL 5
REMARK VINA RESULT:      -5.7      3.849      7.217
REMARK  9 active torsions:
REMARK  status: ('A' for Active; 'I' for Inactive)
REMARK    1  A    between atoms: C_1  and  C_7 
REMARK    2  A    between atoms: C_1  and  C_11 
REMARK    3  A    between atoms: N_5  and  C_17 
REMARK       I    between atoms: N_5  and  C_6 
REMARK    4  A    between atoms: C_6  and  C_7 
REMARK    5  A    between atoms: C_7  and  N_14 
REMARK    6  A    between atoms: C_9  and  C_18 
REMARK    7  A    between atoms: C_11  and  S_12 
REMARK    8  A    between atoms: C_17  and  C_23 
REMARK    9  A    between atoms: C_17  and  C_18 
ROOT
HETATM    1  N           1     -20.584  -6.318  -6.860  0.00  0.00    -0.344 N 
HETATM    2  C           1     -21.031  -5.057  -7.149  0.00  0.00     0.249 C 
HETATM    3  O           1     -20.677  -4.121  -6.475  0.00  0.00    -0.271 OA
HETATM    4  H           1     -19.731  -6.663  -7.282  0.00  0.00     0.163 HD
ENDROOT
BRANCH   1   5
HETATM    5  C           1     -21.332  -7.161  -5.947  0.00  0.00     0.191 C 
BRANCH   5   6
HETATM    6  C           1     -22.090  -6.296  -4.970  0.00  0.00     0.197 C 
HETATM    7  O           1     -21.525  -5.882  -3.933  0.00  0.00    -0.646 OA
HETATM    8  O           1     -23.281  -5.994  -5.195  0.00  0.00    -0.646 OA
ENDBRANCH   5   6
BRANCH   5   9
HETATM    9  C           1     -20.369  -8.064  -5.186  0.00  0.00     0.094 C 
BRANCH   9  10
HETATM   10  C           1     -20.954  -9.437  -5.078  0.00  0.00     0.028 A 
HETATM   11  N           1     -20.824 -10.417  -6.029  0.00  0.00    -0.354 N 
HETATM   12  C           1     -21.474 -11.453  -5.551  0.00  0.00     0.180 A 
ATOM     13  HN          1     -20.328 -10.354  -6.918  1.00  0.00     0.166 HD
HETATM   14  N           1     -22.018 -11.181  -4.329  0.00  0.00    -0.360 N 
HETATM   15  C           1     -21.692  -9.891  -4.011  0.00  0.00     0.114 A 
HETATM   16  H           1     -22.582 -11.842  -3.740  0.00  0.00     0.166 HD
ENDBRANCH   9  10
ENDBRANCH   5   9
ENDBRANCH   1   5
BRANCH   2  17
HETATM   17  C           1     -21.966  -4.838  -8.314  0.00  0.00     0.275 C 
BRANCH  17  18
HETATM   18  C           1     -21.277  -3.977  -9.364  0.00  0.00     0.053 C 
BRANCH  18  19
HETATM   19  C           1     -21.694  -4.438 -10.754  0.00  0.00     0.076 C 
BRANCH  19  20
HETATM   20  S           1     -22.255  -3.010 -11.723  0.00  0.00    -0.173 SA
HETATM   21  C           1     -24.024  -3.210 -11.367  0.00  0.00     0.089 C 
ENDBRANCH  19  20
ENDBRANCH  18  19
ENDBRANCH  17  18
BRANCH  17  22
HETATM   22  N           1     -23.206  -4.144  -7.834  0.00  0.00    -0.066 N 
HETATM   23  H           1     -23.071  -3.109  -7.893  0.00  0.00     0.275 HD
HETATM   24  H           1     -24.016  -4.424  -8.434  0.00  0.00     0.275 HD
HETATM   25  H           1     -23.396  -4.415  -6.843  0.00  0.00     0.275 HD
ENDBRANCH  17  22
ENDBRANCH   2  17
TORSDOF 9
ENDMDL
MODEL 6
REMARK VINA RESULT:      -5.6      3.721      7.734
REMARK  9 active torsions:
REMARK  status: ('A' for Active; 'I' for Inactive)
REMARK    1  A    between atoms: C_1  and  C_7 
REMARK    2  A    between atoms: C_1  and  C_11 
REMARK    3  A    between atoms: N_5  and  C_17 
REMARK       I    between atoms: N_5  and  C_6 
REMARK    4  A    between atoms: C_6  and  C_7 
REMARK    5  A    between atoms: C_7  and  N_14 
REMARK    6  A    between atoms: C_9  and  C_18 
REMARK    7  A    between atoms: C_11  and  S_12 
REMARK    8  A    between atoms: C_17  and  C_23 
REMARK    9  A    between atoms: C_17  and  C_18 
ROOT
HETATM    1  N           1     -20.084  -6.743  -6.805  0.00  0.00    -0.344 N 
HETATM    2  C           1     -20.136  -5.407  -7.101  0.00  0.00     0.249 C 
HETATM    3  O           1     -19.124  -4.749  -7.106  0.00  0.00    -0.271 OA
HETATM    4  H           1     -19.949  -7.420  -7.545  0.00  0.00     0.163 HD
ENDROOT
BRANCH   1   5
HETATM    5  C           1     -20.222  -7.187  -5.432  0.00  0.00     0.191 C 
BRANCH   5   6
HETATM    6  C           1     -19.703  -8.599  -5.305  0.00  0.00     0.197 C 
HETATM    7  O           1     -18.625  -8.817  -4.711  0.00  0.00    -0.646 OA
HETATM    8  O           1     -20.351  -9.549  -5.795  0.00  0.00    -0.646 OA
ENDBRANCH   5   6
BRANCH   5   9
HETATM    9  C           1     -21.691  -7.148  -5.031  0.00  0.00     0.094 C 
BRANCH   9  10
HETATM   10  C           1     -21.800  -7.076  -3.540  0.00  0.00     0.028 A 
HETATM   11  N           1     -22.294  -6.001  -2.846  0.00  0.00    -0.354 N 
HETATM   12  C           1     -22.217  -6.340  -1.580  0.00  0.00     0.180 A 
ATOM     13  HN          1     -22.648  -5.125  -3.231  1.00  0.00     0.166 HD
HETATM   14  N           1     -21.692  -7.592  -1.430  0.00  0.00    -0.360 N 
HETATM   15  C           1     -21.420  -8.077  -2.679  0.00  0.00     0.114 A 
HETATM   16  H           1     -21.528  -8.091  -0.521  0.00  0.00     0.166 HD
ENDBRANCH   9  10
ENDBRANCH   5   9
ENDBRANCH   1   5
BRANCH   2  17
HETATM   17  C           1     -21.461  -4.758  -7.423  0.00  0.00     0.275 C 
BRANCH  17  18
HETATM   18  C           1     -21.681  -4.774  -8.930  0.00  0.00     0.053 C 
BRANCH  18  19
HETATM   19  C           1     -23.102  -4.325  -9.240  0.00  0.00     0.076 C 
BRANCH  19  20
HETATM   20  S           1     -23.527  -4.789 -10.943  0.00  0.00    -0.173 SA
HETATM   21  C           1     -24.225  -3.183 -11.420  0.00  0.00     0.089 C 
ENDBRANCH  19  20
ENDBRANCH  18  19
ENDBRANCH  17  18
BRANCH  17  22
HETATM   22  N           1     -21.453  -3.340  -6.935  0.00  0.00    -0.066 N 
HETATM   23  H           1     -22.264  -2.824  -7.344  0.00  0.00     0.275 HD
HETATM   24  H           1     -21.526  -3.331  -5.891  0.00  0.00     0.275 HD
HETATM   25  H           1     -20.563  -2.876  -7.225  0.00  0.00     0.275 HD
ENDBRANCH  17  22
ENDBRANCH   2  17
TORSDOF 9
ENDMDL
MODEL 7
REMARK VINA RESULT:      -5.5      4.544      8.291
REMARK  9 active torsions:
REMARK  status: ('A' for Active; 'I' for Inactive)
REMARK    1  A    between atoms: C_1  and  C_7 
REMARK    2  A    between atoms: C_1  and  C_11 
REMARK    3  A    between atoms: N_5  and  C_17 
REMARK       I    between atoms: N_5  and  C_6 
REMARK    4  A    between atoms: C_6  and  C_7 
REMARK    5  A    between atoms: C_7  and  N_14 
REMARK    6  A    between atoms: C_9  and  C_18 
REMARK    7  A    between atoms: C_11  and  S_12 
REMARK    8  A    between atoms: C_17  and  C_23 
REMARK    9  A    between atoms: C_17  and  C_18 
ROOT
HETATM    1  N           1     -21.380  -6.468  -2.939  0.00  0.00    -0.344 N 
HETATM    2  C           1     -21.624  -6.303  -4.276  0.00  0.00     0.249 C 
HETATM    3  O           1     -22.756  -6.163  -4.671  0.00  0.00    -0.271 OA
HETATM    4  H           1     -21.214  -5.660  -2.351  0.00  0.00     0.163 HD
ENDROOT
BRANCH   1   5
HETATM    5  C           1     -21.358  -7.799  -2.364  0.00  0.00     0.191 C 
BRANCH   5   6
HETATM    6  C           1     -22.198  -7.818  -1.110  0.00  0.00     0.197 C 
HETATM    7  O           1     -22.352  -8.887  -0.478  0.00  0.00    -0.646 OA
HETATM    8  O           1     -22.740  -6.768  -0.704  0.00  0.00    -0.646 OA
ENDBRANCH   5   6
BRANCH   5   9
HETATM    9  C           1     -19.924  -8.179  -2.020  0.00  0.00     0.094 C 
BRANCH   9  10
HETATM   10  C           1     -19.401  -9.132  -3.049  0.00  0.00     0.028 A 
HETATM   11  N           1     -20.180  -9.804  -3.957  0.00  0.00    -0.354 N 
HETATM   12  C           1     -19.342 -10.525  -4.666  0.00  0.00     0.180 A 
ATOM     13  HN          1     -21.193  -9.754  -4.059  1.00  0.00     0.166 HD
HETATM   14  N           1     -18.053 -10.344  -4.253  0.00  0.00    -0.360 N 
HETATM   15  C           1     -18.075  -9.452  -3.216  0.00  0.00     0.114 A 
HETATM   16  H           1     -17.202 -10.805  -4.658  0.00  0.00     0.166 HD
ENDBRANCH   9  10
ENDBRANCH   5   9
ENDBRANCH   1   5
BRANCH   2  17
HETATM   17  C           1     -20.476  -6.297  -5.257  0.00  0.00     0.275 C 
BRANCH  17  18
HETATM   18  C           1     -20.328  -4.904  -5.855  0.00  0.00     0.053 C 
BRANCH  18  19
HETATM   19  C           1     -19.429  -4.971  -7.082  0.00  0.00     0.076 C 
BRANCH  19  20
HETATM   20  S           1     -20.292  -4.251  -8.506  0.00  0.00    -0.173 SA
HETATM   21  C           1     -21.797  -3.776  -7.608  0.00  0.00     0.089 C 
ENDBRANCH  19  20
ENDBRANCH  18  19
ENDBRANCH  17  18
BRANCH  17  22
HETATM   22  N           1     -20.751  -7.284  -6.351  0.00  0.00    -0.066 N 
HETATM   23  H           1     -19.932  -7.925  -6.457  0.00  0.00     0.275 HD
HETATM   24  H           1     -21.601  -7.844  -6.110  0.00  0.00     0.275 HD
HETATM   25  H           1     -20.912  -6.774  -7.249  0.00  0.00     0.275 HD
ENDBRANCH  17  22
ENDBRANCH   2  17
TORSDOF 9
ENDMDL
MODEL 8
REMARK VINA RESULT:      -5.4      4.262      8.300
REMARK  9 active torsions:
REMARK  status: ('A' for Active; 'I' for Inactive)
REMARK    1  A    between atoms: C_1  and  C_7 
REMARK    2  A    between atoms: C_1  and  C_11 
REMARK    3  A    between atoms: N_5  and  C_17 
REMARK       I    between atoms: N_5  and  C_6 
REMARK    4  A    between atoms: C_6  and  C_7 
REMARK    5  A    between atoms: C_7  and  N_14 
REMARK    6  A    between atoms: C_9  and  C_18 
REMARK    7  A    between atoms: C_11  and  S_12 
REMARK    8  A    between atoms: C_17  and  C_23 
REMARK    9  A    between atoms: C_17  and  C_18 
ROOT
HETATM    1  N           1     -20.876  -7.911  -5.602  0.00  0.00    -0.344 N 
HETATM    2  C           1     -20.513  -6.739  -6.207  0.00  0.00     0.249 C 
HETATM    3  O           1     -19.639  -6.734  -7.041  0.00  0.00    -0.271 OA
HETATM    4  H           1     -21.609  -8.483  -6.005  0.00  0.00     0.163 HD
ENDROOT
BRANCH   1   5
HETATM    5  C           1     -20.214  -8.335  -4.384  0.00  0.00     0.191 C 
BRANCH   5   6
HETATM    6  C           1     -19.063  -9.250  -4.730  0.00  0.00     0.197 C 
HETATM    7  O           1     -18.072  -9.321  -3.970  0.00  0.00    -0.646 OA
HETATM    8  O           1     -19.101  -9.934  -5.775  0.00  0.00    -0.646 OA
ENDBRANCH   5   6
BRANCH   5   9
HETATM    9  C           1     -21.206  -9.079  -3.500  0.00  0.00     0.094 C 
BRANCH   9  10
HETATM   10  C           1     -21.658  -8.180  -2.392  0.00  0.00     0.028 A 
HETATM   11  N           1     -22.040  -8.609  -1.147  0.00  0.00    -0.354 N 
HETATM   12  C           1     -22.358  -7.518  -0.487  0.00  0.00     0.180 A 
ATOM     13  HN          1     -22.070  -9.569  -0.806  1.00  0.00     0.166 HD
HETATM   14  N           1     -22.196  -6.403  -1.258  0.00  0.00    -0.360 N 
HETATM   15  C           1     -21.747  -6.811  -2.483  0.00  0.00     0.114 A 
HETATM   16  H           1     -22.382  -5.413  -0.963  0.00  0.00     0.166 HD
ENDBRANCH   9  10
ENDBRANCH   5   9
ENDBRANCH   1   5
BRANCH   2  17
HETATM   17  C           1     -21.204  -5.450  -5.832  0.00  0.00     0.275 C 
BRANCH  17  18
HETATM   18  C           1     -22.018  -4.947  -7.018  0.00  0.00     0.053 C 
BRANCH  18  19
HETATM   19  C           1     -21.313  -3.754  -7.648  0.00  0.00     0.076 C 
BRANCH  19  20
HETATM   20  S           1     -20.762  -4.190  -9.321  0.00  0.00    -0.173 SA
HETATM   21  C           1     -22.323  -3.788 -10.156  0.00  0.00     0.089 C 
ENDBRANCH  19  20
ENDBRANCH  18  19
ENDBRANCH  17  18
BRANCH  17  22
HETATM   22  N           1     -20.178  -4.423  -5.459  0.00  0.00    -0.066 N 
HETATM   23  H           1     -20.076  -3.732  -6.237  0.00  0.00     0.275 HD
HETATM   24  H           1     -20.482  -3.926  -4.591  0.00  0.00     0.275 HD
HETATM   25  H           1     -19.260  -4.893  -5.289  0.00  0.00     0.275 HD
ENDBRANCH  17  22
ENDBRANCH   2  17
TORSDOF 9
ENDMDL
MODEL 9
REMARK VINA RESULT:      -5.3      5.667      7.790
REMARK  9 active torsions:
REMARK  status: ('A' for Active; 'I' for Inactive)
REMARK    1  A    between atoms: C_1  and  C_7 
REMARK    2  A    between atoms: C_1  and  C_11 
REMARK    3  A    between atoms: N_5  and  C_17 
REMARK       I    between atoms: N_5  and  C_6 
REMARK    4  A    between atoms: C_6  and  C_7 
REMARK    5  A    between atoms: C_7  and  N_14 
REMARK    6  A    between atoms: C_9  and  C_18 
REMARK    7  A    between atoms: C_11  and  S_12 
REMARK    8  A    between atoms: C_17  and  C_23 
REMARK    9  A    between atoms: C_17  and  C_18 
ROOT
HETATM    1  N           1     -21.816  -7.060  -4.128  0.00  0.00    -0.344 N 
HETATM    2  C           1     -21.737  -6.707  -2.807  0.00  0.00     0.249 C 
HETATM    3  O           1     -21.690  -5.542  -2.494  0.00  0.00    -0.271 OA
HETATM    4  H           1     -22.721  -7.167  -4.570  0.00  0.00     0.163 HD
ENDROOT
BRANCH   1   5
HETATM    5  C           1     -20.605  -7.279  -4.894  0.00  0.00     0.191 C 
BRANCH   5   6
HETATM    6  C           1     -20.647  -6.446  -6.151  0.00  0.00     0.197 C 
HETATM    7  O           1     -19.801  -6.632  -7.053  0.00  0.00    -0.646 OA
HETATM    8  O           1     -21.527  -5.570  -6.292  0.00  0.00    -0.646 OA
ENDBRANCH   5   6
BRANCH   5   9
HETATM    9  C           1     -20.500  -8.753  -5.264  0.00  0.00     0.094 C 
BRANCH   9  10
HETATM   10  C           1     -19.069  -9.186  -5.184  0.00  0.00     0.028 A 
HETATM   11  N           1     -18.253  -9.382  -6.268  0.00  0.00    -0.354 N 
HETATM   12  C           1     -17.095  -9.751  -5.769  0.00  0.00     0.180 A 
ATOM     13  HN          1     -18.492  -9.266  -7.253  1.00  0.00     0.166 HD
HETATM   14  N           1     -17.133  -9.800  -4.404  0.00  0.00    -0.360 N 
HETATM   15  C           1     -18.393  -9.440  -4.014  0.00  0.00     0.114 A 
HETATM   16  H           1     -16.339 -10.066  -3.771  0.00  0.00     0.166 HD
ENDBRANCH   9  10
ENDBRANCH   5   9
ENDBRANCH   1   5
BRANCH   2  17
HETATM   17  C           1     -21.709  -7.776  -1.742  0.00  0.00     0.275 C 
BRANCH  17  18
HETATM   18  C           1     -22.503  -7.306  -0.530  0.00  0.00     0.053 C 
BRANCH  18  19
HETATM   19  C           1     -22.535  -8.411   0.517  0.00  0.00     0.076 C 
BRANCH  19  20
HETATM   20  S           1     -23.167  -9.938  -0.233  0.00  0.00    -0.173 SA
HETATM   21  C           1     -21.784 -10.997   0.276  0.00  0.00     0.089 C 
ENDBRANCH  19  20
ENDBRANCH  18  19
ENDBRANCH  17  18
BRANCH  17  22
HETATM   22  N           1     -20.290  -8.040  -1.337  0.00  0.00    -0.066 N 
HETATM   23  H           1     -19.968  -7.291  -0.683  0.00  0.00     0.275 HD
HETATM   24  H           1     -20.231  -8.968  -0.858  0.00  0.00     0.275 HD
HETATM   25  H           1     -19.681  -8.047  -2.186  0.00  0.00     0.275 HD
ENDBRANCH  17  22
ENDBRANCH   2  17
TORSDOF 9
ENDMDL
