MODEL 1
REMARK VINA RESULT:      -6.0      0.000      0.000
REMARK  9 active torsions:
REMARK  status: ('A' for Active; 'I' for Inactive)
REMARK       I    between atoms: C_2  and  N_15 
REMARK    1  A    between atoms: C_2  and  C_8 
REMARK    2  A    between atoms: C_8  and  C_12 
REMARK    3  A    between atoms: C_8  and  N_10 
REMARK    4  A    between atoms: O_11  and  C_12 
REMARK    5  A    between atoms: C_13  and  C_21 
REMARK    6  A    between atoms: C_13  and  C_18 
REMARK    7  A    between atoms: N_15  and  C_19 
REMARK    8  A    between atoms: C_18  and  C_19 
REMARK    9  A    between atoms: C_19  and  C_20 
ROOT
HETATM    1  C           1     -34.166  -2.186 -11.679  0.00  0.00     0.251 C 
HETATM    2  H           1     -35.664  -2.432 -13.084  0.00  0.00     0.163 HD
HETATM    3  O           1     -33.655  -1.417 -10.899  0.00  0.00    -0.271 OA
HETATM    4  N           1     -35.236  -1.787 -12.432  0.00  0.00    -0.345 N 
ENDROOT
BRANCH   4   5
HETATM    5  C           1     -35.759  -0.442 -12.294  0.00  0.00     0.186 C 
BRANCH   5   6
HETATM    6  C           1     -36.475  -0.042 -13.577  0.00  0.00     0.046 C 
BRANCH   6   7
HETATM    7  C           1     -35.450   0.235 -14.668  0.00  0.00     0.116 C 
BRANCH   7   8
HETATM    8  C           1     -35.607  -0.776 -15.777  0.00  0.00     0.172 C 
HETATM    9  O           1     -36.205  -0.461 -16.829  0.00  0.00    -0.648 OA
HETATM   10  O           1     -35.141  -1.927 -15.644  0.00  0.00    -0.648 OA
ENDBRANCH   7   8
ENDBRANCH   6   7
ENDBRANCH   5   6
BRANCH   5  11
HETATM   11  C           1     -36.729  -0.394 -11.139  0.00  0.00     0.196 C 
HETATM   12  O           1     -37.793  -1.046 -11.191  0.00  0.00    -0.646 OA
HETATM   13  O           1     -36.467   0.297 -10.131  0.00  0.00    -0.646 OA
ENDBRANCH   5  11
ENDBRANCH   4   5
BRANCH   1  14
HETATM   14  C           1     -33.622  -3.586 -11.822  0.00  0.00     0.297 C 
BRANCH  14  15
HETATM   15  C           1     -34.372  -4.312 -12.931  0.00  0.00     0.206 C 
BRANCH  15  16
HETATM   16  O           1     -33.777  -4.019 -14.167  0.00  0.00    -0.398 OA
HETATM   17  H           1     -34.221  -4.539 -14.815  0.00  0.00     0.209 HD
ENDBRANCH  15  16
ENDBRANCH  14  15
BRANCH  14  18
HETATM   18  N           1     -33.803  -4.327 -10.530  0.00  0.00    -0.064 N 
HETATM   19  H           1     -34.725  -4.074 -10.109  0.00  0.00     0.275 HD
HETATM   20  H           1     -33.774  -5.355 -10.712  0.00  0.00     0.275 HD
HETATM   21  H           1     -33.034  -4.067  -9.870  0.00  0.00     0.275 HD
ENDBRANCH  14  18
ENDBRANCH   1  14
TORSDOF 9
ENDMDL
MODEL 2
REMARK VINA RESULT:      -5.9     11.622     13.304
REMARK  9 active torsions:
REMARK  status: ('A' for Active; 'I' for Inactive)
REMARK       I    between atoms: C_2  and  N_15 
REMARK    1  A    between atoms: C_2  and  C_8 
REMARK    2  A    between atoms: C_8  and  C_12 
REMARK    3  A    between atoms: C_8  and  N_10 
REMARK    4  A    between atoms: O_11  and  C_12 
REMARK    5  A    between atoms: C_13  and  C_21 
REMARK    6  A    between atoms: C_13  and  C_18 
REMARK    7  A    between atoms: N_15  and  C_19 
REMARK    8  A    between atoms: C_18  and  C_19 
REMARK    9  A    between atoms: C_19  and  C_20 
ROOT
HETATM    1  C           1     -21.574  -4.405  -8.086  0.00  0.00     0.251 C 
HETATM    2  H           1     -22.112  -5.758  -9.555  0.00  0.00     0.163 HD
HETATM    3  O           1     -21.620  -3.248  -7.739  0.00  0.00    -0.271 OA
HETATM    4  N           1     -22.151  -4.790  -9.266  0.00  0.00    -0.345 N 
ENDROOT
BRANCH   4   5
HETATM    5  C           1     -22.818  -3.810 -10.100  0.00  0.00     0.186 C 
BRANCH   5   6
HETATM    6  C           1     -22.571  -4.139 -11.566  0.00  0.00     0.046 C 
BRANCH   6   7
HETATM    7  C           1     -22.590  -2.855 -12.386  0.00  0.00     0.116 C 
BRANCH   7   8
HETATM    8  C           1     -23.699  -2.926 -13.406  0.00  0.00     0.172 C 
HETATM    9  O           1     -23.424  -3.044 -14.620  0.00  0.00    -0.648 OA
HETATM   10  O           1     -24.892  -2.866 -13.038  0.00  0.00    -0.648 OA
ENDBRANCH   7   8
ENDBRANCH   6   7
ENDBRANCH   5   6
BRANCH   5  11
HETATM   11  C           1     -24.301  -3.838  -9.821  0.00  0.00     0.196 C 
HETATM   12  O           1     -24.920  -4.923  -9.837  0.00  0.00    -0.646 OA
HETATM   13  O           1     -24.911  -2.774  -9.573  0.00  0.00    -0.646 OA
ENDBRANCH   5  11
ENDBRANCH   4   5
BRANCH   1  14
HETATM   14  C           1     -20.880  -5.425  -7.217  0.00  0.00     0.297 C 
BRANCH  14  15
HETATM   15  C           1     -21.734  -5.713  -5.989  0.00  0.00     0.206 C 
BRANCH  15  16
HETATM   16  O           1     -23.014  -5.172  -6.172  0.00  0.00    -0.398 OA
HETATM   17  H           1     -22.904  -4.243  -6.289  0.00  0.00     0.209 HD
ENDBRANCH  15  16
ENDBRANCH  14  15
BRANCH  14  18
HETATM   18  N           1     -19.548  -4.889  -6.784  0.00  0.00    -0.064 N 
HETATM   19  H           1     -19.286  -5.307  -5.863  0.00  0.00     0.275 HD
HETATM   20  H           1     -18.825  -5.135  -7.497  0.00  0.00     0.275 HD
HETATM   21  H           1     -19.605  -3.849  -6.691  0.00  0.00     0.275 HD
ENDBRANCH  14  18
ENDBRANCH   1  14
TORSDOF 9
ENDMDL
MODEL 3
REMARK VINA RESULT:      -5.7     12.222     14.637
REMARK  9 active torsions:
REMARK  status: ('A' for Active; 'I' for Inactive)
REMARK       I    between atoms: C_2  and  N_15 
REMARK    1  A    between atoms: C_2  and  C_8 
REMARK    2  A    between atoms: C_8  and  C_12 
REMARK    3  A    between atoms: C_8  and  N_10 
REMARK    4  A    between atoms: O_11  and  C_12 
REMARK    5  A    between atoms: C_13  and  C_21 
REMARK    6  A    between atoms: C_13  and  C_18 
REMARK    7  A    between atoms: N_15  and  C_19 
REMARK    8  A    between atoms: C_18  and  C_19 
REMARK    9  A    between atoms: C_19  and  C_20 
ROOT
HETATM    1  C           1     -22.539  -3.768 -11.455  0.00  0.00     0.251 C 
HETATM    2  H           1     -22.260  -2.278 -10.047  0.00  0.00     0.163 HD
HETATM    3  O           1     -22.558  -4.962 -11.644  0.00  0.00    -0.271 OA
HETATM    4  N           1     -22.276  -3.277 -10.205  0.00  0.00    -0.345 N 
ENDROOT
BRANCH   4   5
HETATM    5  C           1     -22.021  -4.188  -9.107  0.00  0.00     0.186 C 
BRANCH   5   6
HETATM    6  C           1     -20.823  -3.697  -8.306  0.00  0.00     0.046 C 
BRANCH   6   7
HETATM    7  C           1     -19.752  -4.779  -8.277  0.00  0.00     0.116 C 
BRANCH   7   8
HETATM    8  C           1     -19.755  -5.455  -6.927  0.00  0.00     0.172 C 
HETATM    9  O           1     -19.733  -6.702  -6.853  0.00  0.00    -0.648 OA
HETATM   10  O           1     -19.780  -4.767  -5.884  0.00  0.00    -0.648 OA
ENDBRANCH   7   8
ENDBRANCH   6   7
ENDBRANCH   5   6
BRANCH   5  11
HETATM   11  C           1     -23.235  -4.249  -8.211  0.00  0.00     0.196 C 
HETATM   12  O           1     -24.365  -3.982  -8.672  0.00  0.00    -0.646 OA
HETATM   13  O           1     -23.109  -4.565  -7.008  0.00  0.00    -0.646 OA
ENDBRANCH   5  11
ENDBRANCH   4   5
BRANCH   1  14
HETATM   14  C           1     -22.804  -2.819 -12.598  0.00  0.00     0.297 C 
BRANCH  14  15
HETATM   15  C           1     -24.306  -2.681 -12.806  0.00  0.00     0.206 C 
BRANCH  15  16
HETATM   16  O           1     -24.979  -3.091 -11.647  0.00  0.00    -0.398 OA
HETATM   17  H           1     -25.678  -2.476 -11.504  0.00  0.00     0.209 HD
ENDBRANCH  15  16
ENDBRANCH  14  15
BRANCH  14  18
HETATM   18  N           1     -22.174  -3.355 -13.849  0.00  0.00    -0.064 N 
HETATM   19  H           1     -21.990  -4.378 -13.737  0.00  0.00     0.275 HD
HETATM   20  H           1     -22.819  -3.204 -14.656  0.00  0.00     0.275 HD
HETATM   21  H           1     -21.271  -2.857 -14.026  0.00  0.00     0.275 HD
ENDBRANCH  14  18
ENDBRANCH   1  14
TORSDOF 9
ENDMDL
MODEL 4
REMARK VINA RESULT:      -5.7     11.022     13.288
REMARK  9 active torsions:
REMARK  status: ('A' for Active; 'I' for Inactive)
REMARK       I    between atoms: C_2  and  N_15 
REMARK    1  A    between atoms: C_2  and  C_8 
REMARK    2  A    between atoms: C_8  and  C_12 
REMARK    3  A    between atoms: C_8  and  N_10 
REMARK    4  A    between atoms: O_11  and  C_12 
REMARK    5  A    between atoms: C_13  and  C_21 
REMARK    6  A    between atoms: C_13  and  C_18 
REMARK    7  A    between atoms: N_15  and  C_19 
REMARK    8  A    between atoms: C_18  and  C_19 
REMARK    9  A    between atoms: C_19  and  C_20 
ROOT
HETATM    1  C           1     -23.596  -3.269 -13.132  0.00  0.00     0.251 C 
HETATM    2  H           1     -22.526  -2.645 -11.475  0.00  0.00     0.163 HD
HETATM    3  O           1     -24.431  -4.042 -13.539  0.00  0.00    -0.271 OA
HETATM    4  N           1     -23.225  -3.293 -11.815  0.00  0.00    -0.345 N 
ENDROOT
BRANCH   4   5
HETATM    5  C           1     -23.834  -4.245 -10.908  0.00  0.00     0.186 C 
BRANCH   5   6
HETATM    6  C           1     -22.745  -5.063 -10.225  0.00  0.00     0.046 C 
BRANCH   6   7
HETATM    7  C           1     -21.450  -4.263 -10.197  0.00  0.00     0.116 C 
BRANCH   7   8
HETATM    8  C           1     -20.766  -4.458  -8.866  0.00  0.00     0.172 C 
HETATM    9  O           1     -19.750  -3.788  -8.581  0.00  0.00    -0.648 OA
HETATM   10  O           1     -21.215  -5.290  -8.048  0.00  0.00    -0.648 OA
ENDBRANCH   7   8
ENDBRANCH   6   7
ENDBRANCH   5   6
BRANCH   5  11
HETATM   11  C           1     -24.636  -3.505  -9.865  0.00  0.00     0.196 C 
HETATM   12  O           1     -25.766  -3.056 -10.150  0.00  0.00    -0.646 OA
HETATM   13  O           1     -24.169  -3.342  -8.717  0.00  0.00    -0.646 OA
ENDBRANCH   5  11
ENDBRANCH   4   5
BRANCH   1  14
HETATM   14  C           1     -22.962  -2.277 -14.077  0.00  0.00     0.297 C 
BRANCH  14  15
HETATM   15  C           1     -24.038  -1.368 -14.656  0.00  0.00     0.206 C 
BRANCH  15  16
HETATM   16  O           1     -25.165  -1.387 -13.823  0.00  0.00    -0.398 OA
HETATM   17  H           1     -25.843  -1.845 -14.290  0.00  0.00     0.209 HD
ENDBRANCH  15  16
ENDBRANCH  14  15
BRANCH  14  18
HETATM   18  N           1     -22.278  -3.014 -15.190  0.00  0.00    -0.064 N 
HETATM   19  H           1     -21.623  -2.367 -15.685  0.00  0.00     0.275 HD
HETATM   20  H           1     -21.741  -3.818 -14.796  0.00  0.00     0.275 HD
HETATM   21  H           1     -22.994  -3.369 -15.864  0.00  0.00     0.275 HD
ENDBRANCH  14  18
ENDBRANCH   1  14
TORSDOF 9
ENDMDL
MODEL 5
REMARK VINA RESULT:      -5.0     12.846     14.961
REMARK  9 active torsions:
REMARK  status: ('A' for Active; 'I' for Inactive)
REMARK       I    between atoms: C_2  and  N_15 
REMARK    1  A    between atoms: C_2  and  C_8 
REMARK    2  A    between atoms: C_8  and  C_12 
REMARK    3  A    between atoms: C_8  and  N_10 
REMARK    4  A    between atoms: O_11  and  C_12 
REMARK    5  A    between atoms: C_13  and  C_21 
REMARK    6  A    between atoms: C_13  and  C_18 
REMARK    7  A    between atoms: N_15  and  C_19 
REMARK    8  A    between atoms: C_18  and  C_19 
REMARK    9  A    between atoms: C_19  and  C_20 
ROOT
HETATM    1  C           1     -21.052  -6.046  -6.415  0.00  0.00     0.251 C 
HETATM    2  H           1     -22.418  -4.491  -6.438  0.00  0.00     0.163 HD
HETATM    3  O           1     -20.346  -6.755  -7.094  0.00  0.00    -0.271 OA
HETATM    4  N           1     -21.827  -5.085  -7.006  0.00  0.00    -0.345 N 
ENDROOT
BRANCH   4   5
HETATM    5  C           1     -21.801  -4.916  -8.446  0.00  0.00     0.186 C 
BRANCH   5   6
HETATM    6  C           1     -22.909  -3.958  -8.864  0.00  0.00     0.046 C 
BRANCH   6   7
HETATM    7  C           1     -23.395  -4.322 -10.261  0.00  0.00     0.116 C 
BRANCH   7   8
HETATM    8  C           1     -24.521  -3.400 -10.658  0.00  0.00     0.172 C 
HETATM    9  O           1     -25.431  -3.137  -9.842  0.00  0.00    -0.648 OA
HETATM   10  O           1     -24.545  -2.900 -11.803  0.00  0.00    -0.648 OA
ENDBRANCH   7   8
ENDBRANCH   6   7
ENDBRANCH   5   6
BRANCH   5  11
HETATM   11  C           1     -20.464  -4.354  -8.863  0.00  0.00     0.196 C 
HETATM   12  O           1     -19.882  -3.523  -8.134  0.00  0.00    -0.646 OA
HETATM   13  O           1     -19.940  -4.720  -9.937  0.00  0.00    -0.646 OA
ENDBRANCH   5  11
ENDBRANCH   4   5
BRANCH   1  14
HETATM   14  C           1     -21.079  -6.221  -4.917  0.00  0.00     0.297 C 
BRANCH  14  15
HETATM   15  C           1     -20.479  -7.573  -4.552  0.00  0.00     0.206 C 
BRANCH  15  16
HETATM   16  O           1     -21.271  -8.597  -5.090  0.00  0.00    -0.398 OA
HETATM   17  H           1     -20.682  -9.256  -5.417  0.00  0.00     0.209 HD
ENDBRANCH  15  16
ENDBRANCH  14  15
BRANCH  14  18
HETATM   18  N           1     -22.496  -6.156  -4.431  0.00  0.00    -0.064 N 
HETATM   19  H           1     -22.730  -7.038  -3.921  0.00  0.00     0.275 HD
HETATM   20  H           1     -22.606  -5.342  -3.787  0.00  0.00     0.275 HD
HETATM   21  H           1     -23.139  -6.045  -5.248  0.00  0.00     0.275 HD
ENDBRANCH  14  18
ENDBRANCH   1  14
TORSDOF 9
ENDMDL
MODEL 6
REMARK VINA RESULT:      -4.9     14.699     17.489
REMARK  9 active torsions:
REMARK  status: ('A' for Active; 'I' for Inactive)
REMARK       I    between atoms: C_2  and  N_15 
REMARK    1  A    between atoms: C_2  and  C_8 
REMARK    2  A    between atoms: C_8  and  C_12 
REMARK    3  A    between atoms: C_8  and  N_10 
REMARK    4  A    between atoms: O_11  and  C_12 
REMARK    5  A    between atoms: C_13  and  C_21 
REMARK    6  A    between atoms: C_13  and  C_18 
REMARK    7  A    between atoms: N_15  and  C_19 
REMARK    8  A    between atoms: C_18  and  C_19 
REMARK    9  A    between atoms: C_19  and  C_20 
ROOT
HETATM    1  C           1     -20.787  -4.744  -6.078  0.00  0.00     0.251 C 
HETATM    2  H           1     -22.157  -6.247  -6.457  0.00  0.00     0.163 HD
HETATM    3  O           1     -19.930  -4.352  -5.321  0.00  0.00    -0.271 OA
HETATM    4  N           1     -21.440  -5.918  -5.823  0.00  0.00    -0.345 N 
ENDROOT
BRANCH   4   5
HETATM    5  C           1     -21.105  -6.694  -4.645  0.00  0.00     0.186 C 
BRANCH   5   6
HETATM    6  C           1     -22.289  -6.701  -3.688  0.00  0.00     0.046 C 
BRANCH   6   7
HETATM    7  C           1     -21.866  -6.104  -2.352  0.00  0.00     0.116 C 
BRANCH   7   8
HETATM    8  C           1     -21.968  -7.156  -1.275  0.00  0.00     0.172 C 
HETATM    9  O           1     -21.101  -8.054  -1.195  0.00  0.00    -0.648 OA
HETATM   10  O           1     -22.918  -7.131  -0.464  0.00  0.00    -0.648 OA
ENDBRANCH   7   8
ENDBRANCH   6   7
ENDBRANCH   5   6
BRANCH   5  11
HETATM   11  C           1     -20.778  -8.111  -5.051  0.00  0.00     0.196 C 
HETATM   12  O           1     -21.463  -9.060  -4.614  0.00  0.00    -0.646 OA
HETATM   13  O           1     -19.823  -8.334  -5.826  0.00  0.00    -0.646 OA
ENDBRANCH   5  11
ENDBRANCH   4   5
BRANCH   1  14
HETATM   14  C           1     -21.136  -3.937  -7.304  0.00  0.00     0.297 C 
BRANCH  14  15
HETATM   15  C           1     -22.348  -4.552  -7.990  0.00  0.00     0.206 C 
BRANCH  15  16
HETATM   16  O           1     -23.495  -4.304  -7.223  0.00  0.00    -0.398 OA
HETATM   17  H           1     -24.063  -3.764  -7.745  0.00  0.00     0.209 HD
ENDBRANCH  15  16
ENDBRANCH  14  15
BRANCH  14  18
HETATM   18  N           1     -19.972  -3.938  -8.251  0.00  0.00    -0.064 N 
HETATM   19  H           1     -20.049  -3.120  -8.898  0.00  0.00     0.275 HD
HETATM   20  H           1     -19.083  -3.871  -7.709  0.00  0.00     0.275 HD
HETATM   21  H           1     -19.977  -4.823  -8.807  0.00  0.00     0.275 HD
ENDBRANCH  14  18
ENDBRANCH   1  14
TORSDOF 9
ENDMDL
MODEL 7
REMARK VINA RESULT:      -4.6     16.086     18.691
REMARK  9 active torsions:
REMARK  status: ('A' for Active; 'I' for Inactive)
REMARK       I    between atoms: C_2  and  N_15 
REMARK    1  A    between atoms: C_2  and  C_8 
REMARK    2  A    between atoms: C_8  and  C_12 
REMARK    3  A    between atoms: C_8  and  N_10 
REMARK    4  A    between atoms: O_11  and  C_12 
REMARK    5  A    between atoms: C_13  and  C_21 
REMARK    6  A    between atoms: C_13  and  C_18 
REMARK    7  A    between atoms: N_15  and  C_19 
REMARK    8  A    between atoms: C_18  and  C_19 
REMARK    9  A    between atoms: C_19  and  C_20 
ROOT
HETATM    1  C           1     -20.271  -9.108  -4.465  0.00  0.00     0.251 C 
HETATM    2  H           1     -19.557  -7.172  -4.626  0.00  0.00     0.163 HD
HETATM    3  O           1     -21.234  -9.790  -4.204  0.00  0.00    -0.271 OA
HETATM    4  N           1     -20.363  -7.744  -4.406  0.00  0.00    -0.345 N 
ENDROOT
BRANCH   4   5
HETATM    5  C           1     -21.615  -7.116  -4.030  0.00  0.00     0.186 C 
BRANCH   5   6
HETATM    6  C           1     -21.369  -6.134  -2.893  0.00  0.00     0.046 C 
BRANCH   6   7
HETATM    7  C           1     -22.318  -6.442  -1.742  0.00  0.00     0.116 C 
BRANCH   7   8
HETATM    8  C           1     -21.783  -7.607  -0.946  0.00  0.00     0.172 C 
HETATM    9  O           1     -20.593  -7.964  -1.083  0.00  0.00    -0.648 OA
HETATM   10  O           1     -22.530  -8.215  -0.150  0.00  0.00    -0.648 OA
ENDBRANCH   7   8
ENDBRANCH   6   7
ENDBRANCH   5   6
BRANCH   5  11
HETATM   11  C           1     -22.185  -6.379  -5.218  0.00  0.00     0.196 C 
HETATM   12  O           1     -23.366  -5.974  -5.193  0.00  0.00    -0.646 OA
HETATM   13  O           1     -21.474  -6.174  -6.226  0.00  0.00    -0.646 OA
ENDBRANCH   5  11
ENDBRANCH   4   5
BRANCH   1  14
HETATM   14  C           1     -18.969  -9.760  -4.857  0.00  0.00     0.297 C 
BRANCH  14  15
HETATM   15  C           1     -17.926  -9.503  -3.776  0.00  0.00     0.206 C 
BRANCH  15  16
HETATM   16  O           1     -18.570  -9.249  -2.557  0.00  0.00    -0.398 OA
HETATM   17  H           1     -18.019  -8.656  -2.075  0.00  0.00     0.209 HD
ENDBRANCH  15  16
ENDBRANCH  14  15
BRANCH  14  18
HETATM   18  N           1     -18.492  -9.185  -6.157  0.00  0.00    -0.064 N 
HETATM   19  H           1     -18.166  -8.203  -6.006  0.00  0.00     0.275 HD
HETATM   20  H           1     -17.702  -9.761  -6.523  0.00  0.00     0.275 HD
HETATM   21  H           1     -19.277  -9.189  -6.848  0.00  0.00     0.275 HD
ENDBRANCH  14  18
ENDBRANCH   1  14
TORSDOF 9
ENDMDL
MODEL 8
REMARK VINA RESULT:      -4.5     25.231     26.166
REMARK  9 active torsions:
REMARK  status: ('A' for Active; 'I' for Inactive)
REMARK       I    between atoms: C_2  and  N_15 
REMARK    1  A    between atoms: C_2  and  C_8 
REMARK    2  A    between atoms: C_8  and  C_12 
REMARK    3  A    between atoms: C_8  and  N_10 
REMARK    4  A    between atoms: O_11  and  C_12 
REMARK    5  A    between atoms: C_13  and  C_21 
REMARK    6  A    between atoms: C_13  and  C_18 
REMARK    7  A    between atoms: N_15  and  C_19 
REMARK    8  A    between atoms: C_18  and  C_19 
REMARK    9  A    between atoms: C_19  and  C_20 
ROOT
HETATM    1  C           1     -12.781   4.886 -21.694  0.00  0.00     0.251 C 
HETATM    2  H           1     -12.739   6.512 -20.415  0.00  0.00     0.163 HD
HETATM    3  O           1     -12.121   4.178 -22.418  0.00  0.00    -0.271 OA
HETATM    4  N           1     -12.187   5.919 -21.022  0.00  0.00    -0.345 N 
ENDROOT
BRANCH   4   5
HETATM    5  C           1     -10.767   6.164 -21.176  0.00  0.00     0.186 C 
BRANCH   5   6
HETATM    6  C           1     -10.544   7.608 -21.605  0.00  0.00     0.046 C 
BRANCH   6   7
HETATM    7  C           1     -11.050   8.546 -20.517  0.00  0.00     0.116 C 
BRANCH   7   8
HETATM    8  C           1     -12.089   9.475 -21.095  0.00  0.00     0.172 C 
HETATM    9  O           1     -11.828  10.688 -21.244  0.00  0.00    -0.648 OA
HETATM   10  O           1     -13.210   9.031 -21.424  0.00  0.00    -0.648 OA
ENDBRANCH   7   8
ENDBRANCH   6   7
ENDBRANCH   5   6
BRANCH   5  11
HETATM   11  C           1     -10.067   5.915 -19.862  0.00  0.00     0.196 C 
HETATM   12  O           1      -8.826   6.034 -19.783  0.00  0.00    -0.646 OA
HETATM   13  O           1     -10.730   5.591 -18.853  0.00  0.00    -0.646 OA
ENDBRANCH   5  11
ENDBRANCH   4   5
BRANCH   1  14
HETATM   14  C           1     -14.259   4.631 -21.533  0.00  0.00     0.297 C 
BRANCH  14  15
HETATM   15  C           1     -15.030   5.429 -22.578  0.00  0.00     0.206 C 
BRANCH  15  16
HETATM   16  O           1     -14.618   6.768 -22.541  0.00  0.00    -0.398 OA
HETATM   17  H           1     -15.379   7.294 -22.723  0.00  0.00     0.209 HD
ENDBRANCH  15  16
ENDBRANCH  14  15
BRANCH  14  18
HETATM   18  N           1     -14.693   5.055 -20.161  0.00  0.00    -0.064 N 
HETATM   19  H           1     -14.664   6.097 -20.093  0.00  0.00     0.275 HD
HETATM   20  H           1     -15.667   4.722 -19.986  0.00  0.00     0.275 HD
HETATM   21  H           1     -14.049   4.641 -19.449  0.00  0.00     0.275 HD
ENDBRANCH  14  18
ENDBRANCH   1  14
TORSDOF 9
ENDMDL
MODEL 9
REMARK VINA RESULT:      -4.3     17.185     18.593
REMARK  9 active torsions:
REMARK  status: ('A' for Active; 'I' for Inactive)
REMARK       I    between atoms: C_2  and  N_15 
REMARK    1  A    between atoms: C_2  and  C_8 
REMARK    2  A    between atoms: C_8  and  C_12 
REMARK    3  A    between atoms: C_8  and  N_10 
REMARK    4  A    between atoms: O_11  and  C_12 
REMARK    5  A    between atoms: C_13  and  C_21 
REMARK    6  A    between atoms: C_13  and  C_18 
REMARK    7  A    between atoms: N_15  and  C_19 
REMARK    8  A    between atoms: C_18  and  C_19 
REMARK    9  A    between atoms: C_19  and  C_20 
ROOT
HETATM    1  C           1     -21.604  -8.790  -2.105  0.00  0.00     0.251 C 
HETATM    2  H           1     -20.702  -7.154  -2.996  0.00  0.00     0.163 HD
HETATM    3  O           1     -21.962  -9.933  -2.266  0.00  0.00    -0.271 OA
HETATM    4  N           1     -21.002  -8.111  -3.130  0.00  0.00    -0.345 N 
ENDROOT
BRANCH   4   5
HETATM    5  C           1     -20.793  -8.764  -4.408  0.00  0.00     0.186 C 
BRANCH   5   6
HETATM    6  C           1     -21.318  -7.872  -5.525  0.00  0.00     0.046 C 
BRANCH   6   7
HETATM    7  C           1     -21.119  -6.411  -5.145  0.00  0.00     0.116 C 
BRANCH   7   8
HETATM    8  C           1     -20.295  -5.722  -6.205  0.00  0.00     0.172 C 
HETATM    9  O           1     -19.920  -6.356  -7.215  0.00  0.00    -0.648 OA
HETATM   10  O           1     -19.987  -4.518  -6.074  0.00  0.00    -0.648 OA
ENDBRANCH   7   8
ENDBRANCH   6   7
ENDBRANCH   5   6
BRANCH   5  11
HETATM   11  C           1     -19.318  -9.011  -4.612  0.00  0.00     0.196 C 
HETATM   12  O           1     -18.556  -9.092  -3.625  0.00  0.00    -0.646 OA
HETATM   13  O           1     -18.859  -9.135  -5.768  0.00  0.00    -0.646 OA
ENDBRANCH   5  11
ENDBRANCH   4   5
BRANCH   1  14
HETATM   14  C           1     -21.821  -8.111  -0.776  0.00  0.00     0.297 C 
BRANCH  14  15
HETATM   15  C           1     -22.831  -8.905   0.043  0.00  0.00     0.206 C 
BRANCH  15  16
HETATM   16  O           1     -23.670  -8.022   0.736  0.00  0.00    -0.398 OA
HETATM   17  H           1     -23.192  -7.726   1.492  0.00  0.00     0.209 HD
ENDBRANCH  15  16
ENDBRANCH  14  15
BRANCH  14  18
HETATM   18  N           1     -22.343  -6.723  -1.002  0.00  0.00    -0.064 N 
HETATM   19  H           1     -23.202  -6.575  -0.425  0.00  0.00     0.275 HD
HETATM   20  H           1     -21.615  -6.028  -0.727  0.00  0.00     0.275 HD
HETATM   21  H           1     -22.579  -6.600  -2.014  0.00  0.00     0.275 HD
ENDBRANCH  14  18
ENDBRANCH   1  14
TORSDOF 9
ENDMDL
