MODEL 1
REMARK VINA RESULT:      -6.9      0.000      0.000
REMARK  9 active torsions:
REMARK  status: ('A' for Active; 'I' for Inactive)
REMARK       I    between atoms: N_2  and  C_3 
REMARK    1  A    between atoms: C_3  and  C_4 
REMARK    2  A    between atoms: C_4  and  C_5 
REMARK    3  A    between atoms: C_5  and  C_6 
REMARK    4  A    between atoms: C_5  and  N_20 
REMARK       I    between atoms: C_6  and  N_7 
REMARK    5  A    between atoms: N_7  and  C_11 
REMARK    6  A    between atoms: C_10  and  C_11 
REMARK    7  A    between atoms: C_11  and  C_12 
REMARK    8  A    between atoms: C_12  and  C_13 
REMARK    9  A    between atoms: C_13  and  C_15 
REMARK       I    between atoms: N_14  and  C_15 
ROOT
HETATM    1  C           1     -21.656  -4.560  -7.705  0.00  0.00     0.249 C 
HETATM    2  N           1     -22.250  -4.820  -8.911  0.00  0.00    -0.345 N 
HETATM    3  O           1     -21.569  -3.423  -7.309  0.00  0.00    -0.271 OA
HETATM    4  H           1     -22.324  -5.773  -9.245  0.00  0.00     0.163 HD
ENDROOT
BRANCH   1   5
HETATM    5  C           1     -21.113  -5.695  -6.873  0.00  0.00     0.283 C 
BRANCH   5   6
HETATM    6  C           1     -20.836  -5.200  -5.459  0.00  0.00     0.145 C 
BRANCH   6   7
HETATM    7  C           1     -21.114  -6.307  -4.473  0.00  0.00     0.217 C 
HETATM    8  O           1     -20.605  -7.393  -4.625  0.00  0.00    -0.274 OA
HETATM    9  N           1     -21.943  -6.083  -3.407  0.00  0.00    -0.370 N 
HETATM   10  H           1     -22.130  -6.826  -2.745  0.00  0.00     0.159 HD
HETATM   11  H           1     -22.369  -5.174  -3.280  0.00  0.00     0.159 HD
ENDBRANCH   6   7
ENDBRANCH   5   6
BRANCH   5  12
HETATM   12  N           1     -19.838  -6.196  -7.484  0.00  0.00    -0.066 N 
HETATM   13  H           1     -19.889  -6.103  -8.524  0.00  0.00     0.275 HD
HETATM   14  H           1     -19.034  -5.634  -7.124  0.00  0.00     0.275 HD
HETATM   15  H           1     -19.702  -7.201  -7.232  0.00  0.00     0.275 HD
ENDBRANCH   5  12
ENDBRANCH   1   5
BRANCH   2  16
HETATM   16  C           1     -22.774  -3.731  -9.712  0.00  0.00     0.186 C 
BRANCH  16  17
HETATM   17  C           1     -24.281  -3.807  -9.740  0.00  0.00     0.196 C 
HETATM   18  O           1     -24.847  -4.902  -9.951  0.00  0.00    -0.646 OA
HETATM   19  O           1     -24.963  -2.778  -9.549  0.00  0.00    -0.646 OA
ENDBRANCH  16  17
BRANCH  16  20
HETATM   20  C           1     -22.233  -3.838 -11.131  0.00  0.00     0.045 C 
BRANCH  20  21
HETATM   21  C           1     -22.503  -2.538 -11.878  0.00  0.00     0.105 C 
BRANCH  21  22
HETATM   22  C           1     -23.251  -2.837 -13.155  0.00  0.00     0.215 C 
HETATM   23  N           1     -22.560  -3.117 -14.302  0.00  0.00    -0.370 N 
HETATM   24  H           1     -21.548  -3.124 -14.295  0.00  0.00     0.159 HD
HETATM   25  H           1     -23.061  -3.317 -15.159  0.00  0.00     0.159 HD
HETATM   26  O           1     -24.459  -2.829 -13.163  0.00  0.00    -0.274 OA
ENDBRANCH  21  22
ENDBRANCH  20  21
ENDBRANCH  16  20
ENDBRANCH   2  16
TORSDOF 9
ENDMDL
MODEL 2
REMARK VINA RESULT:      -6.7     11.912     15.178
REMARK  9 active torsions:
REMARK  status: ('A' for Active; 'I' for Inactive)
REMARK       I    between atoms: N_2  and  C_3 
REMARK    1  A    between atoms: C_3  and  C_4 
REMARK    2  A    between atoms: C_4  and  C_5 
REMARK    3  A    between atoms: C_5  and  C_6 
REMARK    4  A    between atoms: C_5  and  N_20 
REMARK       I    between atoms: C_6  and  N_7 
REMARK    5  A    between atoms: N_7  and  C_11 
REMARK    6  A    between atoms: C_10  and  C_11 
REMARK    7  A    between atoms: C_11  and  C_12 
REMARK    8  A    between atoms: C_12  and  C_13 
REMARK    9  A    between atoms: C_13  and  C_15 
REMARK       I    between atoms: N_14  and  C_15 
ROOT
HETATM    1  C           1     -35.653  -0.715 -12.542  0.00  0.00     0.249 C 
HETATM    2  N           1     -35.127  -1.971 -12.690  0.00  0.00    -0.345 N 
HETATM    3  O           1     -35.876  -0.281 -11.437  0.00  0.00    -0.271 OA
HETATM    4  H           1     -34.940  -2.336 -13.616  0.00  0.00     0.163 HD
ENDROOT
BRANCH   1   5
HETATM    5  C           1     -35.951   0.126 -13.758  0.00  0.00     0.283 C 
BRANCH   5   6
HETATM    6  C           1     -37.389  -0.114 -14.200  0.00  0.00     0.145 C 
BRANCH   6   7
HETATM    7  C           1     -37.542   0.272 -15.651  0.00  0.00     0.217 C 
HETATM    8  O           1     -37.387  -0.558 -16.516  0.00  0.00    -0.274 OA
HETATM    9  N           1     -37.856   1.561 -15.987  0.00  0.00    -0.370 N 
HETATM   10  H           1     -37.958   1.820 -16.960  0.00  0.00     0.159 HD
HETATM   11  H           1     -37.985   2.256 -15.263  0.00  0.00     0.159 HD
ENDBRANCH   6   7
ENDBRANCH   5   6
BRANCH   5  12
HETATM   12  N           1     -35.018  -0.255 -14.869  0.00  0.00    -0.066 N 
HETATM   13  H           1     -35.168  -1.259 -15.123  0.00  0.00     0.275 HD
HETATM   14  H           1     -35.205   0.346 -15.703  0.00  0.00     0.275 HD
HETATM   15  H           1     -34.030  -0.121 -14.556  0.00  0.00     0.275 HD
ENDBRANCH   5  12
ENDBRANCH   1   5
BRANCH   2  16
HETATM   16  C           1     -34.839  -2.780 -11.522  0.00  0.00     0.186 C 
BRANCH  16  17
HETATM   17  C           1     -33.402  -2.573 -11.110  0.00  0.00     0.196 C 
HETATM   18  O           1     -32.512  -3.337 -11.543  0.00  0.00    -0.646 OA
HETATM   19  O           1     -33.101  -1.637 -10.338  0.00  0.00    -0.646 OA
ENDBRANCH  16  17
BRANCH  16  20
HETATM   20  C           1     -35.067  -4.249 -11.851  0.00  0.00     0.045 C 
BRANCH  20  21
HETATM   21  C           1     -35.273  -5.033 -10.563  0.00  0.00     0.105 C 
BRANCH  21  22
HETATM   22  C           1     -34.417  -6.276 -10.587  0.00  0.00     0.215 C 
HETATM   23  N           1     -33.208  -6.260 -11.229  0.00  0.00    -0.370 N 
HETATM   24  H           1     -32.889  -5.416 -11.688  0.00  0.00     0.159 HD
HETATM   25  H           1     -32.633  -7.093 -11.245  0.00  0.00     0.159 HD
HETATM   26  O           1     -34.797  -7.283 -10.039  0.00  0.00    -0.274 OA
ENDBRANCH  21  22
ENDBRANCH  20  21
ENDBRANCH  16  20
ENDBRANCH   2  16
TORSDOF 9
ENDMDL
MODEL 3
REMARK VINA RESULT:      -6.7     11.884     13.798
REMARK  9 active torsions:
REMARK  status: ('A' for Active; 'I' for Inactive)
REMARK       I    between atoms: N_2  and  C_3 
REMARK    1  A    between atoms: C_3  and  C_4 
REMARK    2  A    between atoms: C_4  and  C_5 
REMARK    3  A    between atoms: C_5  and  C_6 
REMARK    4  A    between atoms: C_5  and  N_20 
REMARK       I    between atoms: C_6  and  N_7 
REMARK    5  A    between atoms: N_7  and  C_11 
REMARK    6  A    between atoms: C_10  and  C_11 
REMARK    7  A    between atoms: C_11  and  C_12 
REMARK    8  A    between atoms: C_12  and  C_13 
REMARK    9  A    between atoms: C_13  and  C_15 
REMARK       I    between atoms: N_14  and  C_15 
ROOT
HETATM    1  C           1     -34.195  -2.659 -12.012  0.00  0.00     0.249 C 
HETATM    2  N           1     -35.021  -1.757 -12.628  0.00  0.00    -0.345 N 
HETATM    3  O           1     -33.507  -2.309 -11.084  0.00  0.00    -0.271 OA
HETATM    4  H           1     -35.599  -2.049 -13.406  0.00  0.00     0.163 HD
ENDROOT
BRANCH   1   5
HETATM    5  C           1     -34.147  -4.088 -12.493  0.00  0.00     0.283 C 
BRANCH   5   6
HETATM    6  C           1     -33.206  -4.891 -11.604  0.00  0.00     0.145 C 
BRANCH   6   7
HETATM    7  C           1     -34.000  -5.897 -10.808  0.00  0.00     0.217 C 
HETATM    8  O           1     -35.015  -5.557 -10.246  0.00  0.00    -0.274 OA
HETATM    9  N           1     -33.572  -7.194 -10.722  0.00  0.00    -0.370 N 
HETATM   10  H           1     -34.104  -7.869 -10.188  0.00  0.00     0.159 HD
HETATM   11  H           1     -32.721  -7.478 -11.192  0.00  0.00     0.159 HD
ENDBRANCH   6   7
ENDBRANCH   5   6
BRANCH   5  12
HETATM   12  N           1     -33.648  -4.122 -13.907  0.00  0.00    -0.066 N 
HETATM   13  H           1     -33.398  -5.103 -14.167  0.00  0.00     0.275 HD
HETATM   14  H           1     -34.395  -3.772 -14.549  0.00  0.00     0.275 HD
HETATM   15  H           1     -32.802  -3.514 -13.993  0.00  0.00     0.275 HD
ENDBRANCH   5  12
ENDBRANCH   1   5
BRANCH   2  16
HETATM   16  C           1     -35.070  -0.383 -12.166  0.00  0.00     0.186 C 
BRANCH  16  17
HETATM   17  C           1     -36.358  -0.151 -11.416  0.00  0.00     0.196 C 
HETATM   18  O           1     -36.371   0.599 -10.415  0.00  0.00    -0.646 OA
HETATM   19  O           1     -37.412  -0.705 -11.795  0.00  0.00    -0.646 OA
ENDBRANCH  16  17
BRANCH  16  20
HETATM   20  C           1     -35.000   0.557 -13.362  0.00  0.00     0.045 C 
BRANCH  20  21
HETATM   21  C           1     -35.398  -0.194 -14.625  0.00  0.00     0.105 C 
BRANCH  21  22
HETATM   22  C           1     -36.602   0.470 -15.248  0.00  0.00     0.215 C 
HETATM   23  N           1     -37.823   0.385 -14.636  0.00  0.00    -0.370 N 
HETATM   24  H           1     -37.919  -0.124 -13.766  0.00  0.00     0.159 HD
HETATM   25  H           1     -38.630   0.830 -15.053  0.00  0.00     0.159 HD
HETATM   26  O           1     -36.487   1.077 -16.286  0.00  0.00    -0.274 OA
ENDBRANCH  21  22
ENDBRANCH  20  21
ENDBRANCH  16  20
ENDBRANCH   2  16
TORSDOF 9
ENDMDL
MODEL 4
REMARK VINA RESULT:      -6.5      9.033     12.380
REMARK  9 active torsions:
REMARK  status: ('A' for Active; 'I' for Inactive)
REMARK       I    between atoms: N_2  and  C_3 
REMARK    1  A    between atoms: C_3  and  C_4 
REMARK    2  A    between atoms: C_4  and  C_5 
REMARK    3  A    between atoms: C_5  and  C_6 
REMARK    4  A    between atoms: C_5  and  N_20 
REMARK       I    between atoms: C_6  and  N_7 
REMARK    5  A    between atoms: N_7  and  C_11 
REMARK    6  A    between atoms: C_10  and  C_11 
REMARK    7  A    between atoms: C_11  and  C_12 
REMARK    8  A    between atoms: C_12  and  C_13 
REMARK    9  A    between atoms: C_13  and  C_15 
REMARK       I    between atoms: N_14  and  C_15 
ROOT
HETATM    1  C           1     -28.728  -6.286 -18.717  0.00  0.00     0.249 C 
HETATM    2  N           1     -27.701  -7.147 -18.998  0.00  0.00    -0.345 N 
HETATM    3  O           1     -28.648  -5.125 -19.043  0.00  0.00    -0.271 OA
HETATM    4  H           1     -27.767  -8.120 -18.726  0.00  0.00     0.163 HD
ENDROOT
BRANCH   1   5
HETATM    5  C           1     -29.959  -6.787 -18.003  0.00  0.00     0.283 C 
BRANCH   5   6
HETATM    6  C           1     -30.188  -5.959 -16.745  0.00  0.00     0.145 C 
BRANCH   6   7
HETATM    7  C           1     -31.433  -5.122 -16.913  0.00  0.00     0.217 C 
HETATM    8  O           1     -31.342  -3.923 -17.036  0.00  0.00    -0.274 OA
HETATM    9  N           1     -32.664  -5.720 -16.925  0.00  0.00    -0.370 N 
HETATM   10  H           1     -33.498  -5.160 -17.038  0.00  0.00     0.159 HD
HETATM   11  H           1     -32.739  -6.725 -16.821  0.00  0.00     0.159 HD
ENDBRANCH   6   7
ENDBRANCH   5   6
BRANCH   5  12
HETATM   12  N           1     -29.764  -8.226 -17.624  0.00  0.00    -0.066 N 
HETATM   13  H           1     -30.241  -8.839 -18.324  0.00  0.00     0.275 HD
HETATM   14  H           1     -28.743  -8.446 -17.607  0.00  0.00     0.275 HD
HETATM   15  H           1     -30.173  -8.395 -16.678  0.00  0.00     0.275 HD
ENDBRANCH   5  12
ENDBRANCH   1   5
BRANCH   2  16
HETATM   16  C           1     -26.518  -6.667 -19.686  0.00  0.00     0.186 C 
BRANCH  16  17
HETATM   17  C           1     -26.188  -7.598 -20.826  0.00  0.00     0.196 C 
HETATM   18  O           1     -25.060  -7.550 -21.365  0.00  0.00    -0.646 OA
HETATM   19  O           1     -27.040  -8.417 -21.233  0.00  0.00    -0.646 OA
ENDBRANCH  16  17
BRANCH  16  20
HETATM   20  C           1     -25.348  -6.620 -18.712  0.00  0.00     0.045 C 
BRANCH  20  21
HETATM   21  C           1     -25.868  -6.367 -17.304  0.00  0.00     0.105 C 
BRANCH  21  22
HETATM   22  C           1     -25.077  -7.193 -16.319  0.00  0.00     0.215 C 
HETATM   23  N           1     -24.009  -7.932 -16.749  0.00  0.00    -0.370 N 
HETATM   24  H           1     -23.750  -7.925 -17.728  0.00  0.00     0.159 HD
HETATM   25  H           1     -23.478  -8.486 -16.089  0.00  0.00     0.159 HD
HETATM   26  O           1     -25.387  -7.201 -15.151  0.00  0.00    -0.274 OA
ENDBRANCH  21  22
ENDBRANCH  20  21
ENDBRANCH  16  20
ENDBRANCH   2  16
TORSDOF 9
ENDMDL
MODEL 5
REMARK VINA RESULT:      -6.3     10.957     12.692
REMARK  9 active torsions:
REMARK  status: ('A' for Active; 'I' for Inactive)
REMARK       I    between atoms: N_2  and  C_3 
REMARK    1  A    between atoms: C_3  and  C_4 
REMARK    2  A    between atoms: C_4  and  C_5 
REMARK    3  A    between atoms: C_5  and  C_6 
REMARK    4  A    between atoms: C_5  and  N_20 
REMARK       I    between atoms: C_6  and  N_7 
REMARK    5  A    between atoms: N_7  and  C_11 
REMARK    6  A    between atoms: C_10  and  C_11 
REMARK    7  A    between atoms: C_11  and  C_12 
REMARK    8  A    between atoms: C_12  and  C_13 
REMARK    9  A    between atoms: C_13  and  C_15 
REMARK       I    between atoms: N_14  and  C_15 
ROOT
HETATM    1  C           1     -26.592  -6.314 -18.345  0.00  0.00     0.249 C 
HETATM    2  N           1     -27.881  -6.553 -18.738  0.00  0.00    -0.345 N 
HETATM    3  O           1     -26.348  -6.080 -17.185  0.00  0.00    -0.271 OA
HETATM    4  H           1     -28.087  -6.749 -19.709  0.00  0.00     0.163 HD
ENDROOT
BRANCH   1   5
HETATM    5  C           1     -25.476  -6.345 -19.361  0.00  0.00     0.283 C 
BRANCH   5   6
HETATM    6  C           1     -26.066  -6.471 -20.759  0.00  0.00     0.145 C 
BRANCH   6   7
HETATM    7  C           1     -25.999  -7.910 -21.208  0.00  0.00     0.217 C 
HETATM    8  O           1     -24.994  -8.334 -21.729  0.00  0.00    -0.274 OA
HETATM    9  N           1     -27.076  -8.735 -21.025  0.00  0.00    -0.370 N 
HETATM   10  H           1     -27.031  -9.700 -21.326  0.00  0.00     0.159 HD
HETATM   11  H           1     -27.917  -8.380 -20.590  0.00  0.00     0.159 HD
ENDBRANCH   6   7
ENDBRANCH   5   6
BRANCH   5  12
HETATM   12  N           1     -24.585  -7.521 -19.087  0.00  0.00    -0.066 N 
HETATM   13  H           1     -24.097  -7.801 -19.968  0.00  0.00     0.275 HD
HETATM   14  H           1     -23.877  -7.260 -18.365  0.00  0.00     0.275 HD
HETATM   15  H           1     -25.161  -8.321 -18.740  0.00  0.00     0.275 HD
ENDBRANCH   5  12
ENDBRANCH   1   5
BRANCH   2  16
HETATM   16  C           1     -28.954  -6.524 -17.763  0.00  0.00     0.186 C 
BRANCH  16  17
HETATM   17  C           1     -29.636  -7.870 -17.727  0.00  0.00     0.196 C 
HETATM   18  O           1     -30.279  -8.271 -18.722  0.00  0.00    -0.646 OA
HETATM   19  O           1     -29.557  -8.584 -16.705  0.00  0.00    -0.646 OA
ENDBRANCH  16  17
BRANCH  16  20
HETATM   20  C           1     -29.964  -5.452 -18.150  0.00  0.00     0.045 C 
BRANCH  20  21
HETATM   21  C           1     -31.103  -5.437 -17.138  0.00  0.00     0.105 C 
BRANCH  21  22
HETATM   22  C           1     -31.806  -4.103 -17.192  0.00  0.00     0.215 C 
HETATM   23  N           1     -33.090  -3.988 -16.733  0.00  0.00    -0.370 N 
HETATM   24  H           1     -33.568  -4.798 -16.358  0.00  0.00     0.159 HD
HETATM   25  H           1     -33.563  -3.093 -16.768  0.00  0.00     0.159 HD
HETATM   26  O           1     -31.236  -3.137 -17.639  0.00  0.00    -0.274 OA
ENDBRANCH  21  22
ENDBRANCH  20  21
ENDBRANCH  16  20
ENDBRANCH   2  16
TORSDOF 9
ENDMDL
MODEL 6
REMARK VINA RESULT:      -6.1      1.832      6.937
REMARK  9 active torsions:
REMARK  status: ('A' for Active; 'I' for Inactive)
REMARK       I    between atoms: N_2  and  C_3 
REMARK    1  A    between atoms: C_3  and  C_4 
REMARK    2  A    between atoms: C_4  and  C_5 
REMARK    3  A    between atoms: C_5  and  C_6 
REMARK    4  A    between atoms: C_5  and  N_20 
REMARK       I    between atoms: C_6  and  N_7 
REMARK    5  A    between atoms: N_7  and  C_11 
REMARK    6  A    between atoms: C_10  and  C_11 
REMARK    7  A    between atoms: C_11  and  C_12 
REMARK    8  A    between atoms: C_12  and  C_13 
REMARK    9  A    between atoms: C_13  and  C_15 
REMARK       I    between atoms: N_14  and  C_15 
ROOT
HETATM    1  C           1     -23.056  -4.286  -9.155  0.00  0.00     0.249 C 
HETATM    2  N           1     -22.225  -5.251  -8.653  0.00  0.00    -0.345 N 
HETATM    3  O           1     -22.880  -3.127  -8.863  0.00  0.00    -0.271 OA
HETATM    4  H           1     -22.371  -6.223  -8.897  0.00  0.00     0.163 HD
ENDROOT
BRANCH   1   5
HETATM    5  C           1     -24.191  -4.671 -10.073  0.00  0.00     0.283 C 
BRANCH   5   6
HETATM    6  C           1     -23.706  -4.645 -11.517  0.00  0.00     0.145 C 
BRANCH   6   7
HETATM    7  C           1     -24.035  -3.310 -12.136  0.00  0.00     0.217 C 
HETATM    8  O           1     -25.112  -3.135 -12.658  0.00  0.00    -0.274 OA
HETATM    9  N           1     -23.116  -2.296 -12.108  0.00  0.00    -0.370 N 
HETATM   10  H           1     -23.337  -1.401 -12.524  0.00  0.00     0.159 HD
HETATM   11  H           1     -22.214  -2.443 -11.672  0.00  0.00     0.159 HD
ENDBRANCH   6   7
ENDBRANCH   5   6
BRANCH   5  12
HETATM   12  N           1     -25.318  -3.695  -9.908  0.00  0.00    -0.066 N 
HETATM   13  H           1     -26.221  -4.160 -10.154  0.00  0.00     0.275 HD
HETATM   14  H           1     -25.354  -3.369  -8.916  0.00  0.00     0.275 HD
HETATM   15  H           1     -25.166  -2.876 -10.539  0.00  0.00     0.275 HD
ENDBRANCH   5  12
ENDBRANCH   1   5
BRANCH   2  16
HETATM   16  C           1     -21.134  -4.883  -7.772  0.00  0.00     0.186 C 
BRANCH  16  17
HETATM   17  C           1     -19.909  -4.567  -8.594  0.00  0.00     0.196 C 
HETATM   18  O           1     -19.891  -4.833  -9.816  0.00  0.00    -0.646 OA
HETATM   19  O           1     -18.913  -4.038  -8.056  0.00  0.00    -0.646 OA
ENDBRANCH  16  17
BRANCH  16  20
HETATM   20  C           1     -20.829  -6.040  -6.830  0.00  0.00     0.045 C 
BRANCH  20  21
HETATM   21  C           1     -20.691  -5.515  -5.407  0.00  0.00     0.105 C 
BRANCH  21  22
HETATM   22  C           1     -21.723  -6.172  -4.524  0.00  0.00     0.215 C 
HETATM   23  N           1     -21.354  -6.696  -3.315  0.00  0.00    -0.370 N 
HETATM   24  H           1     -20.390  -6.643  -3.012  0.00  0.00     0.159 HD
HETATM   25  H           1     -22.047  -7.138  -2.722  0.00  0.00     0.159 HD
HETATM   26  O           1     -22.874  -6.236  -4.885  0.00  0.00    -0.274 OA
ENDBRANCH  21  22
ENDBRANCH  20  21
ENDBRANCH  16  20
ENDBRANCH   2  16
TORSDOF 9
ENDMDL
MODEL 7
REMARK VINA RESULT:      -6.0      2.422      7.868
REMARK  9 active torsions:
REMARK  status: ('A' for Active; 'I' for Inactive)
REMARK       I    between atoms: N_2  and  C_3 
REMARK    1  A    between atoms: C_3  and  C_4 
REMARK    2  A    between atoms: C_4  and  C_5 
REMARK    3  A    between atoms: C_5  and  C_6 
REMARK    4  A    between atoms: C_5  and  N_20 
REMARK       I    between atoms: C_6  and  N_7 
REMARK    5  A    between atoms: N_7  and  C_11 
REMARK    6  A    between atoms: C_10  and  C_11 
REMARK    7  A    between atoms: C_11  and  C_12 
REMARK    8  A    between atoms: C_12  and  C_13 
REMARK    9  A    between atoms: C_13  and  C_15 
REMARK       I    between atoms: N_14  and  C_15 
ROOT
HETATM    1  C           1     -21.126  -5.073  -6.941  0.00  0.00     0.249 C 
HETATM    2  N           1     -21.333  -6.316  -6.405  0.00  0.00    -0.345 N 
HETATM    3  O           1     -20.500  -4.246  -6.321  0.00  0.00    -0.271 OA
HETATM    4  H           1     -21.857  -7.010  -6.924  0.00  0.00     0.163 HD
ENDROOT
BRANCH   1   5
HETATM    5  C           1     -21.679  -4.737  -8.304  0.00  0.00     0.283 C 
BRANCH   5   6
HETATM    6  C           1     -20.529  -4.446  -9.260  0.00  0.00     0.145 C 
BRANCH   6   7
HETATM    7  C           1     -21.079  -4.147 -10.633  0.00  0.00     0.217 C 
HETATM    8  O           1     -22.125  -4.638 -10.985  0.00  0.00    -0.274 OA
HETATM    9  N           1     -20.392  -3.319 -11.480  0.00  0.00    -0.370 N 
HETATM   10  H           1     -20.760  -3.118 -12.401  0.00  0.00     0.159 HD
HETATM   11  H           1     -19.515  -2.909 -11.185  0.00  0.00     0.159 HD
ENDBRANCH   6   7
ENDBRANCH   5   6
BRANCH   5  12
HETATM   12  N           1     -22.561  -3.528  -8.200  0.00  0.00    -0.066 N 
HETATM   13  H           1     -22.883  -3.414  -7.212  0.00  0.00     0.275 HD
HETATM   14  H           1     -22.024  -2.680  -8.492  0.00  0.00     0.275 HD
HETATM   15  H           1     -23.390  -3.648  -8.824  0.00  0.00     0.275 HD
ENDBRANCH   5  12
ENDBRANCH   1   5
BRANCH   2  16
HETATM   16  C           1     -20.802  -6.640  -5.096  0.00  0.00     0.186 C 
BRANCH  16  17
HETATM   17  C           1     -20.084  -7.966  -5.160  0.00  0.00     0.196 C 
HETATM   18  O           1     -20.309  -8.840  -4.295  0.00  0.00    -0.646 OA
HETATM   19  O           1     -19.265  -8.191  -6.077  0.00  0.00    -0.646 OA
ENDBRANCH  16  17
BRANCH  16  20
HETATM   20  C           1     -21.943  -6.727  -4.091  0.00  0.00     0.045 C 
BRANCH  20  21
HETATM   21  C           1     -21.523  -6.065  -2.786  0.00  0.00     0.105 C 
BRANCH  21  22
HETATM   22  C           1     -21.819  -6.993  -1.633  0.00  0.00     0.215 C 
HETATM   23  N           1     -21.064  -8.120  -1.451  0.00  0.00    -0.370 N 
HETATM   24  H           1     -20.308  -8.331  -2.089  0.00  0.00     0.159 HD
HETATM   25  H           1     -21.262  -8.743  -0.678  0.00  0.00     0.159 HD
HETATM   26  O           1     -22.722  -6.741  -0.871  0.00  0.00    -0.274 OA
ENDBRANCH  21  22
ENDBRANCH  20  21
ENDBRANCH  16  20
ENDBRANCH   2  16
TORSDOF 9
ENDMDL
MODEL 8
REMARK VINA RESULT:      -6.0      9.081     11.522
REMARK  9 active torsions:
REMARK  status: ('A' for Active; 'I' for Inactive)
REMARK       I    between atoms: N_2  and  C_3 
REMARK    1  A    between atoms: C_3  and  C_4 
REMARK    2  A    between atoms: C_4  and  C_5 
REMARK    3  A    between atoms: C_5  and  C_6 
REMARK    4  A    between atoms: C_5  and  N_20 
REMARK       I    between atoms: C_6  and  N_7 
REMARK    5  A    between atoms: N_7  and  C_11 
REMARK    6  A    between atoms: C_10  and  C_11 
REMARK    7  A    between atoms: C_11  and  C_12 
REMARK    8  A    between atoms: C_12  and  C_13 
REMARK    9  A    between atoms: C_13  and  C_15 
REMARK       I    between atoms: N_14  and  C_15 
ROOT
HETATM    1  C           1     -27.000  -6.772 -16.555  0.00  0.00     0.249 C 
HETATM    2  N           1     -27.752  -6.561 -17.679  0.00  0.00    -0.345 N 
HETATM    3  O           1     -27.500  -7.284 -15.581  0.00  0.00    -0.271 OA
HETATM    4  H           1     -27.334  -6.132 -18.495  0.00  0.00     0.163 HD
ENDROOT
BRANCH   1   5
HETATM    5  C           1     -25.546  -6.368 -16.533  0.00  0.00     0.283 C 
BRANCH   5   6
HETATM    6  C           1     -24.701  -7.482 -17.138  0.00  0.00     0.145 C 
BRANCH   6   7
HETATM    7  C           1     -24.330  -7.121 -18.555  0.00  0.00     0.217 C 
HETATM    8  O           1     -25.124  -6.540 -19.258  0.00  0.00    -0.274 OA
HETATM    9  N           1     -23.096  -7.453 -19.046  0.00  0.00    -0.370 N 
HETATM   10  H           1     -22.847  -7.211 -19.996  0.00  0.00     0.159 HD
HETATM   11  H           1     -22.432  -7.940 -18.457  0.00  0.00     0.159 HD
ENDBRANCH   6   7
ENDBRANCH   5   6
BRANCH   5  12
HETATM   12  N           1     -25.116  -6.128 -15.116  0.00  0.00    -0.066 N 
HETATM   13  H           1     -25.565  -6.836 -14.490  0.00  0.00     0.275 HD
HETATM   14  H           1     -24.077  -6.214 -15.048  0.00  0.00     0.275 HD
HETATM   15  H           1     -25.408  -5.169 -14.821  0.00  0.00     0.275 HD
ENDBRANCH   5  12
ENDBRANCH   1   5
BRANCH   2  16
HETATM   16  C           1     -29.149  -6.949 -17.701  0.00  0.00     0.186 C 
BRANCH  16  17
HETATM   17  C           1     -29.391  -7.886 -18.859  0.00  0.00     0.196 C 
HETATM   18  O           1     -28.484  -8.094 -19.694  0.00  0.00    -0.646 OA
HETATM   19  O           1     -30.496  -8.456 -18.983  0.00  0.00    -0.646 OA
ENDBRANCH  16  17
BRANCH  16  20
HETATM   20  C           1     -30.019  -5.710 -17.859  0.00  0.00     0.045 C 
BRANCH  20  21
HETATM   21  C           1     -30.831  -5.492 -16.589  0.00  0.00     0.105 C 
BRANCH  21  22
HETATM   22  C           1     -31.892  -4.449 -16.842  0.00  0.00     0.215 C 
HETATM   23  N           1     -33.203  -4.726 -16.561  0.00  0.00    -0.370 N 
HETATM   24  H           1     -33.460  -5.629 -16.184  0.00  0.00     0.159 HD
HETATM   25  H           1     -33.915  -4.027 -16.731  0.00  0.00     0.159 HD
HETATM   26  O           1     -31.584  -3.371 -17.292  0.00  0.00    -0.274 OA
ENDBRANCH  21  22
ENDBRANCH  20  21
ENDBRANCH  16  20
ENDBRANCH   2  16
TORSDOF 9
ENDMDL
MODEL 9
REMARK VINA RESULT:      -5.9      2.695      7.829
REMARK  9 active torsions:
REMARK  status: ('A' for Active; 'I' for Inactive)
REMARK       I    between atoms: N_2  and  C_3 
REMARK    1  A    between atoms: C_3  and  C_4 
REMARK    2  A    between atoms: C_4  and  C_5 
REMARK    3  A    between atoms: C_5  and  C_6 
REMARK    4  A    between atoms: C_5  and  N_20 
REMARK       I    between atoms: C_6  and  N_7 
REMARK    5  A    between atoms: N_7  and  C_11 
REMARK    6  A    between atoms: C_10  and  C_11 
REMARK    7  A    between atoms: C_11  and  C_12 
REMARK    8  A    between atoms: C_12  and  C_13 
REMARK    9  A    between atoms: C_13  and  C_15 
REMARK       I    between atoms: N_14  and  C_15 
ROOT
HETATM    1  C           1     -20.649  -4.797  -6.110  0.00  0.00     0.249 C 
HETATM    2  N           1     -21.356  -5.911  -5.745  0.00  0.00    -0.345 N 
HETATM    3  O           1     -19.755  -4.392  -5.406  0.00  0.00    -0.271 OA
HETATM    4  H           1     -22.105  -6.252  -6.334  0.00  0.00     0.163 HD
ENDROOT
BRANCH   1   5
HETATM    5  C           1     -20.987  -4.077  -7.393  0.00  0.00     0.283 C 
BRANCH   5   6
HETATM    6  C           1     -22.069  -4.848  -8.138  0.00  0.00     0.145 C 
BRANCH   6   7
HETATM    7  C           1     -22.840  -3.903  -9.027  0.00  0.00     0.217 C 
HETATM    8  O           1     -22.315  -3.435 -10.010  0.00  0.00    -0.274 OA
HETATM    9  N           1     -24.133  -3.576  -8.720  0.00  0.00    -0.370 N 
HETATM   10  H           1     -24.650  -2.943  -9.316  0.00  0.00     0.159 HD
HETATM   11  H           1     -24.571  -3.968  -7.896  0.00  0.00     0.159 HD
ENDBRANCH   6   7
ENDBRANCH   5   6
BRANCH   5  12
HETATM   12  N           1     -19.760  -3.983  -8.250  0.00  0.00    -0.066 N 
HETATM   13  H           1     -19.982  -3.448  -9.120  0.00  0.00     0.275 HD
HETATM   14  H           1     -19.003  -3.491  -7.723  0.00  0.00     0.275 HD
HETATM   15  H           1     -19.439  -4.944  -8.505  0.00  0.00     0.275 HD
ENDBRANCH   5  12
ENDBRANCH   1   5
BRANCH   2  16
HETATM   16  C           1     -21.032  -6.605  -4.514  0.00  0.00     0.186 C 
BRANCH  16  17
HETATM   17  C           1     -20.588  -8.011  -4.832  0.00  0.00     0.196 C 
HETATM   18  O           1     -20.968  -8.562  -5.888  0.00  0.00    -0.646 OA
HETATM   19  O           1     -19.839  -8.625  -4.041  0.00  0.00    -0.646 OA
ENDBRANCH  16  17
BRANCH  16  20
HETATM   20  C           1     -22.262  -6.650  -3.617  0.00  0.00     0.045 C 
BRANCH  20  21
HETATM   21  C           1     -21.917  -6.072  -2.251  0.00  0.00     0.105 C 
BRANCH  21  22
HETATM   22  C           1     -21.995  -7.162  -1.209  0.00  0.00     0.215 C 
HETATM   23  N           1     -21.038  -8.139  -1.169  0.00  0.00    -0.370 N 
HETATM   24  H           1     -20.278  -8.132  -1.838  0.00  0.00     0.159 HD
HETATM   25  H           1     -21.090  -8.870  -0.471  0.00  0.00     0.159 HD
HETATM   26  O           1     -22.902  -7.171  -0.411  0.00  0.00    -0.274 OA
ENDBRANCH  21  22
ENDBRANCH  20  21
ENDBRANCH  16  20
ENDBRANCH   2  16
TORSDOF 9
ENDMDL
