MODEL 1
REMARK VINA RESULT:      -6.7      0.000      0.000
REMARK  8 active torsions:
REMARK  status: ('A' for Active; 'I' for Inactive)
REMARK    1  A    between atoms: C_3  and  C_9 
REMARK    2  A    between atoms: C_3  and  C_21 
REMARK    3  A    between atoms: C_3  and  N_25 
REMARK    4  A    between atoms: C_7  and  C_8 
REMARK    5  A    between atoms: C_8  and  C_23 
REMARK    6  A    between atoms: C_10  and  C_21 
REMARK    7  A    between atoms: N_11  and  C_23 
REMARK    8  A    between atoms: C_23  and  C_24 
REMARK       I    between atoms: C_24  and  N_25 
ROOT
HETATM    1  H           1     -34.070  -0.522 -13.229  0.00  0.00     0.163 HD
HETATM    2  O           1     -34.683  -3.238 -13.740  0.00  0.00    -0.271 OA
HETATM    3  C           1     -34.476  -2.505 -12.802  0.00  0.00     0.249 C 
HETATM    4  N           1     -34.770  -1.172 -12.894  0.00  0.00    -0.344 N 
ENDROOT
BRANCH   4   5
HETATM    5  C           1     -36.084  -0.691 -12.513  0.00  0.00     0.191 C 
BRANCH   5   6
HETATM    6  C           1     -36.884  -0.381 -13.755  0.00  0.00     0.197 C 
HETATM    7  O           1     -36.364   0.264 -14.690  0.00  0.00    -0.646 OA
HETATM    8  O           1     -38.069  -0.772 -13.848  0.00  0.00    -0.646 OA
ENDBRANCH   5   6
BRANCH   5   9
HETATM    9  C           1     -35.938   0.573 -11.675  0.00  0.00     0.094 C 
BRANCH   9  10
HETATM   10  C           1     -36.493   0.331 -10.307  0.00  0.00     0.028 A 
HETATM   11  C           1     -37.022  -0.863  -9.878  0.00  0.00     0.114 A 
HETATM   12  N           1     -37.403  -0.638  -8.584  0.00  0.00    -0.360 N 
HETATM   13  C           1     -37.097   0.660  -8.287  0.00  0.00     0.180 A 
HETATM   14  H           1     -37.851  -1.334  -7.938  0.00  0.00     0.166 HD
HETATM   15  N           1     -36.546   1.271  -9.310  0.00  0.00    -0.354 N 
ATOM     16  HN          1     -36.226   2.238  -9.353  1.00  0.00     0.166 HD
ENDBRANCH   9  10
ENDBRANCH   5   9
ENDBRANCH   4   5
BRANCH   3  17
HETATM   17  C           1     -33.893  -3.063 -11.526  0.00  0.00     0.275 C 
BRANCH  17  18
HETATM   18  C           1     -34.885  -4.031 -10.893  0.00  0.00     0.046 C 
BRANCH  18  19
HETATM   19  C           1     -34.431  -5.462 -11.147  0.00  0.00    -0.020 C 
HETATM   20  C           1     -32.926  -5.483 -11.381  0.00  0.00     0.009 C 
HETATM   21  C           1     -34.768  -6.323  -9.937  0.00  0.00     0.009 C 
ENDBRANCH  18  19
ENDBRANCH  17  18
BRANCH  17  22
HETATM   22  N           1     -33.615  -1.939 -10.572  0.00  0.00    -0.066 N 
HETATM   23  H           1     -33.654  -2.299  -9.590  0.00  0.00     0.275 HD
HETATM   24  H           1     -34.333  -1.191 -10.696  0.00  0.00     0.275 HD
HETATM   25  H           1     -32.666  -1.547 -10.762  0.00  0.00     0.275 HD
ENDBRANCH  17  22
ENDBRANCH   3  17
TORSDOF 8
ENDMDL
MODEL 2
REMARK VINA RESULT:      -6.4     11.837     14.342
REMARK  8 active torsions:
REMARK  status: ('A' for Active; 'I' for Inactive)
REMARK    1  A    between atoms: C_3  and  C_9 
REMARK    2  A    between atoms: C_3  and  C_21 
REMARK    3  A    between atoms: C_3  and  N_25 
REMARK    4  A    between atoms: C_7  and  C_8 
REMARK    5  A    between atoms: C_8  and  C_23 
REMARK    6  A    between atoms: C_10  and  C_21 
REMARK    7  A    between atoms: N_11  and  C_23 
REMARK    8  A    between atoms: C_23  and  C_24 
REMARK       I    between atoms: C_24  and  N_25 
ROOT
HETATM    1  H           1     -23.722  -4.485  -7.290  0.00  0.00     0.163 HD
HETATM    2  O           1     -21.277  -3.143  -6.813  0.00  0.00    -0.271 OA
HETATM    3  C           1     -21.686  -4.129  -7.379  0.00  0.00     0.249 C 
HETATM    4  N           1     -22.963  -4.157  -7.872  0.00  0.00    -0.344 N 
ENDROOT
BRANCH   4   5
HETATM    5  C           1     -23.225  -3.714  -9.228  0.00  0.00     0.191 C 
BRANCH   5   6
HETATM    6  C           1     -24.712  -3.740  -9.485  0.00  0.00     0.197 C 
HETATM    7  O           1     -25.291  -4.827  -9.697  0.00  0.00    -0.646 OA
HETATM    8  O           1     -25.366  -2.674  -9.484  0.00  0.00    -0.646 OA
ENDBRANCH   5   6
BRANCH   5   9
HETATM    9  C           1     -22.524  -4.643 -10.209  0.00  0.00     0.094 C 
BRANCH   9  10
HETATM   10  C           1     -22.704  -4.125 -11.602  0.00  0.00     0.028 A 
HETATM   11  C           1     -21.848  -3.248 -12.226  0.00  0.00     0.114 A 
HETATM   12  N           1     -22.389  -3.048 -13.466  0.00  0.00    -0.360 N 
HETATM   13  C           1     -23.529  -3.796 -13.542  0.00  0.00     0.180 A 
HETATM   14  H           1     -21.999  -2.431 -14.221  0.00  0.00     0.166 HD
HETATM   15  N           1     -23.745  -4.458 -12.429  0.00  0.00    -0.354 N 
ATOM     16  HN          1     -24.522  -5.085 -12.224  1.00  0.00     0.166 HD
ENDBRANCH   9  10
ENDBRANCH   5   9
ENDBRANCH   4   5
BRANCH   3  17
HETATM   17  C           1     -20.788  -5.331  -7.541  0.00  0.00     0.275 C 
BRANCH  17  18
HETATM   18  C           1     -20.289  -5.782  -6.174  0.00  0.00     0.046 C 
BRANCH  18  19
HETATM   19  C           1     -21.427  -6.446  -5.412  0.00  0.00    -0.020 C 
HETATM   20  C           1     -21.306  -7.959  -5.533  0.00  0.00     0.009 C 
HETATM   21  C           1     -21.355  -6.048  -3.943  0.00  0.00     0.009 C 
ENDBRANCH  18  19
ENDBRANCH  17  18
BRANCH  17  22
HETATM   22  N           1     -19.617  -4.965  -8.404  0.00  0.00    -0.066 N 
HETATM   23  H           1     -19.098  -4.169  -7.967  0.00  0.00     0.275 HD
HETATM   24  H           1     -19.955  -4.682  -9.350  0.00  0.00     0.275 HD
HETATM   25  H           1     -18.979  -5.788  -8.494  0.00  0.00     0.275 HD
ENDBRANCH  17  22
ENDBRANCH   3  17
TORSDOF 8
ENDMDL
MODEL 3
REMARK VINA RESULT:      -6.2      4.887      7.696
REMARK  8 active torsions:
REMARK  status: ('A' for Active; 'I' for Inactive)
REMARK    1  A    between atoms: C_3  and  C_9 
REMARK    2  A    between atoms: C_3  and  C_21 
REMARK    3  A    between atoms: C_3  and  N_25 
REMARK    4  A    between atoms: C_7  and  C_8 
REMARK    5  A    between atoms: C_8  and  C_23 
REMARK    6  A    between atoms: C_10  and  C_21 
REMARK    7  A    between atoms: N_11  and  C_23 
REMARK    8  A    between atoms: C_23  and  C_24 
REMARK       I    between atoms: C_24  and  N_25 
ROOT
HETATM    1  H           1     -34.820  -5.144 -16.310  0.00  0.00     0.163 HD
HETATM    2  O           1     -34.726  -2.659 -14.958  0.00  0.00    -0.271 OA
HETATM    3  C           1     -34.429  -3.816 -14.773  0.00  0.00     0.249 C 
HETATM    4  N           1     -34.100  -4.617 -15.832  0.00  0.00    -0.344 N 
ENDROOT
BRANCH   4   5
HETATM    5  C           1     -32.720  -4.712 -16.268  0.00  0.00     0.191 C 
BRANCH   5   6
HETATM    6  C           1     -32.391  -3.532 -17.149  0.00  0.00     0.197 C 
HETATM    7  O           1     -33.308  -2.886 -17.700  0.00  0.00    -0.646 OA
HETATM    8  O           1     -31.198  -3.199 -17.328  0.00  0.00    -0.646 OA
ENDBRANCH   5   6
BRANCH   5   9
HETATM    9  C           1     -32.524  -6.002 -17.054  0.00  0.00     0.094 C 
BRANCH   9  10
HETATM   10  C           1     -31.079  -6.392 -17.019  0.00  0.00     0.028 A 
HETATM   11  C           1     -30.479  -7.249 -17.910  0.00  0.00     0.114 A 
HETATM   12  N           1     -29.174  -7.319 -17.510  0.00  0.00    -0.360 N 
HETATM   13  C           1     -29.037  -6.518 -16.413  0.00  0.00     0.180 A 
HETATM   14  H           1     -28.415  -7.886 -17.964  0.00  0.00     0.166 HD
HETATM   15  N           1     -30.173  -5.944 -16.092  0.00  0.00    -0.354 N 
ATOM     16  HN          1     -30.346  -5.303 -15.318  1.00  0.00     0.166 HD
ENDBRANCH   9  10
ENDBRANCH   5   9
ENDBRANCH   4   5
BRANCH   3  17
HETATM   17  C           1     -34.421  -4.376 -13.371  0.00  0.00     0.275 C 
BRANCH  17  18
HETATM   18  C           1     -33.011  -4.299 -12.800  0.00  0.00     0.046 C 
BRANCH  18  19
HETATM   19  C           1     -33.071  -3.788 -11.367  0.00  0.00    -0.020 C 
HETATM   20  C           1     -33.691  -2.398 -11.348  0.00  0.00     0.009 C 
HETATM   21  C           1     -33.919  -4.733 -10.526  0.00  0.00     0.009 C 
ENDBRANCH  18  19
ENDBRANCH  17  18
BRANCH  17  22
HETATM   22  N           1     -34.870  -5.807 -13.403  0.00  0.00    -0.066 N 
HETATM   23  H           1     -34.730  -6.193 -14.365  0.00  0.00     0.275 HD
HETATM   24  H           1     -35.882  -5.861 -13.151  0.00  0.00     0.275 HD
HETATM   25  H           1     -34.309  -6.363 -12.720  0.00  0.00     0.275 HD
ENDBRANCH  17  22
ENDBRANCH   3  17
TORSDOF 8
ENDMDL
MODEL 4
REMARK VINA RESULT:      -6.0     13.747     15.822
REMARK  8 active torsions:
REMARK  status: ('A' for Active; 'I' for Inactive)
REMARK    1  A    between atoms: C_3  and  C_9 
REMARK    2  A    between atoms: C_3  and  C_21 
REMARK    3  A    between atoms: C_3  and  N_25 
REMARK    4  A    between atoms: C_7  and  C_8 
REMARK    5  A    between atoms: C_8  and  C_23 
REMARK    6  A    between atoms: C_10  and  C_21 
REMARK    7  A    between atoms: N_11  and  C_23 
REMARK    8  A    between atoms: C_23  and  C_24 
REMARK       I    between atoms: C_24  and  N_25 
ROOT
HETATM    1  H           1     -22.953  -4.279  -5.989  0.00  0.00     0.163 HD
HETATM    2  O           1     -20.342  -4.857  -5.061  0.00  0.00    -0.271 OA
HETATM    3  C           1     -21.319  -5.438  -5.469  0.00  0.00     0.249 C 
HETATM    4  N           1     -22.172  -4.818  -6.342  0.00  0.00    -0.344 N 
ENDROOT
BRANCH   4   5
HETATM    5  C           1     -21.956  -4.931  -7.771  0.00  0.00     0.191 C 
BRANCH   5   6
HETATM    6  C           1     -20.474  -4.904  -8.058  0.00  0.00     0.197 C 
HETATM    7  O           1     -19.886  -3.811  -8.203  0.00  0.00    -0.646 OA
HETATM    8  O           1     -19.835  -5.975  -8.150  0.00  0.00    -0.646 OA
ENDBRANCH   5   6
BRANCH   5   9
HETATM    9  C           1     -22.632  -3.765  -8.480  0.00  0.00     0.094 C 
BRANCH   9  10
HETATM   10  C           1     -22.616  -4.004  -9.958  0.00  0.00     0.028 A 
HETATM   11  C           1     -23.467  -4.854 -10.622  0.00  0.00     0.114 A 
HETATM   12  N           1     -23.103  -4.764 -11.937  0.00  0.00    -0.360 N 
HETATM   13  C           1     -22.064  -3.880 -12.016  0.00  0.00     0.180 A 
HETATM   14  H           1     -23.541  -5.281 -12.739  0.00  0.00     0.166 HD
HETATM   15  N           1     -21.748  -3.404 -10.835  0.00  0.00    -0.354 N 
ATOM     16  HN          1     -21.012  -2.732 -10.615  1.00  0.00     0.166 HD
ENDBRANCH   9  10
ENDBRANCH   5   9
ENDBRANCH   4   5
BRANCH   3  17
HETATM   17  C           1     -21.599  -6.850  -5.016  0.00  0.00     0.275 C 
BRANCH  17  18
HETATM   18  C           1     -20.776  -7.158  -3.771  0.00  0.00     0.046 C 
BRANCH  18  19
HETATM   19  C           1     -21.710  -7.460  -2.607  0.00  0.00    -0.020 C 
HETATM   20  C           1     -20.985  -8.325  -1.585  0.00  0.00     0.009 C 
HETATM   21  C           1     -22.142  -6.155  -1.951  0.00  0.00     0.009 C 
ENDBRANCH  18  19
ENDBRANCH  17  18
BRANCH  17  22
HETATM   22  N           1     -21.227  -7.808  -6.109  0.00  0.00    -0.066 N 
HETATM   23  H           1     -22.053  -7.962  -6.732  0.00  0.00     0.275 HD
HETATM   24  H           1     -20.933  -8.718  -5.690  0.00  0.00     0.275 HD
HETATM   25  H           1     -20.439  -7.410  -6.668  0.00  0.00     0.275 HD
ENDBRANCH  17  22
ENDBRANCH   3  17
TORSDOF 8
ENDMDL
MODEL 5
REMARK VINA RESULT:      -6.0      2.490      5.621
REMARK  8 active torsions:
REMARK  status: ('A' for Active; 'I' for Inactive)
REMARK    1  A    between atoms: C_3  and  C_9 
REMARK    2  A    between atoms: C_3  and  C_21 
REMARK    3  A    between atoms: C_3  and  N_25 
REMARK    4  A    between atoms: C_7  and  C_8 
REMARK    5  A    between atoms: C_8  and  C_23 
REMARK    6  A    between atoms: C_10  and  C_21 
REMARK    7  A    between atoms: N_11  and  C_23 
REMARK    8  A    between atoms: C_23  and  C_24 
REMARK       I    between atoms: C_24  and  N_25 
ROOT
HETATM    1  H           1     -33.934  -1.487 -12.782  0.00  0.00     0.163 HD
HETATM    2  O           1     -35.310   0.935 -12.279  0.00  0.00    -0.271 OA
HETATM    3  C           1     -35.510  -0.145 -12.781  0.00  0.00     0.249 C 
HETATM    4  N           1     -34.814  -1.242 -12.348  0.00  0.00    -0.344 N 
ENDROOT
BRANCH   4   5
HETATM    5  C           1     -35.339  -2.052 -11.266  0.00  0.00     0.191 C 
BRANCH   5   6
HETATM    6  C           1     -36.314  -1.234 -10.454  0.00  0.00     0.197 C 
HETATM    7  O           1     -37.534  -1.268 -10.722  0.00  0.00    -0.646 OA
HETATM    8  O           1     -35.900  -0.524  -9.511  0.00  0.00    -0.646 OA
ENDBRANCH   5   6
BRANCH   5   9
HETATM    9  C           1     -34.193  -2.510 -10.373  0.00  0.00     0.094 C 
BRANCH   9  10
HETATM   10  C           1     -33.711  -3.851 -10.829  0.00  0.00     0.028 A 
HETATM   11  C           1     -32.721  -4.051 -11.761  0.00  0.00     0.114 A 
HETATM   12  N           1     -32.607  -5.409 -11.871  0.00  0.00    -0.360 N 
HETATM   13  C           1     -33.516  -5.968 -11.018  0.00  0.00     0.180 A 
HETATM   14  H           1     -31.943  -5.928 -12.497  0.00  0.00     0.166 HD
HETATM   15  N           1     -34.199  -5.050 -10.374  0.00  0.00    -0.354 N 
ATOM     16  HN          1     -34.935  -5.197  -9.684  1.00  0.00     0.166 HD
ENDBRANCH   9  10
ENDBRANCH   5   9
ENDBRANCH   4   5
BRANCH   3  17
HETATM   17  C           1     -36.528  -0.285 -13.886  0.00  0.00     0.275 C 
BRANCH  17  18
HETATM   18  C           1     -36.083   0.529 -15.094  0.00  0.00     0.046 C 
BRANCH  18  19
HETATM   19  C           1     -36.290  -0.288 -16.362  0.00  0.00    -0.020 C 
HETATM   20  C           1     -35.269  -1.417 -16.412  0.00  0.00     0.009 C 
HETATM   21  C           1     -37.695  -0.876 -16.363  0.00  0.00     0.009 C 
ENDBRANCH  18  19
ENDBRANCH  17  18
BRANCH  17  22
HETATM   22  N           1     -37.857   0.219 -13.407  0.00  0.00    -0.066 N 
HETATM   23  H           1     -38.609  -0.444 -13.707  0.00  0.00     0.275 HD
HETATM   24  H           1     -38.041   1.162 -13.817  0.00  0.00     0.275 HD
HETATM   25  H           1     -37.848   0.287 -12.365  0.00  0.00     0.275 HD
ENDBRANCH  17  22
ENDBRANCH   3  17
TORSDOF 8
ENDMDL
MODEL 6
REMARK VINA RESULT:      -5.8     15.593     18.417
REMARK  8 active torsions:
REMARK  status: ('A' for Active; 'I' for Inactive)
REMARK    1  A    between atoms: C_3  and  C_9 
REMARK    2  A    between atoms: C_3  and  C_21 
REMARK    3  A    between atoms: C_3  and  N_25 
REMARK    4  A    between atoms: C_7  and  C_8 
REMARK    5  A    between atoms: C_8  and  C_23 
REMARK    6  A    between atoms: C_10  and  C_21 
REMARK    7  A    between atoms: N_11  and  C_23 
REMARK    8  A    between atoms: C_23  and  C_24 
REMARK       I    between atoms: C_24  and  N_25 
ROOT
HETATM    1  H           1     -21.247  -5.715  -2.356  0.00  0.00     0.163 HD
HETATM    2  O           1     -22.773  -6.155  -4.699  0.00  0.00    -0.271 OA
HETATM    3  C           1     -21.647  -6.319  -4.295  0.00  0.00     0.249 C 
HETATM    4  N           1     -21.418  -6.509  -2.959  0.00  0.00    -0.344 N 
ENDROOT
BRANCH   4   5
HETATM    5  C           1     -21.423  -7.850  -2.407  0.00  0.00     0.191 C 
BRANCH   5   6
HETATM    6  C           1     -22.211  -7.860  -1.119  0.00  0.00     0.197 C 
HETATM    7  O           1     -22.349  -8.924  -0.479  0.00  0.00    -0.646 OA
HETATM    8  O           1     -22.726  -6.803  -0.694  0.00  0.00    -0.646 OA
ENDBRANCH   5   6
BRANCH   5   9
HETATM    9  C           1     -19.992  -8.289  -2.129  0.00  0.00     0.094 C 
BRANCH   9  10
HETATM   10  C           1     -19.498  -9.129  -3.265  0.00  0.00     0.028 A 
HETATM   11  C           1     -20.301  -9.887  -4.084  0.00  0.00     0.114 A 
HETATM   12  N           1     -19.445 -10.480  -4.969  0.00  0.00    -0.360 N 
HETATM   13  C           1     -18.181 -10.067  -4.657  0.00  0.00     0.180 A 
HETATM   14  H           1     -19.711 -11.135  -5.746  0.00  0.00     0.166 HD
HETATM   15  N           1     -18.182  -9.250  -3.631  0.00  0.00    -0.354 N 
ATOM     16  HN          1     -17.376  -8.800  -3.197  1.00  0.00     0.166 HD
ENDBRANCH   9  10
ENDBRANCH   5   9
ENDBRANCH   4   5
BRANCH   3  17
HETATM   17  C           1     -20.491  -6.314  -5.265  0.00  0.00     0.275 C 
BRANCH  17  18
HETATM   18  C           1     -20.202  -4.884  -5.705  0.00  0.00     0.046 C 
BRANCH  18  19
HETATM   19  C           1     -20.537  -4.731  -7.182  0.00  0.00    -0.020 C 
HETATM   20  C           1     -21.643  -3.697  -7.348  0.00  0.00     0.009 C 
HETATM   21  C           1     -19.297  -4.272  -7.939  0.00  0.00     0.009 C 
ENDBRANCH  18  19
ENDBRANCH  17  18
BRANCH  17  22
HETATM   22  N           1     -20.842  -7.144  -6.464  0.00  0.00    -0.066 N 
HETATM   23  H           1     -21.686  -6.740  -6.932  0.00  0.00     0.275 HD
HETATM   24  H           1     -21.047  -8.123  -6.163  0.00  0.00     0.275 HD
HETATM   25  H           1     -20.040  -7.146  -7.134  0.00  0.00     0.275 HD
ENDBRANCH  17  22
ENDBRANCH   3  17
TORSDOF 8
ENDMDL
MODEL 7
REMARK VINA RESULT:      -5.8     12.778     14.685
REMARK  8 active torsions:
REMARK  status: ('A' for Active; 'I' for Inactive)
REMARK    1  A    between atoms: C_3  and  C_9 
REMARK    2  A    between atoms: C_3  and  C_21 
REMARK    3  A    between atoms: C_3  and  N_25 
REMARK    4  A    between atoms: C_7  and  C_8 
REMARK    5  A    between atoms: C_8  and  C_23 
REMARK    6  A    between atoms: C_10  and  C_21 
REMARK    7  A    between atoms: N_11  and  C_23 
REMARK    8  A    between atoms: C_23  and  C_24 
REMARK       I    between atoms: C_24  and  N_25 
ROOT
HETATM    1  H           1     -23.677  -3.865  -7.372  0.00  0.00     0.163 HD
HETATM    2  O           1     -20.903  -3.442  -7.000  0.00  0.00    -0.271 OA
HETATM    3  C           1     -21.677  -4.355  -7.165  0.00  0.00     0.249 C 
HETATM    4  N           1     -22.838  -4.152  -7.860  0.00  0.00    -0.344 N 
ENDROOT
BRANCH   4   5
HETATM    5  C           1     -22.866  -4.347  -9.297  0.00  0.00     0.191 C 
BRANCH   5   6
HETATM    6  C           1     -21.503  -4.050  -9.871  0.00  0.00     0.197 C 
HETATM    7  O           1     -20.664  -4.967  -9.998  0.00  0.00    -0.646 OA
HETATM    8  O           1     -21.212  -2.884 -10.220  0.00  0.00    -0.646 OA
ENDBRANCH   5   6
BRANCH   5   9
HETATM    9  C           1     -23.894  -3.409  -9.916  0.00  0.00     0.094 C 
BRANCH   9  10
HETATM   10  C           1     -23.785  -3.466 -11.408  0.00  0.00     0.028 A 
HETATM   11  C           1     -23.968  -4.600 -12.163  0.00  0.00     0.114 A 
HETATM   12  N           1     -23.777  -4.200 -13.456  0.00  0.00    -0.360 N 
HETATM   13  C           1     -23.490  -2.865 -13.434  0.00  0.00     0.180 A 
HETATM   14  H           1     -23.838  -4.808 -14.310  0.00  0.00     0.166 HD
HETATM   15  N           1     -23.488  -2.393 -12.209  0.00  0.00    -0.354 N 
ATOM     16  HN          1     -23.303  -1.434 -11.916  1.00  0.00     0.166 HD
ENDBRANCH   9  10
ENDBRANCH   5   9
ENDBRANCH   4   5
BRANCH   3  17
HETATM   17  C           1     -21.362  -5.720  -6.603  0.00  0.00     0.275 C 
BRANCH  17  18
HETATM   18  C           1     -20.971  -5.589  -5.137  0.00  0.00     0.046 C 
BRANCH  18  19
HETATM   19  C           1     -21.673  -6.671  -4.326  0.00  0.00    -0.020 C 
HETATM   20  C           1     -20.885  -7.970  -4.423  0.00  0.00     0.009 C 
HETATM   21  C           1     -21.758  -6.237  -2.869  0.00  0.00     0.009 C 
ENDBRANCH  18  19
ENDBRANCH  17  18
BRANCH  17  22
HETATM   22  N           1     -20.223  -6.324  -7.371  0.00  0.00    -0.066 N 
HETATM   23  H           1     -19.534  -6.738  -6.702  0.00  0.00     0.275 HD
HETATM   24  H           1     -19.754  -5.584  -7.940  0.00  0.00     0.275 HD
HETATM   25  H           1     -20.587  -7.071  -8.003  0.00  0.00     0.275 HD
ENDBRANCH  17  22
ENDBRANCH   3  17
TORSDOF 8
ENDMDL
MODEL 8
REMARK VINA RESULT:      -5.8     10.083     13.212
REMARK  8 active torsions:
REMARK  status: ('A' for Active; 'I' for Inactive)
REMARK    1  A    between atoms: C_3  and  C_9 
REMARK    2  A    between atoms: C_3  and  C_21 
REMARK    3  A    between atoms: C_3  and  N_25 
REMARK    4  A    between atoms: C_7  and  C_8 
REMARK    5  A    between atoms: C_8  and  C_23 
REMARK    6  A    between atoms: C_10  and  C_21 
REMARK    7  A    between atoms: N_11  and  C_23 
REMARK    8  A    between atoms: C_23  and  C_24 
REMARK       I    between atoms: C_24  and  N_25 
ROOT
HETATM    1  H           1     -26.625  -5.134 -18.141  0.00  0.00     0.163 HD
HETATM    2  O           1     -28.254  -5.953 -15.976  0.00  0.00    -0.271 OA
HETATM    3  C           1     -27.973  -6.306 -17.096  0.00  0.00     0.249 C 
HETATM    4  N           1     -26.750  -5.996 -17.627  0.00  0.00    -0.344 N 
ENDROOT
BRANCH   4   5
HETATM    5  C           1     -25.633  -6.904 -17.451  0.00  0.00     0.191 C 
BRANCH   5   6
HETATM    6  C           1     -25.044  -6.715 -16.074  0.00  0.00     0.197 C 
HETATM    7  O           1     -24.608  -7.699 -15.440  0.00  0.00    -0.646 OA
HETATM    8  O           1     -24.991  -5.572 -15.569  0.00  0.00    -0.646 OA
ENDBRANCH   5   6
BRANCH   5   9
HETATM    9  C           1     -24.571  -6.610 -18.502  0.00  0.00     0.094 C 
BRANCH   9  10
HETATM   10  C           1     -24.899  -7.348 -19.763  0.00  0.00     0.028 A 
HETATM   11  C           1     -23.970  -7.916 -20.601  0.00  0.00     0.114 A 
HETATM   12  N           1     -24.700  -8.476 -21.612  0.00  0.00    -0.360 N 
HETATM   13  C           1     -26.018  -8.229 -21.352  0.00  0.00     0.180 A 
HETATM   14  H           1     -24.317  -8.999 -22.438  0.00  0.00     0.166 HD
HETATM   15  N           1     -26.169  -7.549 -20.240  0.00  0.00    -0.354 N 
ATOM     16  HN          1     -27.044  -7.236 -19.821  1.00  0.00     0.166 HD
ENDBRANCH   9  10
ENDBRANCH   5   9
ENDBRANCH   4   5
BRANCH   3  17
HETATM   17  C           1     -28.973  -7.090 -17.912  0.00  0.00     0.275 C 
BRANCH  17  18
HETATM   18  C           1     -30.156  -6.197 -18.262  0.00  0.00     0.046 C 
BRANCH  18  19
HETATM   19  C           1     -31.181  -6.247 -17.137  0.00  0.00    -0.020 C 
HETATM   20  C           1     -31.498  -4.831 -16.674  0.00  0.00     0.009 C 
HETATM   21  C           1     -32.455  -6.913 -17.640  0.00  0.00     0.009 C 
ENDBRANCH  18  19
ENDBRANCH  17  18
BRANCH  17  22
HETATM   22  N           1     -29.454  -8.266 -17.114  0.00  0.00    -0.066 N 
HETATM   23  H           1     -30.427  -8.083 -16.777  0.00  0.00     0.275 HD
HETATM   24  H           1     -28.824  -8.413 -16.294  0.00  0.00     0.275 HD
HETATM   25  H           1     -29.448  -9.120 -17.715  0.00  0.00     0.275 HD
ENDBRANCH  17  22
ENDBRANCH   3  17
TORSDOF 8
ENDMDL
MODEL 9
REMARK VINA RESULT:      -5.8     15.851     18.443
REMARK  8 active torsions:
REMARK  status: ('A' for Active; 'I' for Inactive)
REMARK    1  A    between atoms: C_3  and  C_9 
REMARK    2  A    between atoms: C_3  and  C_21 
REMARK    3  A    between atoms: C_3  and  N_25 
REMARK    4  A    between atoms: C_7  and  C_8 
REMARK    5  A    between atoms: C_8  and  C_23 
REMARK    6  A    between atoms: C_10  and  C_21 
REMARK    7  A    between atoms: N_11  and  C_23 
REMARK    8  A    between atoms: C_23  and  C_24 
REMARK       I    between atoms: C_24  and  N_25 
ROOT
HETATM    1  H           1     -20.783  -5.757  -2.809  0.00  0.00     0.163 HD
HETATM    2  O           1     -22.837  -6.182  -4.709  0.00  0.00    -0.271 OA
HETATM    3  C           1     -21.702  -6.536  -4.491  0.00  0.00     0.249 C 
HETATM    4  N           1     -21.230  -6.572  -3.207  0.00  0.00    -0.344 N 
ENDROOT
BRANCH   4   5
HETATM    5  C           1     -21.374  -7.779  -2.416  0.00  0.00     0.191 C 
BRANCH   5   6
HETATM    6  C           1     -22.192  -7.479  -1.184  0.00  0.00     0.197 C 
HETATM    7  O           1     -22.496  -8.399  -0.395  0.00  0.00    -0.646 OA
HETATM    8  O           1     -22.564  -6.307  -0.952  0.00  0.00    -0.646 OA
ENDBRANCH   5   6
BRANCH   5   9
HETATM    9  C           1     -19.996  -8.280  -2.001  0.00  0.00     0.094 C 
BRANCH   9  10
HETATM   10  C           1     -19.554  -9.359  -2.940  0.00  0.00     0.028 A 
HETATM   11  C           1     -18.395  -9.328  -3.677  0.00  0.00     0.114 A 
HETATM   12  N           1     -18.393 -10.498  -4.384  0.00  0.00    -0.360 N 
HETATM   13  C           1     -19.530 -11.179  -4.054  0.00  0.00     0.180 A 
HETATM   14  H           1     -17.653 -10.815  -5.059  0.00  0.00     0.166 HD
HETATM   15  N           1     -20.253 -10.514  -3.183  0.00  0.00    -0.354 N 
ATOM     16  HN          1     -21.143 -10.797  -2.774  1.00  0.00     0.166 HD
ENDBRANCH   9  10
ENDBRANCH   5   9
ENDBRANCH   4   5
BRANCH   3  17
HETATM   17  C           1     -20.806  -6.938  -5.636  0.00  0.00     0.275 C 
BRANCH  17  18
HETATM   18  C           1     -21.080  -6.041  -6.837  0.00  0.00     0.046 C 
BRANCH  18  19
HETATM   19  C           1     -20.421  -4.686  -6.620  0.00  0.00    -0.020 C 
HETATM   20  C           1     -19.090  -4.644  -7.359  0.00  0.00     0.009 C 
HETATM   21  C           1     -21.332  -3.588  -7.154  0.00  0.00     0.009 C 
ENDBRANCH  18  19
ENDBRANCH  17  18
BRANCH  17  22
HETATM   22  N           1     -21.080  -8.365  -6.007  0.00  0.00    -0.066 N 
HETATM   23  H           1     -21.420  -8.884  -5.165  0.00  0.00     0.275 HD
HETATM   24  H           1     -20.202  -8.810  -6.358  0.00  0.00     0.275 HD
HETATM   25  H           1     -21.809  -8.398  -6.754  0.00  0.00     0.275 HD
ENDBRANCH  17  22
ENDBRANCH   3  17
TORSDOF 8
ENDMDL
