MODEL 1
REMARK VINA RESULT:      -5.3      0.000      0.000
REMARK  8 active torsions:
REMARK  status: ('A' for Active; 'I' for Inactive)
REMARK    1  A    between atoms: C_2  and  S_12 
REMARK    2  A    between atoms: C_2  and  C_3 
REMARK    3  A    between atoms: C_3  and  C_19 
REMARK    4  A    between atoms: C_3  and  N_15 
REMARK    5  A    between atoms: C_4  and  C_16 
REMARK    6  A    between atoms: C_4  and  C_5 
REMARK    7  A    between atoms: C_4  and  N_9 
REMARK    8  A    between atoms: C_5  and  C_6 
REMARK       I    between atoms: N_15  and  C_16 
ROOT
HETATM    1  O           1     -21.465  -3.170  -7.218  0.00  0.00    -0.271 OA
HETATM    2  N           1     -22.179  -4.767  -8.607  0.00  0.00    -0.344 N 
HETATM    3  C           1     -21.584  -4.351  -7.446  0.00  0.00     0.249 C 
HETATM    4  H           1     -22.279  -5.757  -8.797  0.00  0.00     0.163 HD
ENDROOT
BRANCH   3   5
HETATM    5  C           1     -21.078  -5.366  -6.451  0.00  0.00     0.284 C 
BRANCH   5   6
HETATM    6  C           1     -22.257  -5.982  -5.708  0.00  0.00     0.155 C 
BRANCH   6   7
HETATM    7  C           1     -21.789  -6.520  -4.379  0.00  0.00     0.175 C 
HETATM    8  O           1     -20.956  -7.451  -4.341  0.00  0.00    -0.648 OA
HETATM    9  O           1     -22.232  -6.035  -3.316  0.00  0.00    -0.648 OA
ENDBRANCH   6   7
ENDBRANCH   5   6
BRANCH   5  10
HETATM   10  N           1     -20.167  -4.690  -5.469  0.00  0.00    -0.066 N 
HETATM   11  H           1     -20.727  -4.341  -4.658  0.00  0.00     0.275 HD
HETATM   12  H           1     -19.453  -5.373  -5.130  0.00  0.00     0.275 HD
HETATM   13  H           1     -19.687  -3.887  -5.935  0.00  0.00     0.275 HD
ENDBRANCH   5  10
ENDBRANCH   3   5
BRANCH   2  14
HETATM   14  C           1     -22.664  -3.791  -9.563  0.00  0.00     0.194 C 
BRANCH  14  15
HETATM   15  C           1     -22.059  -4.079 -10.932  0.00  0.00     0.106 C 
BRANCH  15  16
HETATM   16  S           1     -22.613  -2.819 -12.115  0.00  0.00    -0.180 SA
HETATM   17  H           1     -21.791  -1.846 -11.680  0.00  0.00     0.101 HD
ENDBRANCH  15  16
ENDBRANCH  14  15
BRANCH  14  18
HETATM   18  C           1     -24.168  -3.878  -9.649  0.00  0.00     0.197 C 
HETATM   19  O           1     -24.716  -4.965  -9.935  0.00  0.00    -0.646 OA
HETATM   20  O           1     -24.865  -2.863  -9.435  0.00  0.00    -0.646 OA
ENDBRANCH  14  18
ENDBRANCH   2  14
TORSDOF 8
ENDMDL
MODEL 2
REMARK VINA RESULT:      -5.1     11.833     13.464
REMARK  8 active torsions:
REMARK  status: ('A' for Active; 'I' for Inactive)
REMARK    1  A    between atoms: C_2  and  S_12 
REMARK    2  A    between atoms: C_2  and  C_3 
REMARK    3  A    between atoms: C_3  and  C_19 
REMARK    4  A    between atoms: C_3  and  N_15 
REMARK    5  A    between atoms: C_4  and  C_16 
REMARK    6  A    between atoms: C_4  and  C_5 
REMARK    7  A    between atoms: C_4  and  N_9 
REMARK    8  A    between atoms: C_5  and  C_6 
REMARK       I    between atoms: N_15  and  C_16 
ROOT
HETATM    1  O           1     -26.354  -5.909 -17.269  0.00  0.00    -0.271 OA
HETATM    2  N           1     -27.789  -6.665 -18.805  0.00  0.00    -0.344 N 
HETATM    3  C           1     -26.534  -6.301 -18.398  0.00  0.00     0.249 C 
HETATM    4  H           1     -27.938  -6.994 -19.751  0.00  0.00     0.163 HD
ENDROOT
BRANCH   3   5
HETATM    5  C           1     -25.373  -6.390 -19.358  0.00  0.00     0.284 C 
BRANCH   5   6
HETATM    6  C           1     -25.898  -6.453 -20.787  0.00  0.00     0.155 C 
BRANCH   6   7
HETATM    7  C           1     -25.749  -7.857 -21.316  0.00  0.00     0.175 C 
HETATM    8  O           1     -26.697  -8.665 -21.219  0.00  0.00    -0.648 OA
HETATM    9  O           1     -24.677  -8.213 -21.853  0.00  0.00    -0.648 OA
ENDBRANCH   6   7
ENDBRANCH   5   6
BRANCH   5  10
HETATM   10  N           1     -24.576  -7.627 -19.064  0.00  0.00    -0.066 N 
HETATM   11  H           1     -25.091  -8.216 -18.372  0.00  0.00     0.275 HD
HETATM   12  H           1     -24.436  -8.169 -19.946  0.00  0.00     0.275 HD
HETATM   13  H           1     -23.647  -7.356 -18.670  0.00  0.00     0.275 HD
ENDBRANCH   5  10
ENDBRANCH   3   5
BRANCH   2  14
HETATM   14  C           1     -28.904  -6.579 -17.882  0.00  0.00     0.194 C 
BRANCH  14  15
HETATM   15  C           1     -29.855  -5.480 -18.338  0.00  0.00     0.106 C 
BRANCH  15  16
HETATM   16  S           1     -31.136  -5.226 -17.077  0.00  0.00    -0.180 SA
HETATM   17  H           1     -32.178  -5.530 -17.871  0.00  0.00     0.101 HD
ENDBRANCH  15  16
ENDBRANCH  14  15
BRANCH  14  18
HETATM   18  C           1     -29.635  -7.898 -17.853  0.00  0.00     0.197 C 
HETATM   19  O           1     -29.557  -8.634 -16.846  0.00  0.00    -0.646 OA
HETATM   20  O           1     -30.319  -8.255 -18.836  0.00  0.00    -0.646 OA
ENDBRANCH  14  18
ENDBRANCH   2  14
TORSDOF 8
ENDMDL
MODEL 3
REMARK VINA RESULT:      -5.1      3.003      5.911
REMARK  8 active torsions:
REMARK  status: ('A' for Active; 'I' for Inactive)
REMARK    1  A    between atoms: C_2  and  S_12 
REMARK    2  A    between atoms: C_2  and  C_3 
REMARK    3  A    between atoms: C_3  and  C_19 
REMARK    4  A    between atoms: C_3  and  N_15 
REMARK    5  A    between atoms: C_4  and  C_16 
REMARK    6  A    between atoms: C_4  and  C_5 
REMARK    7  A    between atoms: C_4  and  N_9 
REMARK    8  A    between atoms: C_5  and  C_6 
REMARK       I    between atoms: N_15  and  C_16 
ROOT
HETATM    1  O           1     -21.580  -3.332  -8.699  0.00  0.00    -0.271 OA
HETATM    2  N           1     -22.108  -4.849  -7.146  0.00  0.00    -0.344 N 
HETATM    3  C           1     -22.381  -4.135  -8.282  0.00  0.00     0.249 C 
HETATM    4  H           1     -22.779  -5.522  -6.799  0.00  0.00     0.163 HD
ENDROOT
BRANCH   3   5
HETATM    5  C           1     -23.683  -4.350  -9.015  0.00  0.00     0.284 C 
BRANCH   5   6
HETATM    6  C           1     -23.400  -4.615 -10.488  0.00  0.00     0.155 C 
BRANCH   6   7
HETATM    7  C           1     -23.799  -3.408 -11.301  0.00  0.00     0.175 C 
HETATM    8  O           1     -22.936  -2.569 -11.636  0.00  0.00    -0.648 OA
HETATM    9  O           1     -24.991  -3.248 -11.640  0.00  0.00    -0.648 OA
ENDBRANCH   6   7
ENDBRANCH   5   6
BRANCH   5  10
HETATM   10  N           1     -24.539  -3.125  -8.882  0.00  0.00    -0.066 N 
HETATM   11  H           1     -23.942  -2.311  -8.612  0.00  0.00     0.275 HD
HETATM   12  H           1     -25.006  -2.927  -9.795  0.00  0.00     0.275 HD
HETATM   13  H           1     -25.264  -3.286  -8.147  0.00  0.00     0.275 HD
ENDBRANCH   5  10
ENDBRANCH   3   5
BRANCH   2  14
HETATM   14  C           1     -20.857  -4.641  -6.443  0.00  0.00     0.194 C 
BRANCH  14  15
HETATM   15  C           1     -20.922  -5.322  -5.082  0.00  0.00     0.106 C 
BRANCH  15  16
HETATM   16  S           1     -22.236  -6.574  -5.094  0.00  0.00    -0.180 SA
HETATM   17  H           1     -23.235  -5.733  -4.773  0.00  0.00     0.101 HD
ENDBRANCH  15  16
ENDBRANCH  14  15
BRANCH  14  18
HETATM   18  C           1     -19.725  -5.231  -7.248  0.00  0.00     0.197 C 
HETATM   19  O           1     -19.771  -6.427  -7.607  0.00  0.00    -0.646 OA
HETATM   20  O           1     -18.741  -4.524  -7.554  0.00  0.00    -0.646 OA
ENDBRANCH  14  18
ENDBRANCH   2  14
TORSDOF 8
ENDMDL
MODEL 4
REMARK VINA RESULT:      -5.1     10.755     13.107
REMARK  8 active torsions:
REMARK  status: ('A' for Active; 'I' for Inactive)
REMARK    1  A    between atoms: C_2  and  S_12 
REMARK    2  A    between atoms: C_2  and  C_3 
REMARK    3  A    between atoms: C_3  and  C_19 
REMARK    4  A    between atoms: C_3  and  N_15 
REMARK    5  A    between atoms: C_4  and  C_16 
REMARK    6  A    between atoms: C_4  and  C_5 
REMARK    7  A    between atoms: C_4  and  N_9 
REMARK    8  A    between atoms: C_5  and  C_6 
REMARK       I    between atoms: N_15  and  C_16 
ROOT
HETATM    1  O           1     -27.571  -5.891 -19.767  0.00  0.00    -0.271 OA
HETATM    2  N           1     -27.016  -6.761 -17.786  0.00  0.00    -0.344 N 
HETATM    3  C           1     -26.740  -6.449 -19.091  0.00  0.00     0.249 C 
HETATM    4  H           1     -26.318  -7.228 -17.220  0.00  0.00     0.163 HD
ENDROOT
BRANCH   3   5
HETATM    5  C           1     -25.397  -6.801 -19.684  0.00  0.00     0.284 C 
BRANCH   5   6
HETATM    6  C           1     -25.587  -7.805 -20.813  0.00  0.00     0.155 C 
BRANCH   6   7
HETATM    7  C           1     -24.291  -7.962 -21.569  0.00  0.00     0.175 C 
HETATM    8  O           1     -24.260  -7.766 -22.803  0.00  0.00    -0.648 OA
HETATM    9  O           1     -23.248  -8.290 -20.962  0.00  0.00    -0.648 OA
ENDBRANCH   6   7
ENDBRANCH   5   6
BRANCH   5  10
HETATM   10  N           1     -24.525  -7.402 -18.621  0.00  0.00    -0.066 N 
HETATM   11  H           1     -24.386  -6.709 -17.852  0.00  0.00     0.275 HD
HETATM   12  H           1     -24.984  -8.259 -18.238  0.00  0.00     0.275 HD
HETATM   13  H           1     -23.600  -7.658 -19.035  0.00  0.00     0.275 HD
ENDBRANCH   5  10
ENDBRANCH   3   5
BRANCH   2  14
HETATM   14  C           1     -28.306  -6.423 -17.218  0.00  0.00     0.194 C 
BRANCH  14  15
HETATM   15  C           1     -29.349  -7.422 -17.700  0.00  0.00     0.106 C 
BRANCH  15  16
HETATM   16  S           1     -31.008  -6.724 -17.469  0.00  0.00    -0.180 SA
HETATM   17  H           1     -30.902  -6.543 -16.140  0.00  0.00     0.101 HD
ENDBRANCH  15  16
ENDBRANCH  14  15
BRANCH  14  18
HETATM   18  C           1     -28.219  -6.472 -15.712  0.00  0.00     0.197 C 
HETATM   19  O           1     -28.622  -5.504 -15.031  0.00  0.00    -0.646 OA
HETATM   20  O           1     -27.744  -7.480 -15.146  0.00  0.00    -0.646 OA
ENDBRANCH  14  18
ENDBRANCH   2  14
TORSDOF 8
ENDMDL
MODEL 5
REMARK VINA RESULT:      -4.9      3.003      5.871
REMARK  8 active torsions:
REMARK  status: ('A' for Active; 'I' for Inactive)
REMARK    1  A    between atoms: C_2  and  S_12 
REMARK    2  A    between atoms: C_2  and  C_3 
REMARK    3  A    between atoms: C_3  and  C_19 
REMARK    4  A    between atoms: C_3  and  N_15 
REMARK    5  A    between atoms: C_4  and  C_16 
REMARK    6  A    between atoms: C_4  and  C_5 
REMARK    7  A    between atoms: C_4  and  N_9 
REMARK    8  A    between atoms: C_5  and  C_6 
REMARK       I    between atoms: N_15  and  C_16 
ROOT
HETATM    1  O           1     -20.541  -3.743  -7.143  0.00  0.00    -0.271 OA
HETATM    2  N           1     -22.147  -5.257  -6.799  0.00  0.00    -0.344 N 
HETATM    3  C           1     -21.619  -4.184  -7.465  0.00  0.00     0.249 C 
HETATM    4  H           1     -23.050  -5.626  -7.070  0.00  0.00     0.163 HD
ENDROOT
BRANCH   3   5
HETATM    5  C           1     -22.383  -3.551  -8.602  0.00  0.00     0.284 C 
BRANCH   5   6
HETATM    6  C           1     -23.787  -4.137  -8.661  0.00  0.00     0.155 C 
BRANCH   6   7
HETATM    7  C           1     -24.234  -4.231 -10.099  0.00  0.00     0.175 C 
HETATM    8  O           1     -24.888  -3.298 -10.612  0.00  0.00    -0.648 OA
HETATM    9  O           1     -23.949  -5.241 -10.778  0.00  0.00    -0.648 OA
ENDBRANCH   6   7
ENDBRANCH   5   6
BRANCH   5  10
HETATM   10  N           1     -21.672  -3.825  -9.895  0.00  0.00    -0.066 N 
HETATM   11  H           1     -20.955  -4.571  -9.746  0.00  0.00     0.275 HD
HETATM   12  H           1     -22.363  -4.146 -10.610  0.00  0.00     0.275 HD
HETATM   13  H           1     -21.205  -2.952 -10.228  0.00  0.00     0.275 HD
ENDBRANCH   5  10
ENDBRANCH   3   5
BRANCH   2  14
HETATM   14  C           1     -21.412  -5.865  -5.707  0.00  0.00     0.194 C 
BRANCH  14  15
HETATM   15  C           1     -22.389  -6.315  -4.628  0.00  0.00     0.106 C 
BRANCH  15  16
HETATM   16  S           1     -21.551  -6.323  -3.018  0.00  0.00    -0.180 SA
HETATM   17  H           1     -21.221  -5.019  -3.024  0.00  0.00     0.101 HD
ENDBRANCH  15  16
ENDBRANCH  14  15
BRANCH  14  18
HETATM   18  C           1     -20.644  -7.058  -6.220  0.00  0.00     0.197 C 
HETATM   19  O           1     -19.545  -6.894  -6.793  0.00  0.00    -0.646 OA
HETATM   20  O           1     -21.106  -8.209  -6.072  0.00  0.00    -0.646 OA
ENDBRANCH  14  18
ENDBRANCH   2  14
TORSDOF 8
ENDMDL
MODEL 6
REMARK VINA RESULT:      -4.8      3.320      6.313
REMARK  8 active torsions:
REMARK  status: ('A' for Active; 'I' for Inactive)
REMARK    1  A    between atoms: C_2  and  S_12 
REMARK    2  A    between atoms: C_2  and  C_3 
REMARK    3  A    between atoms: C_3  and  C_19 
REMARK    4  A    between atoms: C_3  and  N_15 
REMARK    5  A    between atoms: C_4  and  C_16 
REMARK    6  A    between atoms: C_4  and  C_5 
REMARK    7  A    between atoms: C_4  and  N_9 
REMARK    8  A    between atoms: C_5  and  C_6 
REMARK       I    between atoms: N_15  and  C_16 
ROOT
HETATM    1  O           1     -22.580  -5.609  -5.675  0.00  0.00    -0.271 OA
HETATM    2  N           1     -20.850  -6.719  -4.801  0.00  0.00    -0.344 N 
HETATM    3  C           1     -21.387  -5.797  -5.659  0.00  0.00     0.249 C 
HETATM    4  H           1     -19.850  -6.875  -4.788  0.00  0.00     0.163 HD
ENDROOT
BRANCH   3   5
HETATM    5  C           1     -20.488  -5.014  -6.584  0.00  0.00     0.284 C 
BRANCH   5   6
HETATM    6  C           1     -21.294  -3.920  -7.272  0.00  0.00     0.155 C 
BRANCH   6   7
HETATM    7  C           1     -21.436  -4.245  -8.738  0.00  0.00     0.175 C 
HETATM    8  O           1     -22.425  -4.893  -9.141  0.00  0.00    -0.648 OA
HETATM    9  O           1     -20.564  -3.866  -9.550  0.00  0.00    -0.648 OA
ENDBRANCH   6   7
ENDBRANCH   5   6
BRANCH   5  10
HETATM   10  N           1     -19.913  -5.936  -7.619  0.00  0.00    -0.066 N 
HETATM   11  H           1     -18.965  -6.253  -7.314  0.00  0.00     0.275 HD
HETATM   12  H           1     -20.537  -6.766  -7.731  0.00  0.00     0.275 HD
HETATM   13  H           1     -19.837  -5.431  -8.531  0.00  0.00     0.275 HD
ENDBRANCH   5  10
ENDBRANCH   3   5
BRANCH   2  14
HETATM   14  C           1     -21.715  -7.471  -3.912  0.00  0.00     0.194 C 
BRANCH  14  15
HETATM   15  C           1     -21.265  -8.926  -3.881  0.00  0.00     0.106 C 
BRANCH  15  16
HETATM   16  S           1     -19.652  -9.080  -4.699  0.00  0.00    -0.180 SA
HETATM   17  H           1     -19.822 -10.350  -5.107  0.00  0.00     0.101 HD
ENDBRANCH  15  16
ENDBRANCH  14  15
BRANCH  14  18
HETATM   18  C           1     -21.634  -6.889  -2.522  0.00  0.00     0.197 C 
HETATM   19  O           1     -20.866  -7.395  -1.676  0.00  0.00    -0.646 OA
HETATM   20  O           1     -22.336  -5.901  -2.218  0.00  0.00    -0.646 OA
ENDBRANCH  14  18
ENDBRANCH   2  14
TORSDOF 8
ENDMDL
MODEL 7
REMARK VINA RESULT:      -4.7      9.803     12.928
REMARK  8 active torsions:
REMARK  status: ('A' for Active; 'I' for Inactive)
REMARK    1  A    between atoms: C_2  and  S_12 
REMARK    2  A    between atoms: C_2  and  C_3 
REMARK    3  A    between atoms: C_3  and  C_19 
REMARK    4  A    between atoms: C_3  and  N_15 
REMARK    5  A    between atoms: C_4  and  C_16 
REMARK    6  A    between atoms: C_4  and  C_5 
REMARK    7  A    between atoms: C_4  and  N_9 
REMARK    8  A    between atoms: C_5  and  C_6 
REMARK       I    between atoms: N_15  and  C_16 
ROOT
HETATM    1  O           1     -27.399  -5.755 -19.326  0.00  0.00    -0.271 OA
HETATM    2  N           1     -25.851  -6.773 -18.079  0.00  0.00    -0.344 N 
HETATM    3  C           1     -26.405  -6.441 -19.286  0.00  0.00     0.249 C 
HETATM    4  H           1     -25.017  -7.347 -18.046  0.00  0.00     0.163 HD
ENDROOT
BRANCH   3   5
HETATM    5  C           1     -25.775  -6.930 -20.567  0.00  0.00     0.284 C 
BRANCH   5   6
HETATM    6  C           1     -24.534  -7.750 -20.242  0.00  0.00     0.155 C 
BRANCH   6   7
HETATM    7  C           1     -23.851  -8.158 -21.524  0.00  0.00     0.175 C 
HETATM    8  O           1     -22.636  -8.449 -21.519  0.00  0.00    -0.648 OA
HETATM    9  O           1     -24.501  -8.205 -22.592  0.00  0.00    -0.648 OA
ENDBRANCH   6   7
ENDBRANCH   5   6
BRANCH   5  10
HETATM   10  N           1     -25.389  -5.753 -21.414  0.00  0.00    -0.066 N 
HETATM   11  H           1     -25.168  -6.078 -22.382  0.00  0.00     0.275 HD
HETATM   12  H           1     -26.183  -5.074 -21.448  0.00  0.00     0.275 HD
HETATM   13  H           1     -24.550  -5.287 -21.000  0.00  0.00     0.275 HD
ENDBRANCH   5  10
ENDBRANCH   3   5
BRANCH   2  14
HETATM   14  C           1     -26.457  -6.303 -16.849  0.00  0.00     0.194 C 
BRANCH  14  15
HETATM   15  C           1     -27.670  -7.164 -16.520  0.00  0.00     0.106 C 
BRANCH  15  16
HETATM   16  S           1     -28.805  -6.231 -15.455  0.00  0.00    -0.180 SA
HETATM   17  H           1     -27.875  -5.844 -14.563  0.00  0.00     0.101 HD
ENDBRANCH  15  16
ENDBRANCH  14  15
BRANCH  14  18
HETATM   18  C           1     -25.453  -6.397 -15.726  0.00  0.00     0.197 C 
HETATM   19  O           1     -24.977  -5.355 -15.225  0.00  0.00    -0.646 OA
HETATM   20  O           1     -25.099  -7.516 -15.298  0.00  0.00    -0.646 OA
ENDBRANCH  14  18
ENDBRANCH   2  14
TORSDOF 8
ENDMDL
MODEL 8
REMARK VINA RESULT:      -4.5      3.392      6.396
REMARK  8 active torsions:
REMARK  status: ('A' for Active; 'I' for Inactive)
REMARK    1  A    between atoms: C_2  and  S_12 
REMARK    2  A    between atoms: C_2  and  C_3 
REMARK    3  A    between atoms: C_3  and  C_19 
REMARK    4  A    between atoms: C_3  and  N_15 
REMARK    5  A    between atoms: C_4  and  C_16 
REMARK    6  A    between atoms: C_4  and  C_5 
REMARK    7  A    between atoms: C_4  and  N_9 
REMARK    8  A    between atoms: C_5  and  C_6 
REMARK       I    between atoms: N_15  and  C_16 
ROOT
HETATM    1  O           1     -20.761  -4.337  -6.210  0.00  0.00    -0.271 OA
HETATM    2  N           1     -21.104  -6.523  -6.517  0.00  0.00    -0.344 N 
HETATM    3  C           1     -21.125  -5.223  -6.947  0.00  0.00     0.249 C 
HETATM    4  H           1     -21.408  -7.265  -7.135  0.00  0.00     0.163 HD
ENDROOT
BRANCH   3   5
HETATM    5  C           1     -21.601  -4.896  -8.341  0.00  0.00     0.284 C 
BRANCH   5   6
HETATM    6  C           1     -20.426  -4.409  -9.179  0.00  0.00     0.155 C 
BRANCH   6   7
HETATM    7  C           1     -20.915  -4.019 -10.552  0.00  0.00     0.175 C 
HETATM    8  O           1     -21.884  -4.620 -11.063  0.00  0.00    -0.648 OA
HETATM    9  O           1     -20.351  -3.095 -11.178  0.00  0.00    -0.648 OA
ENDBRANCH   6   7
ENDBRANCH   5   6
BRANCH   5  10
HETATM   10  N           1     -22.646  -3.822  -8.272  0.00  0.00    -0.066 N 
HETATM   11  H           1     -22.479  -3.125  -9.032  0.00  0.00     0.275 HD
HETATM   12  H           1     -23.592  -4.249  -8.393  0.00  0.00     0.275 HD
HETATM   13  H           1     -22.595  -3.346  -7.343  0.00  0.00     0.275 HD
ENDBRANCH   5  10
ENDBRANCH   3   5
BRANCH   2  14
HETATM   14  C           1     -20.646  -6.836  -5.177  0.00  0.00     0.194 C 
BRANCH  14  15
HETATM   15  C           1     -21.848  -7.113  -4.284  0.00  0.00     0.106 C 
BRANCH  15  16
HETATM   16  S           1     -21.597  -6.324  -2.669  0.00  0.00    -0.180 SA
HETATM   17  H           1     -22.903  -6.197  -2.369  0.00  0.00     0.101 HD
ENDBRANCH  15  16
ENDBRANCH  14  15
BRANCH  14  18
HETATM   18  C           1     -19.759  -8.056  -5.222  0.00  0.00     0.197 C 
HETATM   19  O           1     -19.003  -8.243  -6.199  0.00  0.00    -0.646 OA
HETATM   20  O           1     -19.781  -8.878  -4.281  0.00  0.00    -0.646 OA
ENDBRANCH  14  18
ENDBRANCH   2  14
TORSDOF 8
ENDMDL
MODEL 9
REMARK VINA RESULT:      -4.5      4.079      7.002
REMARK  8 active torsions:
REMARK  status: ('A' for Active; 'I' for Inactive)
REMARK    1  A    between atoms: C_2  and  S_12 
REMARK    2  A    between atoms: C_2  and  C_3 
REMARK    3  A    between atoms: C_3  and  C_19 
REMARK    4  A    between atoms: C_3  and  N_15 
REMARK    5  A    between atoms: C_4  and  C_16 
REMARK    6  A    between atoms: C_4  and  C_5 
REMARK    7  A    between atoms: C_4  and  N_9 
REMARK    8  A    between atoms: C_5  and  C_6 
REMARK       I    between atoms: N_15  and  C_16 
ROOT
HETATM    1  O           1     -22.349  -6.970  -5.077  0.00  0.00    -0.271 OA
HETATM    2  N           1     -20.717  -7.474  -3.637  0.00  0.00    -0.344 N 
HETATM    3  C           1     -21.175  -6.909  -4.798  0.00  0.00     0.249 C 
HETATM    4  H           1     -19.734  -7.422  -3.404  0.00  0.00     0.163 HD
ENDROOT
BRANCH   3   5
HETATM    5  C           1     -20.214  -6.210  -5.728  0.00  0.00     0.284 C 
BRANCH   5   6
HETATM    6  C           1     -20.385  -4.703  -5.597  0.00  0.00     0.155 C 
BRANCH   6   7
HETATM    7  C           1     -20.907  -4.141  -6.897  0.00  0.00     0.175 C 
HETATM    8  O           1     -20.108  -3.728  -7.764  0.00  0.00    -0.648 OA
HETATM    9  O           1     -22.139  -4.090  -7.106  0.00  0.00    -0.648 OA
ENDBRANCH   6   7
ENDBRANCH   5   6
BRANCH   5  10
HETATM   10  N           1     -20.498  -6.625  -7.141  0.00  0.00    -0.066 N 
HETATM   11  H           1     -20.193  -5.868  -7.794  0.00  0.00     0.275 HD
HETATM   12  H           1     -19.973  -7.503  -7.358  0.00  0.00     0.275 HD
HETATM   13  H           1     -21.522  -6.795  -7.255  0.00  0.00     0.275 HD
ENDBRANCH   5  10
ENDBRANCH   3   5
BRANCH   2  14
HETATM   14  C           1     -21.642  -8.145  -2.744  0.00  0.00     0.194 C 
BRANCH  14  15
HETATM   15  C           1     -21.113  -9.537  -2.422  0.00  0.00     0.106 C 
BRANCH  15  16
HETATM   16  S           1     -22.249 -10.786  -3.089  0.00  0.00    -0.180 SA
HETATM   17  H           1     -21.356 -11.362  -3.914  0.00  0.00     0.101 HD
ENDBRANCH  15  16
ENDBRANCH  14  15
BRANCH  14  18
HETATM   18  C           1     -21.776  -7.349  -1.469  0.00  0.00     0.197 C 
HETATM   19  O           1     -22.287  -6.209  -1.496  0.00  0.00    -0.646 OA
HETATM   20  O           1     -21.375  -7.830  -0.388  0.00  0.00    -0.646 OA
ENDBRANCH  14  18
ENDBRANCH   2  14
TORSDOF 8
ENDMDL
