MODEL 1
REMARK VINA RESULT:      -6.0      0.000      0.000
REMARK  9 active torsions:
REMARK  status: ('A' for Active; 'I' for Inactive)
REMARK    1  A    between atoms: C_3  and  C_4 
REMARK    2  A    between atoms: C_3  and  C_11 
REMARK    3  A    between atoms: N_6  and  C_21 
REMARK    4  A    between atoms: S_8  and  C_9 
REMARK    5  A    between atoms: C_9  and  C_12 
REMARK    6  A    between atoms: C_11  and  C_13 
REMARK    7  A    between atoms: C_11  and  N_19 
REMARK    8  A    between atoms: C_12  and  C_21 
REMARK       I    between atoms: N_19  and  C_20 
REMARK    9  A    between atoms: C_20  and  C_21 
ROOT
HETATM    1  O           1     -33.602  -1.901 -11.169  0.00  0.00    -0.271 OA
HETATM    2  H           1     -35.957  -2.132 -13.228  0.00  0.00     0.163 HD
HETATM    3  N           1     -35.350  -1.699 -12.544  0.00  0.00    -0.344 N 
HETATM    4  C           1     -34.326  -2.417 -11.987  0.00  0.00     0.249 C 
ENDROOT
BRANCH   4   5
HETATM    5  C           1     -34.103  -3.853 -12.393  0.00  0.00     0.275 C 
BRANCH   5   6
HETATM    6  N           1     -33.901  -3.926 -13.877  0.00  0.00    -0.066 N 
HETATM    7  H           1     -32.910  -3.688 -14.107  0.00  0.00     0.275 HD
HETATM    8  H           1     -34.540  -3.249 -14.350  0.00  0.00     0.275 HD
HETATM    9  H           1     -34.113  -4.895 -14.210  0.00  0.00     0.275 HD
ENDBRANCH   5   6
BRANCH   5  10
HETATM   10  C           1     -32.868  -4.395 -11.686  0.00  0.00     0.053 C 
BRANCH  10  11
HETATM   11  C           1     -33.143  -5.811 -11.195  0.00  0.00     0.076 C 
BRANCH  11  12
HETATM   12  S           1     -34.765  -5.865 -10.382  0.00  0.00    -0.173 SA
HETATM   13  C           1     -34.764  -7.651 -10.056  0.00  0.00     0.089 C 
ENDBRANCH  11  12
ENDBRANCH  10  11
ENDBRANCH   5  10
ENDBRANCH   4   5
BRANCH   3  14
HETATM   14  C           1     -35.564  -0.320 -12.154  0.00  0.00     0.189 C 
BRANCH  14  15
HETATM   15  C           1     -35.917   0.507 -13.384  0.00  0.00     0.014 C 
HETATM   16  C           1     -34.658   1.170 -13.927  0.00  0.00     0.012 C 
BRANCH  15  17
HETATM   17  C           1     -36.512  -0.402 -14.451  0.00  0.00     0.002 C 
HETATM   18  C           1     -35.777  -0.191 -15.768  0.00  0.00     0.005 C 
ENDBRANCH  15  17
ENDBRANCH  14  15
BRANCH  14  19
HETATM   19  C           1     -36.697  -0.249 -11.159  0.00  0.00     0.197 C 
HETATM   20  O           1     -37.680  -1.012 -11.277  0.00  0.00    -0.646 OA
HETATM   21  O           1     -36.651   0.571 -10.216  0.00  0.00    -0.646 OA
ENDBRANCH  14  19
ENDBRANCH   3  14
TORSDOF 9
ENDMDL
MODEL 2
REMARK VINA RESULT:      -5.7      4.092      5.627
REMARK  9 active torsions:
REMARK  status: ('A' for Active; 'I' for Inactive)
REMARK    1  A    between atoms: C_3  and  C_4 
REMARK    2  A    between atoms: C_3  and  C_11 
REMARK    3  A    between atoms: N_6  and  C_21 
REMARK    4  A    between atoms: S_8  and  C_9 
REMARK    5  A    between atoms: C_9  and  C_12 
REMARK    6  A    between atoms: C_11  and  C_13 
REMARK    7  A    between atoms: C_11  and  N_19 
REMARK    8  A    between atoms: C_12  and  C_21 
REMARK       I    between atoms: N_19  and  C_20 
REMARK    9  A    between atoms: C_20  and  C_21 
ROOT
HETATM    1  O           1     -35.057  -5.059 -15.409  0.00  0.00    -0.271 OA
HETATM    2  H           1     -32.592  -3.537 -14.205  0.00  0.00     0.163 HD
HETATM    3  N           1     -33.503  -3.979 -14.223  0.00  0.00    -0.344 N 
HETATM    4  C           1     -33.970  -4.532 -15.385  0.00  0.00     0.249 C 
ENDROOT
BRANCH   4   5
HETATM    5  C           1     -33.130  -4.481 -16.638  0.00  0.00     0.275 C 
BRANCH   5   6
HETATM    6  N           1     -33.246  -3.122 -17.261  0.00  0.00    -0.066 N 
HETATM    7  H           1     -33.317  -3.219 -18.299  0.00  0.00     0.275 HD
HETATM    8  H           1     -32.401  -2.556 -17.023  0.00  0.00     0.275 HD
HETATM    9  H           1     -34.100  -2.643 -16.896  0.00  0.00     0.275 HD
ENDBRANCH   5   6
BRANCH   5  10
HETATM   10  C           1     -31.675  -4.755 -16.285  0.00  0.00     0.053 C 
BRANCH  10  11
HETATM   11  C           1     -30.968  -5.374 -17.484  0.00  0.00     0.076 C 
BRANCH  11  12
HETATM   12  S           1     -29.782  -6.623 -16.911  0.00  0.00    -0.173 SA
HETATM   13  C           1     -29.922  -7.710 -18.357  0.00  0.00     0.089 C 
ENDBRANCH  11  12
ENDBRANCH  10  11
ENDBRANCH   5  10
ENDBRANCH   4   5
BRANCH   3  14
HETATM   14  C           1     -34.310  -4.028 -13.021  0.00  0.00     0.189 C 
BRANCH  14  15
HETATM   15  C           1     -33.416  -4.313 -11.820  0.00  0.00     0.014 C 
HETATM   16  C           1     -32.823  -3.006 -11.310  0.00  0.00     0.012 C 
BRANCH  15  17
HETATM   17  C           1     -34.241  -4.961 -10.717  0.00  0.00     0.002 C 
HETATM   18  C           1     -34.068  -6.473 -10.774  0.00  0.00     0.005 C 
ENDBRANCH  15  17
ENDBRANCH  14  15
BRANCH  14  19
HETATM   19  C           1     -35.005  -2.702 -12.828  0.00  0.00     0.197 C 
HETATM   20  O           1     -35.818  -2.553 -11.891  0.00  0.00    -0.646 OA
HETATM   21  O           1     -34.766  -1.752 -13.606  0.00  0.00    -0.646 OA
ENDBRANCH  14  19
ENDBRANCH   3  14
TORSDOF 9
ENDMDL
MODEL 3
REMARK VINA RESULT:      -5.4      3.120      5.738
REMARK  9 active torsions:
REMARK  status: ('A' for Active; 'I' for Inactive)
REMARK    1  A    between atoms: C_3  and  C_4 
REMARK    2  A    between atoms: C_3  and  C_11 
REMARK    3  A    between atoms: N_6  and  C_21 
REMARK    4  A    between atoms: S_8  and  C_9 
REMARK    5  A    between atoms: C_9  and  C_12 
REMARK    6  A    between atoms: C_11  and  C_13 
REMARK    7  A    between atoms: C_11  and  N_19 
REMARK    8  A    between atoms: C_12  and  C_21 
REMARK       I    between atoms: N_19  and  C_20 
REMARK    9  A    between atoms: C_20  and  C_21 
ROOT
HETATM    1  O           1     -34.760   0.101 -11.930  0.00  0.00    -0.271 OA
HETATM    2  H           1     -36.276  -2.610 -11.494  0.00  0.00     0.163 HD
HETATM    3  N           1     -35.551  -1.984 -11.820  0.00  0.00    -0.344 N 
HETATM    4  C           1     -35.625  -0.646 -11.540  0.00  0.00     0.249 C 
ENDROOT
BRANCH   4   5
HETATM    5  C           1     -36.788  -0.104 -10.745  0.00  0.00     0.275 C 
BRANCH   5   6
HETATM    6  N           1     -38.073  -0.481 -11.422  0.00  0.00    -0.066 N 
HETATM    7  H           1     -37.972  -0.358 -12.454  0.00  0.00     0.275 HD
HETATM    8  H           1     -38.844   0.131 -11.073  0.00  0.00     0.275 HD
HETATM    9  H           1     -38.298  -1.480 -11.210  0.00  0.00     0.275 HD
ENDBRANCH   5   6
BRANCH   5  10
HETATM   10  C           1     -36.763  -0.692  -9.342  0.00  0.00     0.053 C 
BRANCH  10  11
HETATM   11  C           1     -37.871  -0.063  -8.506  0.00  0.00     0.076 C 
BRANCH  11  12
HETATM   12  S           1     -37.254   1.459  -7.732  0.00  0.00    -0.173 SA
HETATM   13  C           1     -37.118   0.786  -6.052  0.00  0.00     0.089 C 
ENDBRANCH  11  12
ENDBRANCH  10  11
ENDBRANCH   5  10
ENDBRANCH   4   5
BRANCH   3  14
HETATM   14  C           1     -34.434  -2.504 -12.583  0.00  0.00     0.189 C 
BRANCH  14  15
HETATM   15  C           1     -34.122  -3.923 -12.123  0.00  0.00     0.014 C 
HETATM   16  C           1     -32.641  -4.031 -11.785  0.00  0.00     0.012 C 
BRANCH  15  17
HETATM   17  C           1     -34.950  -4.248 -10.888  0.00  0.00     0.002 C 
HETATM   18  C           1     -34.514  -5.593 -10.322  0.00  0.00     0.005 C 
ENDBRANCH  15  17
ENDBRANCH  14  15
BRANCH  14  19
HETATM   19  C           1     -34.791  -2.517 -14.050  0.00  0.00     0.197 C 
HETATM   20  O           1     -35.333  -1.519 -14.569  0.00  0.00    -0.646 OA
HETATM   21  O           1     -34.542  -3.526 -14.744  0.00  0.00    -0.646 OA
ENDBRANCH  14  19
ENDBRANCH   3  14
TORSDOF 9
ENDMDL
MODEL 4
REMARK VINA RESULT:      -5.3     14.142     16.793
REMARK  9 active torsions:
REMARK  status: ('A' for Active; 'I' for Inactive)
REMARK    1  A    between atoms: C_3  and  C_4 
REMARK    2  A    between atoms: C_3  and  C_11 
REMARK    3  A    between atoms: N_6  and  C_21 
REMARK    4  A    between atoms: S_8  and  C_9 
REMARK    5  A    between atoms: C_9  and  C_12 
REMARK    6  A    between atoms: C_11  and  C_13 
REMARK    7  A    between atoms: C_11  and  N_19 
REMARK    8  A    between atoms: C_12  and  C_21 
REMARK       I    between atoms: N_19  and  C_20 
REMARK    9  A    between atoms: C_20  and  C_21 
ROOT
HETATM    1  O           1     -19.872  -5.285  -6.480  0.00  0.00    -0.271 OA
HETATM    2  H           1     -22.583  -6.416  -5.379  0.00  0.00     0.163 HD
HETATM    3  N           1     -21.581  -6.314  -5.475  0.00  0.00    -0.344 N 
HETATM    4  C           1     -21.069  -5.407  -6.364  0.00  0.00     0.249 C 
ENDROOT
BRANCH   4   5
HETATM    5  C           1     -21.997  -4.562  -7.201  0.00  0.00     0.275 C 
BRANCH   5   6
HETATM    6  N           1     -21.609  -3.119  -7.074  0.00  0.00    -0.066 N 
HETATM    7  H           1     -21.083  -2.977  -6.183  0.00  0.00     0.275 HD
HETATM    8  H           1     -22.468  -2.526  -7.070  0.00  0.00     0.275 HD
HETATM    9  H           1     -21.003  -2.850  -7.883  0.00  0.00     0.275 HD
ENDBRANCH   5   6
BRANCH   5  10
HETATM   10  C           1     -21.898  -4.988  -8.659  0.00  0.00     0.053 C 
BRANCH  10  11
HETATM   11  C           1     -22.766  -4.076  -9.516  0.00  0.00     0.076 C 
BRANCH  11  12
HETATM   12  S           1     -21.906  -3.709 -11.072  0.00  0.00    -0.173 SA
HETATM   13  C           1     -20.318  -4.450 -10.601  0.00  0.00     0.089 C 
ENDBRANCH  11  12
ENDBRANCH  10  11
ENDBRANCH   5  10
ENDBRANCH   4   5
BRANCH   3  14
HETATM   14  C           1     -20.688  -7.125  -4.672  0.00  0.00     0.189 C 
BRANCH  14  15
HETATM   15  C           1     -21.384  -7.509  -3.371  0.00  0.00     0.014 C 
HETATM   16  C           1     -20.398  -8.233  -2.464  0.00  0.00     0.012 C 
BRANCH  15  17
HETATM   17  C           1     -21.885  -6.251  -2.675  0.00  0.00     0.002 C 
HETATM   18  C           1     -22.282  -6.585  -1.243  0.00  0.00     0.005 C 
ENDBRANCH  15  17
ENDBRANCH  14  15
BRANCH  14  19
HETATM   19  C           1     -20.322  -8.375  -5.434  0.00  0.00     0.197 C 
HETATM   20  O           1     -21.213  -9.183  -5.773  0.00  0.00    -0.646 OA
HETATM   21  O           1     -19.129  -8.601  -5.728  0.00  0.00    -0.646 OA
ENDBRANCH  14  19
ENDBRANCH   3  14
TORSDOF 9
ENDMDL
MODEL 5
REMARK VINA RESULT:      -5.3      2.117      2.972
REMARK  9 active torsions:
REMARK  status: ('A' for Active; 'I' for Inactive)
REMARK    1  A    between atoms: C_3  and  C_4 
REMARK    2  A    between atoms: C_3  and  C_11 
REMARK    3  A    between atoms: N_6  and  C_21 
REMARK    4  A    between atoms: S_8  and  C_9 
REMARK    5  A    between atoms: C_9  and  C_12 
REMARK    6  A    between atoms: C_11  and  C_13 
REMARK    7  A    between atoms: C_11  and  N_19 
REMARK    8  A    between atoms: C_12  and  C_21 
REMARK       I    between atoms: N_19  and  C_20 
REMARK    9  A    between atoms: C_20  and  C_21 
ROOT
HETATM    1  O           1     -34.538  -3.220 -13.296  0.00  0.00    -0.271 OA
HETATM    2  H           1     -34.503  -0.623 -11.538  0.00  0.00     0.163 HD
HETATM    3  N           1     -34.774  -1.239 -12.294  0.00  0.00    -0.344 N 
HETATM    4  C           1     -34.216  -2.485 -12.393  0.00  0.00     0.249 C 
ENDROOT
BRANCH   4   5
HETATM    5  C           1     -33.199  -2.941 -11.377  0.00  0.00     0.275 C 
BRANCH   5   6
HETATM    6  N           1     -33.580  -2.421 -10.022  0.00  0.00    -0.066 N 
HETATM    7  H           1     -34.602  -2.202 -10.008  0.00  0.00     0.275 HD
HETATM    8  H           1     -33.036  -1.554  -9.816  0.00  0.00     0.275 HD
HETATM    9  H           1     -33.368  -3.146  -9.299  0.00  0.00     0.275 HD
ENDBRANCH   5   6
BRANCH   5  10
HETATM   10  C           1     -33.159  -4.462 -11.343  0.00  0.00     0.053 C 
BRANCH  10  11
HETATM   11  C           1     -34.326  -4.983 -10.514  0.00  0.00     0.076 C 
BRANCH  11  12
HETATM   12  S           1     -34.988  -6.489 -11.281  0.00  0.00    -0.173 SA
HETATM   13  C           1     -34.701  -7.580  -9.859  0.00  0.00     0.089 C 
ENDBRANCH  11  12
ENDBRANCH  10  11
ENDBRANCH   5  10
ENDBRANCH   4   5
BRANCH   3  14
HETATM   14  C           1     -35.751  -0.801 -13.271  0.00  0.00     0.189 C 
BRANCH  14  15
HETATM   15  C           1     -36.837   0.009 -12.575  0.00  0.00     0.014 C 
HETATM   16  C           1     -38.075   0.063 -13.460  0.00  0.00     0.012 C 
BRANCH  15  17
HETATM   17  C           1     -37.190  -0.652 -11.249  0.00  0.00     0.002 C 
HETATM   18  C           1     -37.506   0.420 -10.214  0.00  0.00     0.005 C 
ENDBRANCH  15  17
ENDBRANCH  14  15
BRANCH  14  19
HETATM   19  C           1     -35.072   0.056 -14.311  0.00  0.00     0.197 C 
HETATM   20  O           1     -35.068  -0.301 -15.509  0.00  0.00    -0.646 OA
HETATM   21  O           1     -34.515   1.124 -13.975  0.00  0.00    -0.646 OA
ENDBRANCH  14  19
ENDBRANCH   3  14
TORSDOF 9
ENDMDL
MODEL 6
REMARK VINA RESULT:      -5.3      2.623      6.268
REMARK  9 active torsions:
REMARK  status: ('A' for Active; 'I' for Inactive)
REMARK    1  A    between atoms: C_3  and  C_4 
REMARK    2  A    between atoms: C_3  and  C_11 
REMARK    3  A    between atoms: N_6  and  C_21 
REMARK    4  A    between atoms: S_8  and  C_9 
REMARK    5  A    between atoms: C_9  and  C_12 
REMARK    6  A    between atoms: C_11  and  C_13 
REMARK    7  A    between atoms: C_11  and  N_19 
REMARK    8  A    between atoms: C_12  and  C_21 
REMARK       I    between atoms: N_19  and  C_20 
REMARK    9  A    between atoms: C_20  and  C_21 
ROOT
HETATM    1  O           1     -34.497  -1.411 -10.082  0.00  0.00    -0.271 OA
HETATM    2  H           1     -36.092  -3.071 -12.212  0.00  0.00     0.163 HD
HETATM    3  N           1     -35.377  -2.870 -11.525  0.00  0.00    -0.344 N 
HETATM    4  C           1     -35.352  -1.652 -10.901  0.00  0.00     0.249 C 
ENDROOT
BRANCH   4   5
HETATM    5  C           1     -36.389  -0.609 -11.238  0.00  0.00     0.275 C 
BRANCH   5   6
HETATM    6  N           1     -36.374   0.466 -10.192  0.00  0.00    -0.066 N 
HETATM    7  H           1     -35.504   0.382  -9.619  0.00  0.00     0.275 HD
HETATM    8  H           1     -37.209   0.362  -9.573  0.00  0.00     0.275 HD
HETATM    9  H           1     -36.398   1.403 -10.655  0.00  0.00     0.275 HD
ENDBRANCH   5   6
BRANCH   5  10
HETATM   10  C           1     -36.075   0.002 -12.596  0.00  0.00     0.053 C 
BRANCH  10  11
HETATM   11  C           1     -37.291  -0.125 -13.505  0.00  0.00     0.076 C 
BRANCH  11  12
HETATM   12  S           1     -36.782   0.101 -15.233  0.00  0.00    -0.173 SA
HETATM   13  C           1     -35.280   1.056 -14.875  0.00  0.00     0.089 C 
ENDBRANCH  11  12
ENDBRANCH  10  11
ENDBRANCH   5  10
ENDBRANCH   4   5
BRANCH   3  14
HETATM   14  C           1     -34.380  -3.871 -11.202  0.00  0.00     0.189 C 
BRANCH  14  15
HETATM   15  C           1     -35.060  -5.221 -11.013  0.00  0.00     0.014 C 
HETATM   16  C           1     -35.093  -5.962 -12.343  0.00  0.00     0.012 C 
BRANCH  15  17
HETATM   17  C           1     -34.281  -6.042  -9.993  0.00  0.00     0.002 C 
HETATM   18  C           1     -34.799  -7.474  -9.991  0.00  0.00     0.005 C 
ENDBRANCH  15  17
ENDBRANCH  14  15
BRANCH  14  19
HETATM   19  C           1     -33.378  -3.965 -12.327  0.00  0.00     0.197 C 
HETATM   20  O           1     -32.223  -4.385 -12.101  0.00  0.00    -0.646 OA
HETATM   21  O           1     -33.705  -3.623 -13.484  0.00  0.00    -0.646 OA
ENDBRANCH  14  19
ENDBRANCH   3  14
TORSDOF 9
ENDMDL
MODEL 7
REMARK VINA RESULT:      -5.2      2.420      3.250
REMARK  9 active torsions:
REMARK  status: ('A' for Active; 'I' for Inactive)
REMARK    1  A    between atoms: C_3  and  C_4 
REMARK    2  A    between atoms: C_3  and  C_11 
REMARK    3  A    between atoms: N_6  and  C_21 
REMARK    4  A    between atoms: S_8  and  C_9 
REMARK    5  A    between atoms: C_9  and  C_12 
REMARK    6  A    between atoms: C_11  and  C_13 
REMARK    7  A    between atoms: C_11  and  N_19 
REMARK    8  A    between atoms: C_12  and  C_21 
REMARK       I    between atoms: N_19  and  C_20 
REMARK    9  A    between atoms: C_20  and  C_21 
ROOT
HETATM    1  O           1     -36.567  -1.515 -12.321  0.00  0.00    -0.271 OA
HETATM    2  H           1     -34.115  -1.381 -14.273  0.00  0.00     0.163 HD
HETATM    3  N           1     -35.058  -1.225 -13.942  0.00  0.00    -0.344 N 
HETATM    4  C           1     -35.440  -1.700 -12.716  0.00  0.00     0.249 C 
ENDROOT
BRANCH   4   5
HETATM    5  C           1     -34.455  -2.455 -11.858  0.00  0.00     0.275 C 
BRANCH   5   6
HETATM    6  N           1     -33.790  -1.505 -10.907  0.00  0.00    -0.066 N 
HETATM    7  H           1     -32.793  -1.370 -11.189  0.00  0.00     0.275 HD
HETATM    8  H           1     -33.827  -1.896  -9.940  0.00  0.00     0.275 HD
HETATM    9  H           1     -34.287  -0.585 -10.930  0.00  0.00     0.275 HD
ENDBRANCH   5   6
BRANCH   5  10
HETATM   10  C           1     -35.188  -3.532 -11.070  0.00  0.00     0.053 C 
BRANCH  10  11
HETATM   11  C           1     -35.024  -4.875 -11.769  0.00  0.00     0.076 C 
BRANCH  11  12
HETATM   12  S           1     -33.658  -5.793 -11.004  0.00  0.00    -0.173 SA
HETATM   13  C           1     -34.680  -7.108 -10.284  0.00  0.00     0.089 C 
ENDBRANCH  11  12
ENDBRANCH  10  11
ENDBRANCH   5  10
ENDBRANCH   4   5
BRANCH   3  14
HETATM   14  C           1     -36.005  -0.500 -14.765  0.00  0.00     0.189 C 
BRANCH  14  15
HETATM   15  C           1     -35.725   0.995 -14.663  0.00  0.00     0.014 C 
HETATM   16  C           1     -34.496   1.222 -13.794  0.00  0.00     0.012 C 
BRANCH  15  17
HETATM   17  C           1     -35.475   1.559 -16.055  0.00  0.00     0.002 C 
HETATM   18  C           1     -36.352   2.786 -16.272  0.00  0.00     0.005 C 
ENDBRANCH  15  17
ENDBRANCH  14  15
BRANCH  14  19
HETATM   19  C           1     -35.864  -0.941 -16.201  0.00  0.00     0.197 C 
HETATM   20  O           1     -36.797  -0.747 -17.009  0.00  0.00    -0.646 OA
HETATM   21  O           1     -34.812  -1.500 -16.583  0.00  0.00    -0.646 OA
ENDBRANCH  14  19
ENDBRANCH   3  14
TORSDOF 9
ENDMDL
MODEL 8
REMARK VINA RESULT:      -5.1     14.098     16.968
REMARK  9 active torsions:
REMARK  status: ('A' for Active; 'I' for Inactive)
REMARK    1  A    between atoms: C_3  and  C_4 
REMARK    2  A    between atoms: C_3  and  C_11 
REMARK    3  A    between atoms: N_6  and  C_21 
REMARK    4  A    between atoms: S_8  and  C_9 
REMARK    5  A    between atoms: C_9  and  C_12 
REMARK    6  A    between atoms: C_11  and  C_13 
REMARK    7  A    between atoms: C_11  and  N_19 
REMARK    8  A    between atoms: C_12  and  C_21 
REMARK       I    between atoms: N_19  and  C_20 
REMARK    9  A    between atoms: C_20  and  C_21 
ROOT
HETATM    1  O           1     -22.733  -5.953  -5.436  0.00  0.00    -0.271 OA
HETATM    2  H           1     -19.828  -6.810  -4.616  0.00  0.00     0.163 HD
HETATM    3  N           1     -20.840  -6.789  -4.595  0.00  0.00    -0.344 N 
HETATM    4  C           1     -21.525  -5.980  -5.461  0.00  0.00     0.249 C 
ENDROOT
BRANCH   4   5
HETATM    5  C           1     -20.773  -5.119  -6.446  0.00  0.00     0.275 C 
BRANCH   5   6
HETATM    6  N           1     -20.122  -5.993  -7.477  0.00  0.00    -0.066 N 
HETATM    7  H           1     -19.406  -6.600  -7.017  0.00  0.00     0.275 HD
HETATM    8  H           1     -19.660  -5.397  -8.199  0.00  0.00     0.275 HD
HETATM    9  H           1     -20.847  -6.594  -7.932  0.00  0.00     0.275 HD
ENDBRANCH   5   6
BRANCH   5  10
HETATM   10  C           1     -21.741  -4.164  -7.130  0.00  0.00     0.053 C 
BRANCH  10  11
HETATM   11  C           1     -21.870  -4.537  -8.602  0.00  0.00     0.076 C 
BRANCH  11  12
HETATM   12  S           1     -23.326  -3.716  -9.309  0.00  0.00    -0.173 SA
HETATM   13  C           1     -23.732  -5.024 -10.501  0.00  0.00     0.089 C 
ENDBRANCH  11  12
ENDBRANCH  10  11
ENDBRANCH   5  10
ENDBRANCH   4   5
BRANCH   3  14
HETATM   14  C           1     -21.563  -7.615  -3.649  0.00  0.00     0.189 C 
BRANCH  14  15
HETATM   15  C           1     -20.877  -8.971  -3.531  0.00  0.00     0.014 C 
HETATM   16  C           1     -21.769 -10.044  -4.141  0.00  0.00     0.012 C 
BRANCH  15  17
HETATM   17  C           1     -19.549  -8.932  -4.275  0.00  0.00     0.002 C 
HETATM   18  C           1     -18.430  -9.372  -3.340  0.00  0.00     0.005 C 
ENDBRANCH  15  17
ENDBRANCH  14  15
BRANCH  14  19
HETATM   19  C           1     -21.577  -6.939  -2.300  0.00  0.00     0.197 C 
HETATM   20  O           1     -20.923  -7.425  -1.351  0.00  0.00    -0.646 OA
HETATM   21  O           1     -22.240  -5.893  -2.131  0.00  0.00    -0.646 OA
ENDBRANCH  14  19
ENDBRANCH   3  14
TORSDOF 9
ENDMDL
MODEL 9
REMARK VINA RESULT:      -4.8     14.399     16.110
REMARK  9 active torsions:
REMARK  status: ('A' for Active; 'I' for Inactive)
REMARK    1  A    between atoms: C_3  and  C_4 
REMARK    2  A    between atoms: C_3  and  C_11 
REMARK    3  A    between atoms: N_6  and  C_21 
REMARK    4  A    between atoms: S_8  and  C_9 
REMARK    5  A    between atoms: C_9  and  C_12 
REMARK    6  A    between atoms: C_11  and  C_13 
REMARK    7  A    between atoms: C_11  and  N_19 
REMARK    8  A    between atoms: C_12  and  C_21 
REMARK       I    between atoms: N_19  and  C_20 
REMARK    9  A    between atoms: C_20  and  C_21 
ROOT
HETATM    1  O           1     -20.917  -5.597  -4.356  0.00  0.00    -0.271 OA
HETATM    2  H           1     -20.922  -6.679  -7.301  0.00  0.00     0.163 HD
HETATM    3  N           1     -20.962  -5.999  -6.553  0.00  0.00    -0.344 N 
HETATM    4  C           1     -20.868  -6.409  -5.250  0.00  0.00     0.249 C 
ENDROOT
BRANCH   4   5
HETATM    5  C           1     -20.707  -7.874  -4.929  0.00  0.00     0.275 C 
BRANCH   5   6
HETATM    6  N           1     -19.646  -8.464  -5.812  0.00  0.00    -0.066 N 
HETATM    7  H           1     -19.145  -7.697  -6.314  0.00  0.00     0.275 HD
HETATM    8  H           1     -20.089  -9.104  -6.508  0.00  0.00     0.275 HD
HETATM    9  H           1     -18.967  -9.001  -5.227  0.00  0.00     0.275 HD
ENDBRANCH   5   6
BRANCH   5  10
HETATM   10  C           1     -20.299  -8.034  -3.471  0.00  0.00     0.053 C 
BRANCH  10  11
HETATM   11  C           1     -21.461  -8.621  -2.680  0.00  0.00     0.076 C 
BRANCH  11  12
HETATM   12  S           1     -21.152  -8.408  -0.904  0.00  0.00    -0.173 SA
HETATM   13  C           1     -22.453  -7.175  -0.621  0.00  0.00     0.089 C 
ENDBRANCH  11  12
ENDBRANCH  10  11
ENDBRANCH   5  10
ENDBRANCH   4   5
BRANCH   3  14
HETATM   14  C           1     -21.117  -4.591  -6.860  0.00  0.00     0.189 C 
BRANCH  14  15
HETATM   15  C           1     -20.155  -4.206  -7.977  0.00  0.00     0.014 C 
HETATM   16  C           1     -18.732  -4.186  -7.435  0.00  0.00     0.012 C 
BRANCH  15  17
HETATM   17  C           1     -20.255  -5.225  -9.105  0.00  0.00     0.002 C 
HETATM   18  C           1     -20.198  -4.506 -10.446  0.00  0.00     0.005 C 
ENDBRANCH  15  17
ENDBRANCH  14  15
BRANCH  14  19
HETATM   19  C           1     -22.535  -4.327  -7.304  0.00  0.00     0.197 C 
HETATM   20  O           1     -23.493  -4.738  -6.614  0.00  0.00    -0.646 OA
HETATM   21  O           1     -22.752  -3.698  -8.363  0.00  0.00    -0.646 OA
ENDBRANCH  14  19
ENDBRANCH   3  14
TORSDOF 9
ENDMDL
