MODEL 1
REMARK VINA RESULT:      -5.9      0.000      0.000
REMARK  8 active torsions:
REMARK  status: ('A' for Active; 'I' for Inactive)
REMARK    1  A    between atoms: C_4  and  C_5 
REMARK    2  A    between atoms: C_5  and  C_15 
REMARK    3  A    between atoms: C_5  and  N_11 
REMARK    4  A    between atoms: C_6  and  C_9 
REMARK    5  A    between atoms: C_9  and  C_16 
REMARK    6  A    between atoms: C_9  and  N_20 
REMARK       I    between atoms: N_11  and  C_16 
REMARK    7  A    between atoms: C_12  and  S_13 
REMARK    8  A    between atoms: C_12  and  C_15 
ROOT
HETATM    1  H           1     -36.282  -2.165 -13.284  0.00  0.00     0.163 HD
HETATM    2  N           1     -35.658  -1.660 -12.667  0.00  0.00    -0.345 N 
HETATM    3  C           1     -34.617  -2.313 -12.063  0.00  0.00     0.249 C 
HETATM    4  O           1     -33.872  -1.711 -11.326  0.00  0.00    -0.271 OA
ENDROOT
BRANCH   2   5
HETATM    5  C           1     -35.868  -0.246 -12.422  0.00  0.00     0.186 C 
BRANCH   5   6
HETATM    6  C           1     -36.899  -0.073 -11.334  0.00  0.00     0.196 C 
HETATM    7  O           1     -38.000  -0.660 -11.419  0.00  0.00    -0.646 OA
HETATM    8  O           1     -36.654   0.657 -10.351  0.00  0.00    -0.646 OA
ENDBRANCH   5   6
BRANCH   5   9
HETATM    9  C           1     -36.357   0.422 -13.700  0.00  0.00     0.046 C 
BRANCH   9  10
HETATM   10  C           1     -35.293   0.292 -14.781  0.00  0.00     0.076 C 
BRANCH  10  11
HETATM   11  S           1     -35.981  -0.599 -16.204  0.00  0.00    -0.173 SA
HETATM   12  C           1     -37.726  -0.317 -15.792  0.00  0.00     0.089 C 
ENDBRANCH  10  11
ENDBRANCH   9  10
ENDBRANCH   5   9
ENDBRANCH   2   5
BRANCH   3  13
HETATM   13  C           1     -34.399  -3.784 -12.317  0.00  0.00     0.278 C 
BRANCH  13  14
HETATM   14  C           1     -33.397  -4.332 -11.309  0.00  0.00     0.017 C 
HETATM   15  C           1     -33.969  -5.581 -10.652  0.00  0.00     0.012 C 
HETATM   16  C           1     -32.099  -4.684 -12.023  0.00  0.00     0.012 C 
ENDBRANCH  13  14
BRANCH  13  17
HETATM   17  N           1     -33.866  -3.977 -13.706  0.00  0.00    -0.066 N 
HETATM   18  H           1     -33.487  -4.946 -13.802  0.00  0.00     0.275 HD
HETATM   19  H           1     -34.637  -3.836 -14.397  0.00  0.00     0.275 HD
HETATM   20  H           1     -33.105  -3.284 -13.887  0.00  0.00     0.275 HD
ENDBRANCH  13  17
ENDBRANCH   3  13
TORSDOF 8
ENDMDL
MODEL 2
REMARK VINA RESULT:      -5.8     11.976     13.776
REMARK  8 active torsions:
REMARK  status: ('A' for Active; 'I' for Inactive)
REMARK    1  A    between atoms: C_4  and  C_5 
REMARK    2  A    between atoms: C_5  and  C_15 
REMARK    3  A    between atoms: C_5  and  N_11 
REMARK    4  A    between atoms: C_6  and  C_9 
REMARK    5  A    between atoms: C_9  and  C_16 
REMARK    6  A    between atoms: C_9  and  N_20 
REMARK       I    between atoms: N_11  and  C_16 
REMARK    7  A    between atoms: C_12  and  S_13 
REMARK    8  A    between atoms: C_12  and  C_15 
ROOT
HETATM    1  H           1     -22.190  -5.836  -9.597  0.00  0.00     0.163 HD
HETATM    2  N           1     -22.258  -4.922  -9.168  0.00  0.00    -0.345 N 
HETATM    3  C           1     -21.827  -4.736  -7.882  0.00  0.00     0.249 C 
HETATM    4  O           1     -21.908  -3.645  -7.370  0.00  0.00    -0.271 OA
ENDROOT
BRANCH   2   5
HETATM    5  C           1     -22.812  -3.809  -9.916  0.00  0.00     0.186 C 
BRANCH   5   6
HETATM    6  C           1     -24.316  -3.827  -9.801  0.00  0.00     0.196 C 
HETATM    7  O           1     -24.939  -4.903  -9.933  0.00  0.00    -0.646 OA
HETATM    8  O           1     -24.939  -2.768  -9.577  0.00  0.00    -0.646 OA
ENDBRANCH   5   6
BRANCH   5   9
HETATM    9  C           1     -22.411  -3.933 -11.379  0.00  0.00     0.046 C 
BRANCH   9  10
HETATM   10  C           1     -22.543  -2.576 -12.059  0.00  0.00     0.076 C 
BRANCH  10  11
HETATM   11  S           1     -23.907  -2.629 -13.255  0.00  0.00    -0.173 SA
HETATM   12  C           1     -22.867  -2.679 -14.742  0.00  0.00     0.089 C 
ENDBRANCH  10  11
ENDBRANCH   9  10
ENDBRANCH   5   9
ENDBRANCH   2   5
BRANCH   3  13
HETATM   13  C           1     -21.251  -5.893  -7.104  0.00  0.00     0.278 C 
BRANCH  13  14
HETATM   14  C           1     -21.477  -5.667  -5.614  0.00  0.00     0.017 C 
HETATM   15  C           1     -21.787  -6.998  -4.940  0.00  0.00     0.012 C 
HETATM   16  C           1     -20.221  -5.067  -4.997  0.00  0.00     0.012 C 
ENDBRANCH  13  14
BRANCH  13  17
HETATM   17  N           1     -19.780  -5.995  -7.377  0.00  0.00    -0.066 N 
HETATM   18  H           1     -19.571  -6.921  -7.815  0.00  0.00     0.275 HD
HETATM   19  H           1     -19.493  -5.231  -8.028  0.00  0.00     0.275 HD
HETATM   20  H           1     -19.252  -5.905  -6.480  0.00  0.00     0.275 HD
ENDBRANCH  13  17
ENDBRANCH   3  13
TORSDOF 8
ENDMDL
MODEL 3
REMARK VINA RESULT:      -5.6      2.676      3.555
REMARK  8 active torsions:
REMARK  status: ('A' for Active; 'I' for Inactive)
REMARK    1  A    between atoms: C_4  and  C_5 
REMARK    2  A    between atoms: C_5  and  C_15 
REMARK    3  A    between atoms: C_5  and  N_11 
REMARK    4  A    between atoms: C_6  and  C_9 
REMARK    5  A    between atoms: C_9  and  C_16 
REMARK    6  A    between atoms: C_9  and  N_20 
REMARK       I    between atoms: N_11  and  C_16 
REMARK    7  A    between atoms: C_12  and  S_13 
REMARK    8  A    between atoms: C_12  and  C_15 
ROOT
HETATM    1  H           1     -34.903  -0.715 -11.425  0.00  0.00     0.163 HD
HETATM    2  N           1     -35.051  -1.263 -12.262  0.00  0.00    -0.345 N 
HETATM    3  C           1     -34.376  -2.443 -12.435  0.00  0.00     0.249 C 
HETATM    4  O           1     -34.552  -3.098 -13.435  0.00  0.00    -0.271 OA
ENDROOT
BRANCH   2   5
HETATM    5  C           1     -35.975  -0.801 -13.279  0.00  0.00     0.186 C 
BRANCH   5   6
HETATM    6  C           1     -35.257   0.130 -14.225  0.00  0.00     0.196 C 
HETATM    7  O           1     -34.904  -0.277 -15.353  0.00  0.00    -0.646 OA
HETATM    8  O           1     -35.014   1.306 -13.880  0.00  0.00    -0.646 OA
ENDBRANCH   5   6
BRANCH   5   9
HETATM    9  C           1     -37.130  -0.062 -12.616  0.00  0.00     0.046 C 
BRANCH   9  10
HETATM   10  C           1     -37.355  -0.622 -11.218  0.00  0.00     0.076 C 
BRANCH  10  11
HETATM   11  S           1     -37.301   0.730 -10.008  0.00  0.00    -0.173 SA
HETATM   12  C           1     -37.171  -0.324  -8.536  0.00  0.00     0.089 C 
ENDBRANCH  10  11
ENDBRANCH   9  10
ENDBRANCH   5   9
ENDBRANCH   2   5
BRANCH   3  13
HETATM   13  C           1     -33.414  -2.924 -11.377  0.00  0.00     0.278 C 
BRANCH  13  14
HETATM   14  C           1     -34.004  -4.134 -10.666  0.00  0.00     0.017 C 
HETATM   15  C           1     -35.518  -4.134 -10.834  0.00  0.00     0.012 C 
HETATM   16  C           1     -33.427  -5.408 -11.269  0.00  0.00     0.012 C 
ENDBRANCH  13  14
BRANCH  13  17
HETATM   17  N           1     -33.175  -1.826 -10.383  0.00  0.00    -0.066 N 
HETATM   18  H           1     -33.135  -0.908 -10.882  0.00  0.00     0.275 HD
HETATM   19  H           1     -33.955  -1.810  -9.688  0.00  0.00     0.275 HD
HETATM   20  H           1     -32.271  -1.995  -9.888  0.00  0.00     0.275 HD
ENDBRANCH  13  17
ENDBRANCH   3  13
TORSDOF 8
ENDMDL
MODEL 4
REMARK VINA RESULT:      -5.4     13.200     16.030
REMARK  8 active torsions:
REMARK  status: ('A' for Active; 'I' for Inactive)
REMARK    1  A    between atoms: C_4  and  C_5 
REMARK    2  A    between atoms: C_5  and  C_15 
REMARK    3  A    between atoms: C_5  and  N_11 
REMARK    4  A    between atoms: C_6  and  C_9 
REMARK    5  A    between atoms: C_9  and  C_16 
REMARK    6  A    between atoms: C_9  and  N_20 
REMARK       I    between atoms: N_11  and  C_16 
REMARK    7  A    between atoms: C_12  and  S_13 
REMARK    8  A    between atoms: C_12  and  C_15 
ROOT
HETATM    1  H           1     -22.547  -6.188  -7.868  0.00  0.00     0.163 HD
HETATM    2  N           1     -22.123  -5.330  -7.541  0.00  0.00    -0.345 N 
HETATM    3  C           1     -22.385  -4.149  -8.183  0.00  0.00     0.249 C 
HETATM    4  O           1     -21.878  -3.123  -7.793  0.00  0.00    -0.271 OA
ENDROOT
BRANCH   2   5
HETATM    5  C           1     -21.239  -5.349  -6.392  0.00  0.00     0.186 C 
BRANCH   5   6
HETATM    6  C           1     -19.855  -5.759  -6.832  0.00  0.00     0.196 C 
HETATM    7  O           1     -19.545  -6.969  -6.871  0.00  0.00    -0.646 OA
HETATM    8  O           1     -19.018  -4.889  -7.155  0.00  0.00    -0.646 OA
ENDBRANCH   5   6
BRANCH   5   9
HETATM    9  C           1     -21.763  -6.346  -5.367  0.00  0.00     0.046 C 
BRANCH   9  10
HETATM   10  C           1     -21.228  -5.984  -3.987  0.00  0.00     0.076 C 
BRANCH  10  11
HETATM   11  S           1     -21.357  -7.425  -2.891  0.00  0.00    -0.173 SA
HETATM   12  C           1     -22.242  -6.578  -1.552  0.00  0.00     0.089 C 
ENDBRANCH  10  11
ENDBRANCH   9  10
ENDBRANCH   5   9
ENDBRANCH   2   5
BRANCH   3  13
HETATM   13  C           1     -23.305  -4.127  -9.379  0.00  0.00     0.278 C 
BRANCH  13  14
HETATM   14  C           1     -22.608  -3.438 -10.545  0.00  0.00     0.017 C 
HETATM   15  C           1     -21.583  -4.386 -11.155  0.00  0.00     0.012 C 
HETATM   16  C           1     -23.639  -3.059 -11.599  0.00  0.00     0.012 C 
ENDBRANCH  13  14
BRANCH  13  17
HETATM   17  N           1     -24.557  -3.378  -9.031  0.00  0.00    -0.066 N 
HETATM   18  H           1     -25.389  -3.919  -9.360  0.00  0.00     0.275 HD
HETATM   19  H           1     -24.612  -3.252  -7.996  0.00  0.00     0.275 HD
HETATM   20  H           1     -24.543  -2.442  -9.496  0.00  0.00     0.275 HD
ENDBRANCH  13  17
ENDBRANCH   3  13
TORSDOF 8
ENDMDL
MODEL 5
REMARK VINA RESULT:      -5.2      9.642     11.841
REMARK  8 active torsions:
REMARK  status: ('A' for Active; 'I' for Inactive)
REMARK    1  A    between atoms: C_4  and  C_5 
REMARK    2  A    between atoms: C_5  and  C_15 
REMARK    3  A    between atoms: C_5  and  N_11 
REMARK    4  A    between atoms: C_6  and  C_9 
REMARK    5  A    between atoms: C_9  and  C_16 
REMARK    6  A    between atoms: C_9  and  N_20 
REMARK       I    between atoms: N_11  and  C_16 
REMARK    7  A    between atoms: C_12  and  S_13 
REMARK    8  A    between atoms: C_12  and  C_15 
ROOT
HETATM    1  H           1     -25.637  -7.241 -18.278  0.00  0.00     0.163 HD
HETATM    2  N           1     -26.408  -6.600 -18.139  0.00  0.00    -0.345 N 
HETATM    3  C           1     -27.060  -6.069 -19.220  0.00  0.00     0.249 C 
HETATM    4  O           1     -27.980  -5.303 -19.054  0.00  0.00    -0.271 OA
ENDROOT
BRANCH   2   5
HETATM    5  C           1     -26.820  -6.242 -16.796  0.00  0.00     0.186 C 
BRANCH   5   6
HETATM    6  C           1     -25.669  -6.455 -15.844  0.00  0.00     0.196 C 
HETATM    7  O           1     -25.341  -7.614 -15.512  0.00  0.00    -0.646 OA
HETATM    8  O           1     -25.046  -5.474 -15.387  0.00  0.00    -0.646 OA
ENDBRANCH   5   6
BRANCH   5   9
HETATM    9  C           1     -27.996  -7.115 -16.377  0.00  0.00     0.046 C 
BRANCH   9  10
HETATM   10  C           1     -29.091  -6.242 -15.781  0.00  0.00     0.076 C 
BRANCH  10  11
HETATM   11  S           1     -30.510  -6.193 -16.912  0.00  0.00    -0.173 SA
HETATM   12  C           1     -30.071  -7.685 -17.848  0.00  0.00     0.089 C 
ENDBRANCH  10  11
ENDBRANCH   9  10
ENDBRANCH   5   9
ENDBRANCH   2   5
BRANCH   3  13
HETATM   13  C           1     -26.631  -6.441 -20.618  0.00  0.00     0.278 C 
BRANCH  13  14
HETATM   14  C           1     -26.259  -7.918 -20.660  0.00  0.00     0.017 C 
HETATM   15  C           1     -27.415  -8.716 -21.248  0.00  0.00     0.012 C 
HETATM   16  C           1     -25.021  -8.104 -21.527  0.00  0.00     0.012 C 
ENDBRANCH  13  14
BRANCH  13  17
HETATM   17  N           1     -25.443  -5.615 -21.011  0.00  0.00    -0.066 N 
HETATM   18  H           1     -25.449  -5.467 -22.046  0.00  0.00     0.275 HD
HETATM   19  H           1     -25.487  -4.689 -20.528  0.00  0.00     0.275 HD
HETATM   20  H           1     -24.566  -6.111 -20.735  0.00  0.00     0.275 HD
ENDBRANCH  13  17
ENDBRANCH   3  13
TORSDOF 8
ENDMDL
MODEL 6
REMARK VINA RESULT:      -5.0     16.986     18.677
REMARK  8 active torsions:
REMARK  status: ('A' for Active; 'I' for Inactive)
REMARK    1  A    between atoms: C_4  and  C_5 
REMARK    2  A    between atoms: C_5  and  C_15 
REMARK    3  A    between atoms: C_5  and  N_11 
REMARK    4  A    between atoms: C_6  and  C_9 
REMARK    5  A    between atoms: C_9  and  C_16 
REMARK    6  A    between atoms: C_9  and  N_20 
REMARK       I    between atoms: N_11  and  C_16 
REMARK    7  A    between atoms: C_12  and  S_13 
REMARK    8  A    between atoms: C_12  and  C_15 
ROOT
HETATM    1  H           1     -20.387  -6.944  -3.197  0.00  0.00     0.163 HD
HETATM    2  N           1     -20.770  -7.877  -3.279  0.00  0.00    -0.345 N 
HETATM    3  C           1     -21.354  -8.475  -2.194  0.00  0.00     0.249 C 
HETATM    4  O           1     -21.811  -9.589  -2.290  0.00  0.00    -0.271 OA
ENDROOT
BRANCH   2   5
HETATM    5  C           1     -20.700  -8.583  -4.544  0.00  0.00     0.186 C 
BRANCH   5   6
HETATM    6  C           1     -19.256  -8.861  -4.884  0.00  0.00     0.196 C 
HETATM    7  O           1     -18.442  -9.133  -3.974  0.00  0.00    -0.646 OA
HETATM    8  O           1     -18.874  -8.819  -6.072  0.00  0.00    -0.646 OA
ENDBRANCH   5   6
BRANCH   5   9
HETATM    9  C           1     -21.324  -7.726  -5.637  0.00  0.00     0.046 C 
BRANCH   9  10
HETATM   10  C           1     -21.496  -6.300  -5.129  0.00  0.00     0.076 C 
BRANCH  10  11
HETATM   11  S           1     -20.260  -5.226  -5.912  0.00  0.00    -0.173 SA
HETATM   12  C           1     -20.800  -5.512  -7.621  0.00  0.00     0.089 C 
ENDBRANCH  10  11
ENDBRANCH   9  10
ENDBRANCH   5   9
ENDBRANCH   2   5
BRANCH   3  13
HETATM   13  C           1     -21.428  -7.741  -0.877  0.00  0.00     0.278 C 
BRANCH  13  14
HETATM   14  C           1     -21.971  -8.675   0.196  0.00  0.00     0.017 C 
HETATM   15  C           1     -21.039  -8.661   1.401  0.00  0.00     0.012 C 
HETATM   16  C           1     -23.357  -8.208   0.621  0.00  0.00     0.012 C 
ENDBRANCH  13  14
BRANCH  13  17
HETATM   17  N           1     -22.337  -6.556  -1.016  0.00  0.00    -0.066 N 
HETATM   18  H           1     -21.857  -5.813  -1.572  0.00  0.00     0.275 HD
HETATM   19  H           1     -23.213  -6.845  -1.507  0.00  0.00     0.275 HD
HETATM   20  H           1     -22.574  -6.186  -0.068  0.00  0.00     0.275 HD
ENDBRANCH  13  17
ENDBRANCH   3  13
TORSDOF 8
ENDMDL
MODEL 7
REMARK VINA RESULT:      -4.9     15.181     17.720
REMARK  8 active torsions:
REMARK  status: ('A' for Active; 'I' for Inactive)
REMARK    1  A    between atoms: C_4  and  C_5 
REMARK    2  A    between atoms: C_5  and  C_15 
REMARK    3  A    between atoms: C_5  and  N_11 
REMARK    4  A    between atoms: C_6  and  C_9 
REMARK    5  A    between atoms: C_9  and  C_16 
REMARK    6  A    between atoms: C_9  and  N_20 
REMARK       I    between atoms: N_11  and  C_16 
REMARK    7  A    between atoms: C_12  and  S_13 
REMARK    8  A    between atoms: C_12  and  C_15 
ROOT
HETATM    1  H           1     -19.918  -6.316  -4.943  0.00  0.00     0.163 HD
HETATM    2  N           1     -20.927  -6.398  -4.941  0.00  0.00    -0.345 N 
HETATM    3  C           1     -21.681  -5.587  -5.746  0.00  0.00     0.249 C 
HETATM    4  O           1     -22.885  -5.684  -5.743  0.00  0.00    -0.271 OA
ENDROOT
BRANCH   2   5
HETATM    5  C           1     -21.573  -7.375  -4.086  0.00  0.00     0.186 C 
BRANCH   5   6
HETATM    6  C           1     -21.603  -6.858  -2.668  0.00  0.00     0.196 C 
HETATM    7  O           1     -20.837  -7.348  -1.810  0.00  0.00    -0.646 OA
HETATM    8  O           1     -22.392  -5.943  -2.352  0.00  0.00    -0.646 OA
ENDBRANCH   5   6
BRANCH   5   9
HETATM    9  C           1     -20.797  -8.684  -4.135  0.00  0.00     0.046 C 
BRANCH   9  10
HETATM   10  C           1     -19.576  -8.517  -5.030  0.00  0.00     0.076 C 
BRANCH  10  11
HETATM   11  S           1     -18.374  -9.826  -4.662  0.00  0.00    -0.173 SA
HETATM   12  C           1     -18.158  -9.412  -2.908  0.00  0.00     0.089 C 
ENDBRANCH  10  11
ENDBRANCH   9  10
ENDBRANCH   5   9
ENDBRANCH   2   5
BRANCH   3  13
HETATM   13  C           1     -21.009  -4.570  -6.636  0.00  0.00     0.278 C 
BRANCH  13  14
HETATM   14  C           1     -21.380  -4.841  -8.088  0.00  0.00     0.017 C 
HETATM   15  C           1     -22.376  -3.790  -8.561  0.00  0.00     0.012 C 
HETATM   16  C           1     -20.128  -4.778  -8.952  0.00  0.00     0.012 C 
ENDBRANCH  13  14
BRANCH  13  17
HETATM   17  N           1     -19.521  -4.672  -6.473  0.00  0.00    -0.066 N 
HETATM   18  H           1     -19.300  -5.336  -5.697  0.00  0.00     0.275 HD
HETATM   19  H           1     -19.096  -5.022  -7.361  0.00  0.00     0.275 HD
HETATM   20  H           1     -19.130  -3.729  -6.249  0.00  0.00     0.275 HD
ENDBRANCH  13  17
ENDBRANCH   3  13
TORSDOF 8
ENDMDL
MODEL 8
REMARK VINA RESULT:      -4.9     15.220     17.402
REMARK  8 active torsions:
REMARK  status: ('A' for Active; 'I' for Inactive)
REMARK    1  A    between atoms: C_4  and  C_5 
REMARK    2  A    between atoms: C_5  and  C_15 
REMARK    3  A    between atoms: C_5  and  N_11 
REMARK    4  A    between atoms: C_6  and  C_9 
REMARK    5  A    between atoms: C_9  and  C_16 
REMARK    6  A    between atoms: C_9  and  N_20 
REMARK       I    between atoms: N_11  and  C_16 
REMARK    7  A    between atoms: C_12  and  S_13 
REMARK    8  A    between atoms: C_12  and  C_15 
ROOT
HETATM    1  H           1     -21.248  -6.580  -7.115  0.00  0.00     0.163 HD
HETATM    2  N           1     -20.854  -6.173  -6.276  0.00  0.00    -0.345 N 
HETATM    3  C           1     -20.491  -4.853  -6.261  0.00  0.00     0.249 C 
HETATM    4  O           1     -20.020  -4.368  -5.259  0.00  0.00    -0.271 OA
ENDROOT
BRANCH   2   5
HETATM    5  C           1     -20.673  -6.989  -5.091  0.00  0.00     0.186 C 
BRANCH   5   6
HETATM    6  C           1     -20.256  -8.381  -5.498  0.00  0.00     0.196 C 
HETATM    7  O           1     -19.052  -8.628  -5.730  0.00  0.00    -0.646 OA
HETATM    8  O           1     -21.111  -9.284  -5.604  0.00  0.00    -0.646 OA
ENDBRANCH   5   6
BRANCH   5   9
HETATM    9  C           1     -21.983  -7.056  -4.317  0.00  0.00     0.046 C 
BRANCH   9  10
HETATM   10  C           1     -21.788  -6.448  -2.934  0.00  0.00     0.076 C 
BRANCH  10  11
HETATM   11  S           1     -21.244  -7.737  -1.778  0.00  0.00    -0.173 SA
HETATM   12  C           1     -22.433  -7.343  -0.465  0.00  0.00     0.089 C 
ENDBRANCH  10  11
ENDBRANCH   9  10
ENDBRANCH   5   9
ENDBRANCH   2   5
BRANCH   3  13
HETATM   13  C           1     -20.678  -4.004  -7.494  0.00  0.00     0.278 C 
BRANCH  13  14
HETATM   14  C           1     -21.650  -4.694  -8.443  0.00  0.00     0.017 C 
HETATM   15  C           1     -23.058  -4.165  -8.200  0.00  0.00     0.012 C 
HETATM   16  C           1     -21.242  -4.408  -9.882  0.00  0.00     0.012 C 
ENDBRANCH  13  14
BRANCH  13  17
HETATM   17  N           1     -19.357  -3.820  -8.179  0.00  0.00    -0.066 N 
HETATM   18  H           1     -18.845  -4.730  -8.198  0.00  0.00     0.275 HD
HETATM   19  H           1     -19.514  -3.489  -9.157  0.00  0.00     0.275 HD
HETATM   20  H           1     -18.791  -3.111  -7.659  0.00  0.00     0.275 HD
ENDBRANCH  13  17
ENDBRANCH   3  13
TORSDOF 8
ENDMDL
MODEL 9
REMARK VINA RESULT:      -4.9     15.865     17.958
REMARK  8 active torsions:
REMARK  status: ('A' for Active; 'I' for Inactive)
REMARK    1  A    between atoms: C_4  and  C_5 
REMARK    2  A    between atoms: C_5  and  C_15 
REMARK    3  A    between atoms: C_5  and  N_11 
REMARK    4  A    between atoms: C_6  and  C_9 
REMARK    5  A    between atoms: C_9  and  C_16 
REMARK    6  A    between atoms: C_9  and  N_20 
REMARK       I    between atoms: N_11  and  C_16 
REMARK    7  A    between atoms: C_12  and  S_13 
REMARK    8  A    between atoms: C_12  and  C_15 
ROOT
HETATM    1  H           1     -20.654  -7.807  -6.934  0.00  0.00     0.163 HD
HETATM    2  N           1     -20.595  -7.230  -6.104  0.00  0.00    -0.345 N 
HETATM    3  C           1     -20.921  -5.902  -6.169  0.00  0.00     0.249 C 
HETATM    4  O           1     -20.850  -5.213  -5.179  0.00  0.00    -0.271 OA
ENDROOT
BRANCH   2   5
HETATM    5  C           1     -20.166  -7.811  -4.847  0.00  0.00     0.186 C 
BRANCH   5   6
HETATM    6  C           1     -19.352  -9.052  -5.119  0.00  0.00     0.196 C 
HETATM    7  O           1     -18.309  -9.270  -4.465  0.00  0.00    -0.646 OA
HETATM    8  O           1     -19.719  -9.860  -5.997  0.00  0.00    -0.646 OA
ENDBRANCH   5   6
BRANCH   5   9
HETATM    9  C           1     -21.387  -8.175  -4.013  0.00  0.00     0.046 C 
BRANCH   9  10
HETATM   10  C           1     -21.094  -7.915  -2.542  0.00  0.00     0.076 C 
BRANCH  10  11
HETATM   11  S           1     -22.080  -6.503  -1.968  0.00  0.00    -0.173 SA
HETATM   12  C           1     -22.535  -7.217  -0.362  0.00  0.00     0.089 C 
ENDBRANCH  10  11
ENDBRANCH   9  10
ENDBRANCH   5   9
ENDBRANCH   2   5
BRANCH   3  13
HETATM   13  C           1     -21.368  -5.297  -7.478  0.00  0.00     0.278 C 
BRANCH  13  14
HETATM   14  C           1     -20.163  -5.116  -8.392  0.00  0.00     0.017 C 
HETATM   15  C           1     -20.599  -4.420  -9.674  0.00  0.00     0.012 C 
HETATM   16  C           1     -19.114  -4.268  -7.686  0.00  0.00     0.012 C 
ENDBRANCH  13  14
BRANCH  13  17
HETATM   17  N           1     -22.005  -3.964  -7.220  0.00  0.00    -0.066 N 
HETATM   18  H           1     -22.172  -3.851  -6.194  0.00  0.00     0.275 HD
HETATM   19  H           1     -21.370  -3.204  -7.554  0.00  0.00     0.275 HD
HETATM   20  H           1     -22.914  -3.908  -7.730  0.00  0.00     0.275 HD
ENDBRANCH  13  17
ENDBRANCH   3  13
TORSDOF 8
ENDMDL
