MODEL 1
REMARK VINA RESULT:      -5.7      0.000      0.000
REMARK  8 active torsions:
REMARK  status: ('A' for Active; 'I' for Inactive)
REMARK       I    between atoms: C_2  and  N_3 
REMARK    1  A    between atoms: C_2  and  C_4 
REMARK    2  A    between atoms: C_4  and  C_5 
REMARK    3  A    between atoms: C_5  and  C_6 
REMARK    4  A    between atoms: C_5  and  N_9 
REMARK       I    between atoms: N_9  and  C_10 
REMARK    5  A    between atoms: C_10  and  C_11 
REMARK    6  A    between atoms: C_11  and  C_12 
REMARK    7  A    between atoms: C_11  and  N_14 
REMARK    8  A    between atoms: C_12  and  Se_13 
ROOT
HETATM    1  N           1     -34.938  -1.666 -13.066  0.00  0.00    -0.344 N 
HETATM    2  C           1     -34.284  -2.560 -12.262  0.00  0.00     0.249 C 
HETATM    3  O           1     -33.786  -2.189 -11.226  0.00  0.00    -0.271 OA
HETATM    4  H           1     -35.356  -1.977 -13.934  0.00  0.00     0.163 HD
ENDROOT
BRANCH   1   5
HETATM    5  C           1     -35.036  -0.274 -12.672  0.00  0.00     0.194 C 
BRANCH   5   6
HETATM    6  C           1     -35.079   0.603 -13.917  0.00  0.00     0.138 C 
BRANCH   6   7
HETATM    7  C           1     -35.631  -0.193 -15.075  0.00  0.00     0.217 C 
HETATM    8  O           1     -34.891  -0.867 -15.752  0.00  0.00    -0.274 OA
HETATM    9  N           1     -36.970  -0.151 -15.357  0.00  0.00    -0.370 N 
HETATM   10  H           1     -37.590   0.413 -14.790  0.00  0.00     0.159 HD
HETATM   11  H           1     -37.340  -0.684 -16.133  0.00  0.00     0.159 HD
ENDBRANCH   6   7
ENDBRANCH   5   6
BRANCH   5  12
HETATM   12  C           1     -36.294  -0.066 -11.867  0.00  0.00     0.197 C 
HETATM   13  O           1     -36.242   0.524 -10.766  0.00  0.00    -0.646 OA
HETATM   14  O           1     -37.390  -0.485 -12.299  0.00  0.00    -0.646 OA
ENDBRANCH   5  12
ENDBRANCH   1   5
BRANCH   2  15
HETATM   15  C           1     -34.182  -4.009 -12.671  0.00  0.00     0.274 C 
BRANCH  15  16
HETATM   16  C           1     -33.237  -4.739 -11.727  0.00  0.00     0.045 C 
BRANCH  16  17
HETATM   17 Se           1     -34.232  -6.077 -10.718  0.00  0.00     0.000 Se
HETATM   18  H           1     -35.290  -5.143 -10.298  0.00  0.00     0.000 HD
ENDBRANCH  16  17
ENDBRANCH  15  16
BRANCH  15  19
HETATM   19  N           1     -33.654  -4.097 -14.072  0.00  0.00    -0.067 N 
HETATM   20  H           1     -33.437  -5.093 -14.301  0.00  0.00     0.275 HD
HETATM   21  H           1     -34.373  -3.735 -14.738  0.00  0.00     0.275 HD
HETATM   22  H           1     -32.784  -3.523 -14.152  0.00  0.00     0.275 HD
ENDBRANCH  15  19
ENDBRANCH   2  15
TORSDOF 8
ENDMDL
MODEL 2
REMARK VINA RESULT:      -5.7     11.598     13.355
REMARK  8 active torsions:
REMARK  status: ('A' for Active; 'I' for Inactive)
REMARK       I    between atoms: C_2  and  N_3 
REMARK    1  A    between atoms: C_2  and  C_4 
REMARK    2  A    between atoms: C_4  and  C_5 
REMARK    3  A    between atoms: C_5  and  C_6 
REMARK    4  A    between atoms: C_5  and  N_9 
REMARK       I    between atoms: N_9  and  C_10 
REMARK    5  A    between atoms: C_10  and  C_11 
REMARK    6  A    between atoms: C_11  and  C_12 
REMARK    7  A    between atoms: C_11  and  N_14 
REMARK    8  A    between atoms: C_12  and  Se_13 
ROOT
HETATM    1  N           1     -23.377  -4.195  -8.775  0.00  0.00    -0.344 N 
HETATM    2  C           1     -22.290  -4.150  -7.945  0.00  0.00     0.249 C 
HETATM    3  O           1     -21.261  -3.644  -8.325  0.00  0.00    -0.271 OA
HETATM    4  H           1     -24.239  -4.618  -8.457  0.00  0.00     0.163 HD
ENDROOT
BRANCH   1   5
HETATM    5  C           1     -23.294  -3.635 -10.110  0.00  0.00     0.194 C 
BRANCH   5   6
HETATM    6  C           1     -22.688  -4.664 -11.055  0.00  0.00     0.138 C 
BRANCH   6   7
HETATM    7  C           1     -21.611  -4.010 -11.887  0.00  0.00     0.217 C 
HETATM    8  O           1     -20.473  -3.978 -11.485  0.00  0.00    -0.274 OA
HETATM    9  N           1     -21.926  -3.453 -13.098  0.00  0.00    -0.370 N 
HETATM   10  H           1     -22.880  -3.480 -13.435  0.00  0.00     0.159 HD
HETATM   11  H           1     -21.204  -3.015 -13.656  0.00  0.00     0.159 HD
ENDBRANCH   6   7
ENDBRANCH   5   6
BRANCH   5  12
HETATM   12  C           1     -24.676  -3.266 -10.587  0.00  0.00     0.197 C 
HETATM   13  O           1     -24.890  -3.083 -11.805  0.00  0.00    -0.646 OA
HETATM   14  O           1     -25.610  -3.141  -9.764  0.00  0.00    -0.646 OA
ENDBRANCH   5  12
ENDBRANCH   1   5
BRANCH   2  15
HETATM   15  C           1     -22.376  -4.733  -6.556  0.00  0.00     0.274 C 
BRANCH  15  16
HETATM   16  C           1     -21.490  -5.967  -6.466  0.00  0.00     0.045 C 
BRANCH  16  17
HETATM   17 Se           1     -21.684  -6.781  -4.706  0.00  0.00     0.000 Se
HETATM   18  H           1     -23.003  -6.181  -4.446  0.00  0.00     0.000 HD
ENDBRANCH  16  17
ENDBRANCH  15  16
BRANCH  15  19
HETATM   19  N           1     -23.796  -5.114  -6.260  0.00  0.00    -0.067 N 
HETATM   20  H           1     -24.430  -4.324  -6.515  0.00  0.00     0.275 HD
HETATM   21  H           1     -24.052  -5.960  -6.816  0.00  0.00     0.275 HD
HETATM   22  H           1     -23.893  -5.324  -5.241  0.00  0.00     0.275 HD
ENDBRANCH  15  19
ENDBRANCH   2  15
TORSDOF 8
ENDMDL
MODEL 3
REMARK VINA RESULT:      -5.7      2.607      4.544
REMARK  8 active torsions:
REMARK  status: ('A' for Active; 'I' for Inactive)
REMARK       I    between atoms: C_2  and  N_3 
REMARK    1  A    between atoms: C_2  and  C_4 
REMARK    2  A    between atoms: C_4  and  C_5 
REMARK    3  A    between atoms: C_5  and  C_6 
REMARK    4  A    between atoms: C_5  and  N_9 
REMARK       I    between atoms: N_9  and  C_10 
REMARK    5  A    between atoms: C_10  and  C_11 
REMARK    6  A    between atoms: C_11  and  C_12 
REMARK    7  A    between atoms: C_11  and  N_14 
REMARK    8  A    between atoms: C_12  and  Se_13 
ROOT
HETATM    1  N           1     -34.810  -1.111 -12.826  0.00  0.00    -0.344 N 
HETATM    2  C           1     -35.928  -0.571 -13.401  0.00  0.00     0.249 C 
HETATM    3  O           1     -37.022  -0.985 -13.099  0.00  0.00    -0.271 OA
HETATM    4  H           1     -33.893  -0.764 -13.079  0.00  0.00     0.163 HD
ENDROOT
BRANCH   1   5
HETATM    5  C           1     -34.937  -2.179 -11.854  0.00  0.00     0.194 C 
BRANCH   5   6
HETATM    6  C           1     -33.858  -3.224 -12.103  0.00  0.00     0.138 C 
BRANCH   6   7
HETATM    7  C           1     -34.291  -4.137 -13.224  0.00  0.00     0.217 C 
HETATM    8  O           1     -34.254  -3.751 -14.368  0.00  0.00    -0.274 OA
HETATM    9  N           1     -34.727  -5.405 -12.944  0.00  0.00    -0.370 N 
HETATM   10  H           1     -34.759  -5.729 -11.985  0.00  0.00     0.159 HD
HETATM   11  H           1     -35.018  -6.017 -13.695  0.00  0.00     0.159 HD
ENDBRANCH   6   7
ENDBRANCH   5   6
BRANCH   5  12
HETATM   12  C           1     -34.780  -1.615 -10.464  0.00  0.00     0.197 C 
HETATM   13  O           1     -33.696  -1.742  -9.856  0.00  0.00    -0.646 OA
HETATM   14  O           1     -35.736  -1.020  -9.919  0.00  0.00    -0.646 OA
ENDBRANCH   5  12
ENDBRANCH   1   5
BRANCH   2  15
HETATM   15  C           1     -35.796   0.540 -14.413  0.00  0.00     0.274 C 
BRANCH  15  16
HETATM   16  C           1     -36.694   0.251 -15.607  0.00  0.00     0.045 C 
BRANCH  16  17
HETATM   17 Se           1     -35.891  -1.148 -16.701  0.00  0.00     0.000 Se
HETATM   18  H           1     -35.286  -0.210 -17.662  0.00  0.00     0.000 HD
ENDBRANCH  16  17
ENDBRANCH  15  16
BRANCH  15  19
HETATM   19  N           1     -34.371   0.633 -14.870  0.00  0.00    -0.067 N 
HETATM   20  H           1     -34.341   0.989 -15.851  0.00  0.00     0.275 HD
HETATM   21  H           1     -33.847   1.287 -14.246  0.00  0.00     0.275 HD
HETATM   22  H           1     -33.931  -0.315 -14.830  0.00  0.00     0.275 HD
ENDBRANCH  15  19
ENDBRANCH   2  15
TORSDOF 8
ENDMDL
MODEL 4
REMARK VINA RESULT:      -5.4      2.847      5.017
REMARK  8 active torsions:
REMARK  status: ('A' for Active; 'I' for Inactive)
REMARK       I    between atoms: C_2  and  N_3 
REMARK    1  A    between atoms: C_2  and  C_4 
REMARK    2  A    between atoms: C_4  and  C_5 
REMARK    3  A    between atoms: C_5  and  C_6 
REMARK    4  A    between atoms: C_5  and  N_9 
REMARK       I    between atoms: N_9  and  C_10 
REMARK    5  A    between atoms: C_10  and  C_11 
REMARK    6  A    between atoms: C_11  and  C_12 
REMARK    7  A    between atoms: C_11  and  N_14 
REMARK    8  A    between atoms: C_12  and  Se_13 
ROOT
HETATM    1  N           1     -36.381  -0.542 -13.123  0.00  0.00    -0.344 N 
HETATM    2  C           1     -36.078   0.400 -14.068  0.00  0.00     0.249 C 
HETATM    3  O           1     -35.050   1.029 -13.985  0.00  0.00    -0.271 OA
HETATM    4  H           1     -37.242  -1.069 -13.192  0.00  0.00     0.163 HD
ENDROOT
BRANCH   1   5
HETATM    5  C           1     -35.468  -0.786 -12.023  0.00  0.00     0.194 C 
BRANCH   5   6
HETATM    6  C           1     -36.264  -1.026 -10.747  0.00  0.00     0.138 C 
BRANCH   6   7
HETATM    7  C           1     -36.984   0.241 -10.356  0.00  0.00     0.217 C 
HETATM    8  O           1     -38.071   0.487 -10.823  0.00  0.00    -0.274 OA
HETATM    9  N           1     -36.405   1.113  -9.473  0.00  0.00    -0.370 N 
HETATM   10  H           1     -35.494   0.907  -9.082  0.00  0.00     0.159 HD
HETATM   11  H           1     -36.888   1.962  -9.211  0.00  0.00     0.159 HD
ENDBRANCH   6   7
ENDBRANCH   5   6
BRANCH   5  12
HETATM   12  C           1     -34.627  -2.000 -12.328  0.00  0.00     0.197 C 
HETATM   13  O           1     -33.797  -2.413 -11.490  0.00  0.00    -0.646 OA
HETATM   14  O           1     -34.758  -2.593 -13.421  0.00  0.00    -0.646 OA
ENDBRANCH   5  12
ENDBRANCH   1   5
BRANCH   2  15
HETATM   15  C           1     -37.027   0.655 -15.212  0.00  0.00     0.274 C 
BRANCH  15  16
HETATM   16  C           1     -37.244  -0.635 -15.991  0.00  0.00     0.045 C 
BRANCH  16  17
HETATM   17 Se           1     -35.534  -1.289 -16.657  0.00  0.00     0.000 Se
HETATM   18  H           1     -35.580  -2.542 -15.885  0.00  0.00     0.000 HD
ENDBRANCH  16  17
ENDBRANCH  15  16
BRANCH  15  19
HETATM   19  N           1     -36.447   1.696 -16.122  0.00  0.00    -0.067 N 
HETATM   20  H           1     -35.484   1.411 -16.410  0.00  0.00     0.275 HD
HETATM   21  H           1     -37.050   1.792 -16.970  0.00  0.00     0.275 HD
HETATM   22  H           1     -36.403   2.611 -15.619  0.00  0.00     0.275 HD
ENDBRANCH  15  19
ENDBRANCH   2  15
TORSDOF 8
ENDMDL
MODEL 5
REMARK VINA RESULT:      -4.9     11.774     13.379
REMARK  8 active torsions:
REMARK  status: ('A' for Active; 'I' for Inactive)
REMARK       I    between atoms: C_2  and  N_3 
REMARK    1  A    between atoms: C_2  and  C_4 
REMARK    2  A    between atoms: C_4  and  C_5 
REMARK    3  A    between atoms: C_5  and  C_6 
REMARK    4  A    between atoms: C_5  and  N_9 
REMARK       I    between atoms: N_9  and  C_10 
REMARK    5  A    between atoms: C_10  and  C_11 
REMARK    6  A    between atoms: C_11  and  C_12 
REMARK    7  A    between atoms: C_11  and  N_14 
REMARK    8  A    between atoms: C_12  and  Se_13 
ROOT
HETATM    1  N           1     -22.494  -4.579  -9.459  0.00  0.00    -0.344 N 
HETATM    2  C           1     -21.147  -4.403  -9.289  0.00  0.00     0.249 C 
HETATM    3  O           1     -20.544  -3.638 -10.002  0.00  0.00    -0.271 OA
HETATM    4  H           1     -23.000  -5.220  -8.862  0.00  0.00     0.163 HD
ENDROOT
BRANCH   1   5
HETATM    5  C           1     -23.196  -3.847 -10.495  0.00  0.00     0.194 C 
BRANCH   5   6
HETATM    6  C           1     -23.421  -4.756 -11.696  0.00  0.00     0.138 C 
BRANCH   6   7
HETATM    7  C           1     -23.314  -3.948 -12.966  0.00  0.00     0.217 C 
HETATM    8  O           1     -24.276  -3.822 -13.686  0.00  0.00    -0.274 OA
HETATM    9  N           1     -22.125  -3.356 -13.303  0.00  0.00    -0.370 N 
HETATM   10  H           1     -21.319  -3.461 -12.700  0.00  0.00     0.159 HD
HETATM   11  H           1     -22.054  -2.815 -14.154  0.00  0.00     0.159 HD
ENDBRANCH   6   7
ENDBRANCH   5   6
BRANCH   5  12
HETATM   12  C           1     -24.526  -3.375  -9.963  0.00  0.00     0.197 C 
HETATM   13  O           1     -24.667  -3.147  -8.743  0.00  0.00    -0.646 OA
HETATM   14  O           1     -25.490  -3.213 -10.744  0.00  0.00    -0.646 OA
ENDBRANCH   5  12
ENDBRANCH   1   5
BRANCH   2  15
HETATM   15  C           1     -20.416  -5.165  -8.212  0.00  0.00     0.274 C 
BRANCH  15  16
HETATM   16  C           1     -21.332  -5.352  -7.010  0.00  0.00     0.045 C 
BRANCH  16  17
HETATM   17 Se           1     -20.679  -6.830  -5.919  0.00  0.00     0.000 Se
HETATM   18  H           1     -22.022  -7.349  -5.613  0.00  0.00     0.000 HD
ENDBRANCH  16  17
ENDBRANCH  15  16
BRANCH  15  19
HETATM   19  N           1     -19.197  -4.398  -7.796  0.00  0.00    -0.067 N 
HETATM   20  H           1     -18.847  -4.766  -6.883  0.00  0.00     0.275 HD
HETATM   21  H           1     -18.453  -4.506  -8.522  0.00  0.00     0.275 HD
HETATM   22  H           1     -19.441  -3.387  -7.694  0.00  0.00     0.275 HD
ENDBRANCH  15  19
ENDBRANCH   2  15
TORSDOF 8
ENDMDL
MODEL 6
REMARK VINA RESULT:      -4.9     12.518     14.973
REMARK  8 active torsions:
REMARK  status: ('A' for Active; 'I' for Inactive)
REMARK       I    between atoms: C_2  and  N_3 
REMARK    1  A    between atoms: C_2  and  C_4 
REMARK    2  A    between atoms: C_4  and  C_5 
REMARK    3  A    between atoms: C_5  and  C_6 
REMARK    4  A    between atoms: C_5  and  N_9 
REMARK       I    between atoms: N_9  and  C_10 
REMARK    5  A    between atoms: C_10  and  C_11 
REMARK    6  A    between atoms: C_11  and  C_12 
REMARK    7  A    between atoms: C_11  and  N_14 
REMARK    8  A    between atoms: C_12  and  Se_13 
ROOT
HETATM    1  N           1     -22.067  -4.928  -8.820  0.00  0.00    -0.344 N 
HETATM    2  C           1     -23.370  -4.525  -8.713  0.00  0.00     0.249 C 
HETATM    3  O           1     -23.760  -4.009  -7.693  0.00  0.00    -0.271 OA
HETATM    4  H           1     -21.740  -5.361  -9.674  0.00  0.00     0.163 HD
ENDROOT
BRANCH   1   5
HETATM    5  C           1     -21.154  -4.735  -7.710  0.00  0.00     0.194 C 
BRANCH   5   6
HETATM    6  C           1     -21.006  -6.041  -6.941  0.00  0.00     0.138 C 
BRANCH   6   7
HETATM    7  C           1     -21.569  -5.872  -5.551  0.00  0.00     0.217 C 
HETATM    8  O           1     -20.832  -5.619  -4.627  0.00  0.00    -0.274 OA
HETATM    9  N           1     -22.915  -6.007  -5.336  0.00  0.00    -0.370 N 
HETATM   10  H           1     -23.532  -6.220  -6.110  0.00  0.00     0.159 HD
HETATM   11  H           1     -23.292  -5.895  -4.404  0.00  0.00     0.159 HD
ENDBRANCH   6   7
ENDBRANCH   5   6
BRANCH   5  12
HETATM   12  C           1     -19.807  -4.305  -8.236  0.00  0.00     0.197 C 
HETATM   13  O           1     -18.795  -4.386  -7.506  0.00  0.00    -0.646 OA
HETATM   14  O           1     -19.702  -3.866  -9.402  0.00  0.00    -0.646 OA
ENDBRANCH   5  12
ENDBRANCH   1   5
BRANCH   2  15
HETATM   15  C           1     -24.320  -4.726  -9.867  0.00  0.00     0.274 C 
BRANCH  15  16
HETATM   16  C           1     -23.539  -4.733 -11.174  0.00  0.00     0.045 C 
BRANCH  16  17
HETATM   17 Se           1     -23.357  -2.908 -11.832  0.00  0.00     0.000 Se
HETATM   18  H           1     -22.455  -2.484 -10.749  0.00  0.00     0.000 HD
ENDBRANCH  16  17
ENDBRANCH  15  16
BRANCH  15  19
HETATM   19  N           1     -25.323  -3.611  -9.890  0.00  0.00    -0.067 N 
HETATM   20  H           1     -26.209  -3.947 -10.329  0.00  0.00     0.275 HD
HETATM   21  H           1     -25.515  -3.296  -8.913  0.00  0.00     0.275 HD
HETATM   22  H           1     -24.940  -2.812 -10.445  0.00  0.00     0.275 HD
ENDBRANCH  15  19
ENDBRANCH   2  15
TORSDOF 8
ENDMDL
MODEL 7
REMARK VINA RESULT:      -4.7     13.120     15.086
REMARK  8 active torsions:
REMARK  status: ('A' for Active; 'I' for Inactive)
REMARK       I    between atoms: C_2  and  N_3 
REMARK    1  A    between atoms: C_2  and  C_4 
REMARK    2  A    between atoms: C_4  and  C_5 
REMARK    3  A    between atoms: C_5  and  C_6 
REMARK    4  A    between atoms: C_5  and  N_9 
REMARK       I    between atoms: N_9  and  C_10 
REMARK    5  A    between atoms: C_10  and  C_11 
REMARK    6  A    between atoms: C_11  and  C_12 
REMARK    7  A    between atoms: C_11  and  N_14 
REMARK    8  A    between atoms: C_12  and  Se_13 
ROOT
HETATM    1  N           1     -21.742  -4.848  -7.070  0.00  0.00    -0.344 N 
HETATM    2  C           1     -21.326  -5.984  -6.430  0.00  0.00     0.249 C 
HETATM    3  O           1     -20.958  -6.938  -7.072  0.00  0.00    -0.271 OA
HETATM    4  H           1     -22.051  -4.048  -6.532  0.00  0.00     0.163 HD
ENDROOT
BRANCH   1   5
HETATM    5  C           1     -21.740  -4.790  -8.519  0.00  0.00     0.194 C 
BRANCH   5   6
HETATM    6  C           1     -22.768  -3.769  -8.987  0.00  0.00     0.138 C 
BRANCH   6   7
HETATM    7  C           1     -23.783  -4.447  -9.875  0.00  0.00     0.217 C 
HETATM    8  O           1     -23.431  -4.966 -10.908  0.00  0.00    -0.274 OA
HETATM    9  N           1     -25.103  -4.474  -9.510  0.00  0.00    -0.370 N 
HETATM   10  H           1     -25.398  -4.039  -8.645  0.00  0.00     0.159 HD
HETATM   11  H           1     -25.783  -4.929 -10.105  0.00  0.00     0.159 HD
ENDBRANCH   6   7
ENDBRANCH   5   6
BRANCH   5  12
HETATM   12  C           1     -20.371  -4.384  -9.004  0.00  0.00     0.197 C 
HETATM   13  O           1     -19.616  -3.719  -8.262  0.00  0.00    -0.646 OA
HETATM   14  O           1     -19.990  -4.712 -10.149  0.00  0.00    -0.646 OA
ENDBRANCH   5  12
ENDBRANCH   1   5
BRANCH   2  15
HETATM   15  C           1     -21.328  -6.045  -4.923  0.00  0.00     0.274 C 
BRANCH  15  16
HETATM   16  C           1     -20.511  -7.243  -4.460  0.00  0.00     0.045 C 
BRANCH  16  17
HETATM   17 Se           1     -21.036  -7.728  -2.647  0.00  0.00     0.000 Se
HETATM   18  H           1     -19.772  -8.417  -2.341  0.00  0.00     0.000 HD
ENDBRANCH  16  17
ENDBRANCH  15  16
BRANCH  15  19
HETATM   19  N           1     -22.738  -6.182  -4.430  0.00  0.00    -0.067 N 
HETATM   20  H           1     -23.378  -5.633  -5.046  0.00  0.00     0.275 HD
HETATM   21  H           1     -23.016  -7.189  -4.445  0.00  0.00     0.275 HD
HETATM   22  H           1     -22.800  -5.818  -3.451  0.00  0.00     0.275 HD
ENDBRANCH  15  19
ENDBRANCH   2  15
TORSDOF 8
ENDMDL
MODEL 8
REMARK VINA RESULT:      -4.7     12.690     14.905
REMARK  8 active torsions:
REMARK  status: ('A' for Active; 'I' for Inactive)
REMARK       I    between atoms: C_2  and  N_3 
REMARK    1  A    between atoms: C_2  and  C_4 
REMARK    2  A    between atoms: C_4  and  C_5 
REMARK    3  A    between atoms: C_5  and  C_6 
REMARK    4  A    between atoms: C_5  and  N_9 
REMARK       I    between atoms: N_9  and  C_10 
REMARK    5  A    between atoms: C_10  and  C_11 
REMARK    6  A    between atoms: C_11  and  C_12 
REMARK    7  A    between atoms: C_11  and  N_14 
REMARK    8  A    between atoms: C_12  and  Se_13 
ROOT
HETATM    1  N           1     -22.257  -3.851  -8.997  0.00  0.00    -0.344 N 
HETATM    2  C           1     -21.700  -3.931 -10.244  0.00  0.00     0.249 C 
HETATM    3  O           1     -20.755  -4.657 -10.438  0.00  0.00    -0.271 OA
HETATM    4  H           1     -23.049  -3.242  -8.835  0.00  0.00     0.163 HD
ENDROOT
BRANCH   1   5
HETATM    5  C           1     -21.714  -4.639  -7.908  0.00  0.00     0.194 C 
BRANCH   5   6
HETATM    6  C           1     -20.525  -3.910  -7.297  0.00  0.00     0.138 C 
BRANCH   6   7
HETATM    7  C           1     -19.348  -4.851  -7.209  0.00  0.00     0.217 C 
HETATM    8  O           1     -18.224  -4.427  -7.342  0.00  0.00    -0.274 OA
HETATM    9  N           1     -19.554  -6.185  -6.980  0.00  0.00    -0.370 N 
HETATM   10  H           1     -20.495  -6.540  -6.869  0.00  0.00     0.159 HD
HETATM   11  H           1     -18.765  -6.816  -6.921  0.00  0.00     0.159 HD
ENDBRANCH   6   7
ENDBRANCH   5   6
BRANCH   5  12
HETATM   12  C           1     -22.775  -4.842  -6.855  0.00  0.00     0.197 C 
HETATM   13  O           1     -22.528  -5.528  -5.841  0.00  0.00    -0.646 OA
HETATM   14  O           1     -23.904  -4.323  -6.998  0.00  0.00    -0.646 OA
ENDBRANCH   5  12
ENDBRANCH   1   5
BRANCH   2  15
HETATM   15  C           1     -22.265  -3.110 -11.377  0.00  0.00     0.274 C 
BRANCH  15  16
HETATM   16  C           1     -23.786  -3.151 -11.327  0.00  0.00     0.045 C 
BRANCH  16  17
HETATM   17 Se           1     -24.504  -2.853 -13.114  0.00  0.00     0.000 Se
HETATM   18  H           1     -23.933  -1.502 -13.244  0.00  0.00     0.000 HD
ENDBRANCH  16  17
ENDBRANCH  15  16
BRANCH  15  19
HETATM   19  N           1     -21.793  -3.673 -12.685  0.00  0.00    -0.067 N 
HETATM   20  H           1     -21.581  -4.689 -12.573  0.00  0.00     0.275 HD
HETATM   21  H           1     -22.540  -3.551 -13.406  0.00  0.00     0.275 HD
HETATM   22  H           1     -20.930  -3.168 -12.989  0.00  0.00     0.275 HD
ENDBRANCH  15  19
ENDBRANCH   2  15
TORSDOF 8
ENDMDL
MODEL 9
REMARK VINA RESULT:      -4.5     25.149     25.953
REMARK  8 active torsions:
REMARK  status: ('A' for Active; 'I' for Inactive)
REMARK       I    between atoms: C_2  and  N_3 
REMARK    1  A    between atoms: C_2  and  C_4 
REMARK    2  A    between atoms: C_4  and  C_5 
REMARK    3  A    between atoms: C_5  and  C_6 
REMARK    4  A    between atoms: C_5  and  N_9 
REMARK       I    between atoms: N_9  and  C_10 
REMARK    5  A    between atoms: C_10  and  C_11 
REMARK    6  A    between atoms: C_11  and  C_12 
REMARK    7  A    between atoms: C_11  and  N_14 
REMARK    8  A    between atoms: C_12  and  Se_13 
ROOT
HETATM    1  N           1     -12.654   7.240 -20.423  0.00  0.00    -0.344 N 
HETATM    2  C           1     -12.422   5.965 -19.982  0.00  0.00     0.249 C 
HETATM    3  O           1     -11.555   5.757 -19.167  0.00  0.00    -0.271 OA
HETATM    4  H           1     -13.381   7.414 -21.105  0.00  0.00     0.163 HD
ENDROOT
BRANCH   1   5
HETATM    5  C           1     -11.861   8.340 -19.911  0.00  0.00     0.194 C 
BRANCH   5   6
HETATM    6  C           1     -11.095   8.989 -21.057  0.00  0.00     0.138 C 
BRANCH   6   7
HETATM    7  C           1      -9.620   8.710 -20.898  0.00  0.00     0.217 C 
HETATM    8  O           1      -8.814   9.582 -21.116  0.00  0.00    -0.274 OA
HETATM    9  N           1      -9.197   7.467 -20.508  0.00  0.00    -0.370 N 
HETATM   10  H           1      -9.873   6.736 -20.325  0.00  0.00     0.159 HD
HETATM   11  H           1      -8.208   7.280 -20.401  0.00  0.00     0.159 HD
ENDBRANCH   6   7
ENDBRANCH   5   6
BRANCH   5  12
HETATM   12  C           1     -12.769   9.360 -19.271  0.00  0.00     0.197 C 
HETATM   13  O           1     -13.397  10.173 -19.983  0.00  0.00    -0.646 OA
HETATM   14  O           1     -12.893   9.394 -18.027  0.00  0.00    -0.646 OA
ENDBRANCH   5  12
ENDBRANCH   1   5
BRANCH   2  15
HETATM   15  C           1     -13.247   4.820 -20.514  0.00  0.00     0.274 C 
BRANCH  15  16
HETATM   16  C           1     -13.270   4.872 -22.035  0.00  0.00     0.045 C 
BRANCH  16  17
HETATM   17 Se           1     -15.075   5.280 -22.645  0.00  0.00     0.000 Se
HETATM   18  H           1     -15.090   6.634 -22.066  0.00  0.00     0.000 HD
ENDBRANCH  16  17
ENDBRANCH  15  16
BRANCH  15  19
HETATM   19  N           1     -14.648   4.927 -19.989  0.00  0.00    -0.067 N 
HETATM   20  H           1     -14.624   5.072 -18.955  0.00  0.00     0.275 HD
HETATM   21  H           1     -15.129   5.735 -20.444  0.00  0.00     0.275 HD
HETATM   22  H           1     -15.168   4.046 -20.205  0.00  0.00     0.275 HD
ENDBRANCH  15  19
ENDBRANCH   2  15
TORSDOF 8
ENDMDL
