MODEL 1
REMARK VINA RESULT:      -7.6      0.000      0.000
REMARK  9 active torsions:
REMARK  status: ('A' for Active; 'I' for Inactive)
REMARK    1  A    between atoms: N_1  and  C_16 
REMARK       I    between atoms: N_1  and  C_2 
REMARK    2  A    between atoms: C_2  and  C_3 
REMARK    3  A    between atoms: C_3  and  C_4 
REMARK    4  A    between atoms: C_3  and  N_8 
REMARK    5  A    between atoms: C_4  and  C_5 
REMARK    6  A    between atoms: O_13  and  C_14 
REMARK    7  A    between atoms: C_15  and  C_26 
REMARK    8  A    between atoms: C_15  and  C_16 
REMARK    9  A    between atoms: C_16  and  C_17 
ROOT
HETATM    1  N           1     -35.429  -0.692 -13.037  0.00  0.00    -0.344 N 
HETATM    2  C           1     -36.287  -0.557 -14.094  0.00  0.00     0.249 C 
HETATM    3  O           1     -37.423  -0.960 -14.005  0.00  0.00    -0.271 OA
HETATM    4  H           1     -34.477  -0.355 -13.112  0.00  0.00     0.163 HD
ENDROOT
BRANCH   1   5
HETATM    5  C           1     -35.881  -1.319 -11.810  0.00  0.00     0.189 C 
BRANCH   5   6
HETATM    6  C           1     -34.679  -1.635 -10.929  0.00  0.00     0.074 C 
BRANCH   6   7
HETATM    7  C           1     -34.422  -3.110 -10.947  0.00  0.00    -0.056 A 
HETATM    8  C           1     -35.446  -4.000 -10.623  0.00  0.00     0.010 A 
HETATM    9  C           1     -35.206  -5.374 -10.640  0.00  0.00     0.037 A 
HETATM   10  C           1     -33.945  -5.858 -10.982  0.00  0.00     0.065 A 
HETATM   11  C           1     -32.921  -4.969 -11.308  0.00  0.00     0.037 A 
HETATM   12  C           1     -33.159  -3.594 -11.290  0.00  0.00     0.010 A 
BRANCH  10  13
HETATM   13  O           1     -33.712  -7.193 -10.999  0.00  0.00    -0.361 OA
HETATM   14  H           1     -32.762  -7.335 -10.854  0.00  0.00     0.217 HD
ENDBRANCH  10  13
ENDBRANCH   6   7
ENDBRANCH   5   6
BRANCH   5  15
HETATM   15  C           1     -36.807  -0.378 -11.079  0.00  0.00     0.197 C 
HETATM   16  O           1     -36.364   0.689 -10.602  0.00  0.00    -0.646 OA
HETATM   17  O           1     -38.017  -0.666 -10.951  0.00  0.00    -0.646 OA
ENDBRANCH   5  15
ENDBRANCH   1   5
BRANCH   2  18
HETATM   18  C           1     -35.816   0.094 -15.371  0.00  0.00     0.284 C 
BRANCH  18  19
HETATM   19  C           1     -35.980  -0.880 -16.530  0.00  0.00     0.155 C 
BRANCH  19  20
HETATM   20  C           1     -34.930  -1.959 -16.434  0.00  0.00     0.175 C 
HETATM   21  O           1     -34.890  -2.705 -15.432  0.00  0.00    -0.648 OA
HETATM   22  O           1     -34.100  -2.107 -17.356  0.00  0.00    -0.648 OA
ENDBRANCH  19  20
ENDBRANCH  18  19
BRANCH  18  23
HETATM   23  N           1     -34.370   0.470 -15.237  0.00  0.00    -0.066 N 
HETATM   24  H           1     -34.246   1.476 -15.489  0.00  0.00     0.275 HD
HETATM   25  H           1     -34.062   0.318 -14.249  0.00  0.00     0.275 HD
HETATM   26  H           1     -33.796  -0.123 -15.877  0.00  0.00     0.275 HD
ENDBRANCH  18  23
ENDBRANCH   2  18
TORSDOF 9
ENDMDL
MODEL 2
REMARK VINA RESULT:      -7.3      1.660      2.071
REMARK  9 active torsions:
REMARK  status: ('A' for Active; 'I' for Inactive)
REMARK    1  A    between atoms: N_1  and  C_16 
REMARK       I    between atoms: N_1  and  C_2 
REMARK    2  A    between atoms: C_2  and  C_3 
REMARK    3  A    between atoms: C_3  and  C_4 
REMARK    4  A    between atoms: C_3  and  N_8 
REMARK    5  A    between atoms: C_4  and  C_5 
REMARK    6  A    between atoms: O_13  and  C_14 
REMARK    7  A    between atoms: C_15  and  C_26 
REMARK    8  A    between atoms: C_15  and  C_16 
REMARK    9  A    between atoms: C_16  and  C_17 
ROOT
HETATM    1  N           1     -36.004  -0.673 -11.830  0.00  0.00    -0.344 N 
HETATM    2  C           1     -36.556  -0.376 -13.046  0.00  0.00     0.249 C 
HETATM    3  O           1     -37.758  -0.311 -13.164  0.00  0.00    -0.271 OA
HETATM    4  H           1     -34.998  -0.728 -11.730  0.00  0.00     0.163 HD
ENDROOT
BRANCH   1   5
HETATM    5  C           1     -36.860  -0.911 -10.683  0.00  0.00     0.189 C 
BRANCH   5   6
HETATM    6  C           1     -36.204  -1.935  -9.765  0.00  0.00     0.074 C 
BRANCH   6   7
HETATM    7  C           1     -35.166  -2.697 -10.529  0.00  0.00    -0.056 A 
HETATM    8  C           1     -35.516  -3.867 -11.203  0.00  0.00     0.010 A 
HETATM    9  C           1     -34.549  -4.577 -11.915  0.00  0.00     0.037 A 
HETATM   10  C           1     -33.233  -4.117 -11.954  0.00  0.00     0.065 A 
HETATM   11  C           1     -32.883  -2.946 -11.280  0.00  0.00     0.037 A 
HETATM   12  C           1     -33.850  -2.236 -10.568  0.00  0.00     0.010 A 
BRANCH  10  13
HETATM   13  O           1     -32.294  -4.806 -12.646  0.00  0.00    -0.361 OA
HETATM   14  H           1     -32.237  -5.699 -12.268  0.00  0.00     0.217 HD
ENDBRANCH  10  13
ENDBRANCH   6   7
ENDBRANCH   5   6
BRANCH   5  15
HETATM   15  C           1     -37.061   0.382  -9.931  0.00  0.00     0.197 C 
HETATM   16  O           1     -38.075   1.080 -10.149  0.00  0.00    -0.646 OA
HETATM   17  O           1     -36.214   0.754  -9.090  0.00  0.00    -0.646 OA
ENDBRANCH   5  15
ENDBRANCH   1   5
BRANCH   2  18
HETATM   18  C           1     -35.667  -0.129 -14.239  0.00  0.00     0.284 C 
BRANCH  18  19
HETATM   19  C           1     -36.490   0.465 -15.374  0.00  0.00     0.155 C 
BRANCH  19  20
HETATM   20  C           1     -36.878  -0.627 -16.340  0.00  0.00     0.175 C 
HETATM   21  O           1     -36.127  -0.910 -17.298  0.00  0.00    -0.648 OA
HETATM   22  O           1     -37.951  -1.248 -16.182  0.00  0.00    -0.648 OA
ENDBRANCH  19  20
ENDBRANCH  18  19
BRANCH  18  23
HETATM   23  N           1     -35.062  -1.427 -14.688  0.00  0.00    -0.066 N 
HETATM   24  H           1     -35.336  -1.614 -15.679  0.00  0.00     0.275 HD
HETATM   25  H           1     -34.021  -1.366 -14.620  0.00  0.00     0.275 HD
HETATM   26  H           1     -35.408  -2.201 -14.079  0.00  0.00     0.275 HD
ENDBRANCH  18  23
ENDBRANCH   2  18
TORSDOF 9
ENDMDL
MODEL 3
REMARK VINA RESULT:      -7.1     13.582     16.950
REMARK  9 active torsions:
REMARK  status: ('A' for Active; 'I' for Inactive)
REMARK    1  A    between atoms: N_1  and  C_16 
REMARK       I    between atoms: N_1  and  C_2 
REMARK    2  A    between atoms: C_2  and  C_3 
REMARK    3  A    between atoms: C_3  and  C_4 
REMARK    4  A    between atoms: C_3  and  N_8 
REMARK    5  A    between atoms: C_4  and  C_5 
REMARK    6  A    between atoms: O_13  and  C_14 
REMARK    7  A    between atoms: C_15  and  C_26 
REMARK    8  A    between atoms: C_15  and  C_16 
REMARK    9  A    between atoms: C_16  and  C_17 
ROOT
HETATM    1  N           1     -20.995  -5.142  -5.147  0.00  0.00    -0.344 N 
HETATM    2  C           1     -21.310  -6.240  -4.395  0.00  0.00     0.249 C 
HETATM    3  O           1     -21.613  -7.277  -4.937  0.00  0.00    -0.271 OA
HETATM    4  H           1     -20.742  -4.273  -4.694  0.00  0.00     0.163 HD
ENDROOT
BRANCH   1   5
HETATM    5  C           1     -21.025  -5.221  -6.595  0.00  0.00     0.189 C 
BRANCH   5   6
HETATM    6  C           1     -21.492  -3.889  -7.167  0.00  0.00     0.074 C 
BRANCH   6   7
HETATM    7  C           1     -22.056  -4.104  -8.537  0.00  0.00    -0.056 A 
HETATM    8  C           1     -23.425  -4.310  -8.702  0.00  0.00     0.010 A 
HETATM    9  C           1     -23.950  -4.511  -9.979  0.00  0.00     0.037 A 
HETATM   10  C           1     -23.108  -4.503 -11.090  0.00  0.00     0.065 A 
HETATM   11  C           1     -21.738  -4.295 -10.925  0.00  0.00     0.037 A 
HETATM   12  C           1     -21.212  -4.096  -9.648  0.00  0.00     0.010 A 
BRANCH  10  13
HETATM   13  O           1     -23.618  -4.697 -12.330  0.00  0.00    -0.361 OA
HETATM   14  H           1     -24.363  -4.084 -12.447  0.00  0.00     0.217 HD
ENDBRANCH  10  13
ENDBRANCH   6   7
ENDBRANCH   5   6
BRANCH   5  15
HETATM   15  C           1     -19.641  -5.532  -7.109  0.00  0.00     0.197 C 
HETATM   16  O           1     -19.322  -6.711  -7.374  0.00  0.00    -0.646 OA
HETATM   17  O           1     -18.812  -4.609  -7.271  0.00  0.00    -0.646 OA
ENDBRANCH   5  15
ENDBRANCH   1   5
BRANCH   2  18
HETATM   18  C           1     -21.280  -6.157  -2.889  0.00  0.00     0.284 C 
BRANCH  18  19
HETATM   19  C           1     -20.691  -7.441  -2.320  0.00  0.00     0.155 C 
BRANCH  19  20
HETATM   20  C           1     -21.644  -8.026  -1.306  0.00  0.00     0.175 C 
HETATM   21  O           1     -22.301  -9.052  -1.586  0.00  0.00    -0.648 OA
HETATM   22  O           1     -21.775  -7.486  -0.188  0.00  0.00    -0.648 OA
ENDBRANCH  19  20
ENDBRANCH  18  19
BRANCH  18  23
HETATM   23  N           1     -22.676  -5.976  -2.370  0.00  0.00    -0.066 N 
HETATM   24  H           1     -22.961  -6.825  -1.833  0.00  0.00     0.275 HD
HETATM   25  H           1     -22.708  -5.141  -1.743  0.00  0.00     0.275 HD
HETATM   26  H           1     -23.330  -5.836  -3.172  0.00  0.00     0.275 HD
ENDBRANCH  18  23
ENDBRANCH   2  18
TORSDOF 9
ENDMDL
MODEL 4
REMARK VINA RESULT:      -7.0      1.528      2.238
REMARK  9 active torsions:
REMARK  status: ('A' for Active; 'I' for Inactive)
REMARK    1  A    between atoms: N_1  and  C_16 
REMARK       I    between atoms: N_1  and  C_2 
REMARK    2  A    between atoms: C_2  and  C_3 
REMARK    3  A    between atoms: C_3  and  C_4 
REMARK    4  A    between atoms: C_3  and  N_8 
REMARK    5  A    between atoms: C_4  and  C_5 
REMARK    6  A    between atoms: O_13  and  C_14 
REMARK    7  A    between atoms: C_15  and  C_26 
REMARK    8  A    between atoms: C_15  and  C_16 
REMARK    9  A    between atoms: C_16  and  C_17 
ROOT
HETATM    1  N           1     -34.734  -1.331 -12.871  0.00  0.00    -0.344 N 
HETATM    2  C           1     -35.914  -0.718 -13.197  0.00  0.00     0.249 C 
HETATM    3  O           1     -36.926  -1.001 -12.599  0.00  0.00    -0.271 OA
HETATM    4  H           1     -33.887  -1.094 -13.372  0.00  0.00     0.163 HD
ENDROOT
BRANCH   1   5
HETATM    5  C           1     -34.698  -2.319 -11.811  0.00  0.00     0.189 C 
BRANCH   5   6
HETATM    6  C           1     -33.654  -3.378 -12.140  0.00  0.00     0.074 C 
BRANCH   6   7
HETATM    7  C           1     -33.997  -4.653 -11.434  0.00  0.00    -0.056 A 
HETATM    8  C           1     -33.062  -5.687 -11.370  0.00  0.00     0.010 A 
HETATM    9  C           1     -33.382  -6.875 -10.712  0.00  0.00     0.037 A 
HETATM   10  C           1     -34.634  -7.029 -10.118  0.00  0.00     0.065 A 
HETATM   11  C           1     -35.568  -5.995 -10.181  0.00  0.00     0.037 A 
HETATM   12  C           1     -35.250  -4.807 -10.840  0.00  0.00     0.010 A 
BRANCH  10  13
HETATM   13  O           1     -34.944  -8.183  -9.478  0.00  0.00    -0.361 OA
HETATM   14  H           1     -35.886  -8.365  -9.628  0.00  0.00     0.217 HD
ENDBRANCH  10  13
ENDBRANCH   6   7
ENDBRANCH   5   6
BRANCH   5  15
HETATM   15  C           1     -34.339  -1.645 -10.510  0.00  0.00     0.197 C 
HETATM   16  O           1     -33.142  -1.558 -10.161  0.00  0.00    -0.646 OA
HETATM   17  O           1     -35.238  -1.173  -9.781  0.00  0.00    -0.646 OA
ENDBRANCH   5  15
ENDBRANCH   1   5
BRANCH   2  18
HETATM   18  C           1     -35.951   0.309 -14.301  0.00  0.00     0.284 C 
BRANCH  18  19
HETATM   19  C           1     -36.885  -0.165 -15.406  0.00  0.00     0.155 C 
BRANCH  19  20
HETATM   20  C           1     -36.119  -1.034 -16.374  0.00  0.00     0.175 C 
HETATM   21  O           1     -36.216  -0.834 -17.604  0.00  0.00    -0.648 OA
HETATM   22  O           1     -35.389  -1.952 -15.946  0.00  0.00    -0.648 OA
ENDBRANCH  19  20
ENDBRANCH  18  19
BRANCH  18  23
HETATM   23  N           1     -34.571   0.494 -14.859  0.00  0.00    -0.066 N 
HETATM   24  H           1     -33.935  -0.235 -14.464  0.00  0.00     0.275 HD
HETATM   25  H           1     -34.602   0.402 -15.899  0.00  0.00     0.275 HD
HETATM   26  H           1     -34.216   1.442 -14.602  0.00  0.00     0.275 HD
ENDBRANCH  18  23
ENDBRANCH   2  18
TORSDOF 9
ENDMDL
MODEL 5
REMARK VINA RESULT:      -6.9     13.356     16.635
REMARK  9 active torsions:
REMARK  status: ('A' for Active; 'I' for Inactive)
REMARK    1  A    between atoms: N_1  and  C_16 
REMARK       I    between atoms: N_1  and  C_2 
REMARK    2  A    between atoms: C_2  and  C_3 
REMARK    3  A    between atoms: C_3  and  C_4 
REMARK    4  A    between atoms: C_3  and  N_8 
REMARK    5  A    between atoms: C_4  and  C_5 
REMARK    6  A    between atoms: O_13  and  C_14 
REMARK    7  A    between atoms: C_15  and  C_26 
REMARK    8  A    between atoms: C_15  and  C_16 
REMARK    9  A    between atoms: C_16  and  C_17 
ROOT
HETATM    1  N           1     -21.627  -5.478  -5.825  0.00  0.00    -0.344 N 
HETATM    2  C           1     -21.509  -6.793  -5.466  0.00  0.00     0.249 C 
HETATM    3  O           1     -20.963  -7.576  -6.208  0.00  0.00    -0.271 OA
HETATM    4  H           1     -22.085  -4.823  -5.204  0.00  0.00     0.163 HD
ENDROOT
BRANCH   1   5
HETATM    5  C           1     -21.099  -5.024  -7.097  0.00  0.00     0.189 C 
BRANCH   5   6
HETATM    6  C           1     -21.891  -3.812  -7.571  0.00  0.00     0.074 C 
BRANCH   6   7
HETATM    7  C           1     -22.377  -4.048  -8.967  0.00  0.00    -0.056 A 
HETATM    8  C           1     -21.462  -4.154 -10.014  0.00  0.00     0.010 A 
HETATM    9  C           1     -21.914  -4.374 -11.316  0.00  0.00     0.037 A 
HETATM   10  C           1     -23.280  -4.490 -11.569  0.00  0.00     0.065 A 
HETATM   11  C           1     -24.196  -4.385 -10.522  0.00  0.00     0.037 A 
HETATM   12  C           1     -23.744  -4.164  -9.220  0.00  0.00     0.010 A 
BRANCH  10  13
HETATM   13  O           1     -23.720  -4.705 -12.833  0.00  0.00    -0.361 OA
HETATM   14  H           1     -24.438  -5.358 -12.794  0.00  0.00     0.217 HD
ENDBRANCH  10  13
ENDBRANCH   6   7
ENDBRANCH   5   6
BRANCH   5  15
HETATM   15  C           1     -19.649  -4.643  -6.930  0.00  0.00     0.197 C 
HETATM   16  O           1     -19.176  -4.468  -5.785  0.00  0.00    -0.646 OA
HETATM   17  O           1     -18.919  -4.502  -7.935  0.00  0.00    -0.646 OA
ENDBRANCH   5  15
ENDBRANCH   1   5
BRANCH   2  18
HETATM   18  C           1     -22.059  -7.267  -4.143  0.00  0.00     0.284 C 
BRANCH  18  19
HETATM   19  C           1     -21.547  -6.365  -3.027  0.00  0.00     0.155 C 
BRANCH  19  20
HETATM   20  C           1     -21.734  -7.055  -1.698  0.00  0.00     0.175 C 
HETATM   21  O           1     -22.742  -6.807  -1.002  0.00  0.00    -0.648 OA
HETATM   22  O           1     -20.881  -7.873  -1.293  0.00  0.00    -0.648 OA
ENDBRANCH  19  20
ENDBRANCH  18  19
BRANCH  18  23
HETATM   23  N           1     -21.611  -8.676  -3.891  0.00  0.00    -0.066 N 
HETATM   24  H           1     -20.931  -8.964  -4.630  0.00  0.00     0.275 HD
HETATM   25  H           1     -21.150  -8.731  -2.954  0.00  0.00     0.275 HD
HETATM   26  H           1     -22.438  -9.314  -3.912  0.00  0.00     0.275 HD
ENDBRANCH  18  23
ENDBRANCH   2  18
TORSDOF 9
ENDMDL
MODEL 6
REMARK VINA RESULT:      -6.9     12.979     15.193
REMARK  9 active torsions:
REMARK  status: ('A' for Active; 'I' for Inactive)
REMARK    1  A    between atoms: N_1  and  C_16 
REMARK       I    between atoms: N_1  and  C_2 
REMARK    2  A    between atoms: C_2  and  C_3 
REMARK    3  A    between atoms: C_3  and  C_4 
REMARK    4  A    between atoms: C_3  and  N_8 
REMARK    5  A    between atoms: C_4  and  C_5 
REMARK    6  A    between atoms: O_13  and  C_14 
REMARK    7  A    between atoms: C_15  and  C_26 
REMARK    8  A    between atoms: C_15  and  C_16 
REMARK    9  A    between atoms: C_16  and  C_17 
ROOT
HETATM    1  N           1     -21.878  -4.818  -8.312  0.00  0.00    -0.344 N 
HETATM    2  C           1     -23.188  -4.515  -8.059  0.00  0.00     0.249 C 
HETATM    3  O           1     -23.577  -4.422  -6.918  0.00  0.00    -0.271 OA
HETATM    4  H           1     -21.552  -4.896  -9.266  0.00  0.00     0.163 HD
ENDROOT
BRANCH   1   5
HETATM    5  C           1     -20.956  -5.028  -7.212  0.00  0.00     0.189 C 
BRANCH   5   6
HETATM    6  C           1     -20.752  -6.522  -6.999  0.00  0.00     0.074 C 
BRANCH   6   7
HETATM    7  C           1     -20.829  -6.833  -5.537  0.00  0.00    -0.056 A 
HETATM    8  C           1     -20.339  -8.047  -5.056  0.00  0.00     0.010 A 
HETATM    9  C           1     -20.411  -8.337  -3.693  0.00  0.00     0.037 A 
HETATM   10  C           1     -20.971  -7.413  -2.812  0.00  0.00     0.065 A 
HETATM   11  C           1     -21.461  -6.199  -3.293  0.00  0.00     0.037 A 
HETATM   12  C           1     -21.390  -5.908  -4.655  0.00  0.00     0.010 A 
BRANCH  10  13
HETATM   13  O           1     -21.041  -7.694  -1.488  0.00  0.00    -0.361 OA
HETATM   14  H           1     -20.761  -8.616  -1.362  0.00  0.00     0.217 HD
ENDBRANCH  10  13
ENDBRANCH   6   7
ENDBRANCH   5   6
BRANCH   5  15
HETATM   15  C           1     -19.633  -4.380  -7.537  0.00  0.00     0.197 C 
HETATM   16  O           1     -19.539  -3.604  -8.513  0.00  0.00    -0.646 OA
HETATM   17  O           1     -18.629  -4.619  -6.830  0.00  0.00    -0.646 OA
ENDBRANCH   5  15
ENDBRANCH   1   5
BRANCH   2  18
HETATM   18  C           1     -24.147  -4.298  -9.203  0.00  0.00     0.284 C 
BRANCH  18  19
HETATM   19  C           1     -23.398  -4.414 -10.524  0.00  0.00     0.155 C 
BRANCH  19  20
HETATM   20  C           1     -23.787  -3.269 -11.426  0.00  0.00     0.175 C 
HETATM   21  O           1     -22.943  -2.400 -11.732  0.00  0.00    -0.648 OA
HETATM   22  O           1     -24.954  -3.189 -11.866  0.00  0.00    -0.648 OA
ENDBRANCH  19  20
ENDBRANCH  18  19
BRANCH  18  23
HETATM   23  N           1     -24.755  -2.931  -9.093  0.00  0.00    -0.066 N 
HETATM   24  H           1     -24.174  -2.341  -8.456  0.00  0.00     0.275 HD
HETATM   25  H           1     -24.792  -2.490 -10.040  0.00  0.00     0.275 HD
HETATM   26  H           1     -25.723  -3.011  -8.706  0.00  0.00     0.275 HD
ENDBRANCH  18  23
ENDBRANCH   2  18
TORSDOF 9
ENDMDL
MODEL 7
REMARK VINA RESULT:      -6.8     13.243     15.584
REMARK  9 active torsions:
REMARK  status: ('A' for Active; 'I' for Inactive)
REMARK    1  A    between atoms: N_1  and  C_16 
REMARK       I    between atoms: N_1  and  C_2 
REMARK    2  A    between atoms: C_2  and  C_3 
REMARK    3  A    between atoms: C_3  and  C_4 
REMARK    4  A    between atoms: C_3  and  N_8 
REMARK    5  A    between atoms: C_4  and  C_5 
REMARK    6  A    between atoms: O_13  and  C_14 
REMARK    7  A    between atoms: C_15  and  C_26 
REMARK    8  A    between atoms: C_15  and  C_16 
REMARK    9  A    between atoms: C_16  and  C_17 
ROOT
HETATM    1  N           1     -21.725  -5.426  -7.641  0.00  0.00    -0.344 N 
HETATM    2  C           1     -21.882  -4.088  -7.885  0.00  0.00     0.249 C 
HETATM    3  O           1     -21.511  -3.278  -7.069  0.00  0.00    -0.271 OA
HETATM    4  H           1     -22.035  -6.104  -8.325  0.00  0.00     0.163 HD
ENDROOT
BRANCH   1   5
HETATM    5  C           1     -21.116  -5.871  -6.403  0.00  0.00     0.189 C 
BRANCH   5   6
HETATM    6  C           1     -21.736  -7.197  -5.981  0.00  0.00     0.074 C 
BRANCH   6   7
HETATM    7  C           1     -21.699  -7.313  -4.489  0.00  0.00    -0.056 A 
HETATM    8  C           1     -21.929  -6.188  -3.697  0.00  0.00     0.010 A 
HETATM    9  C           1     -21.894  -6.295  -2.307  0.00  0.00     0.037 A 
HETATM   10  C           1     -21.632  -7.527  -1.708  0.00  0.00     0.065 A 
HETATM   11  C           1     -21.404  -8.653  -2.500  0.00  0.00     0.037 A 
HETATM   12  C           1     -21.437  -8.546  -3.890  0.00  0.00     0.010 A 
BRANCH  10  13
HETATM   13  O           1     -21.600  -7.632  -0.357  0.00  0.00    -0.361 OA
HETATM   14  H           1     -22.515  -7.704  -0.040  0.00  0.00     0.217 HD
ENDBRANCH  10  13
ENDBRANCH   6   7
ENDBRANCH   5   6
BRANCH   5  15
HETATM   15  C           1     -19.633  -6.052  -6.611  0.00  0.00     0.197 C 
HETATM   16  O           1     -19.160  -7.198  -6.773  0.00  0.00    -0.646 OA
HETATM   17  O           1     -18.876  -5.056  -6.621  0.00  0.00    -0.646 OA
ENDBRANCH   5  15
ENDBRANCH   1   5
BRANCH   2  18
HETATM   18  C           1     -22.516  -3.625  -9.173  0.00  0.00     0.284 C 
BRANCH  18  19
HETATM   19  C           1     -23.880  -4.285  -9.335  0.00  0.00     0.155 C 
BRANCH  19  20
HETATM   20  C           1     -24.767  -3.406 -10.181  0.00  0.00     0.175 C 
HETATM   21  O           1     -25.933  -3.152  -9.810  0.00  0.00    -0.648 OA
HETATM   22  O           1     -24.336  -2.932 -11.254  0.00  0.00    -0.648 OA
ENDBRANCH  19  20
ENDBRANCH  18  19
BRANCH  18  23
HETATM   23  N           1     -21.638  -4.007 -10.328  0.00  0.00    -0.066 N 
HETATM   24  H           1     -21.754  -3.312 -11.099  0.00  0.00     0.275 HD
HETATM   25  H           1     -20.640  -4.018 -10.017  0.00  0.00     0.275 HD
HETATM   26  H           1     -21.908  -4.956 -10.672  0.00  0.00     0.275 HD
ENDBRANCH  18  23
ENDBRANCH   2  18
TORSDOF 9
ENDMDL
MODEL 8
REMARK VINA RESULT:      -6.7      2.683      6.709
REMARK  9 active torsions:
REMARK  status: ('A' for Active; 'I' for Inactive)
REMARK    1  A    between atoms: N_1  and  C_16 
REMARK       I    between atoms: N_1  and  C_2 
REMARK    2  A    between atoms: C_2  and  C_3 
REMARK    3  A    between atoms: C_3  and  C_4 
REMARK    4  A    between atoms: C_3  and  N_8 
REMARK    5  A    between atoms: C_4  and  C_5 
REMARK    6  A    between atoms: O_13  and  C_14 
REMARK    7  A    between atoms: C_15  and  C_26 
REMARK    8  A    between atoms: C_15  and  C_16 
REMARK    9  A    between atoms: C_16  and  C_17 
ROOT
HETATM    1  N           1     -36.193  -1.153 -10.639  0.00  0.00    -0.344 N 
HETATM    2  C           1     -37.436  -0.587 -10.728  0.00  0.00     0.249 C 
HETATM    3  O           1     -38.069  -0.677 -11.754  0.00  0.00    -0.271 OA
HETATM    4  H           1     -35.663  -1.077  -9.781  0.00  0.00     0.163 HD
ENDROOT
BRANCH   1   5
HETATM    5  C           1     -35.635  -1.859 -11.776  0.00  0.00     0.189 C 
BRANCH   5   6
HETATM    6  C           1     -34.470  -1.060 -12.348  0.00  0.00     0.074 C 
BRANCH   6   7
HETATM    7  C           1     -34.966  -0.175 -13.448  0.00  0.00    -0.056 A 
HETATM    8  C           1     -34.462   1.119 -13.582  0.00  0.00     0.010 A 
HETATM    9  C           1     -34.924   1.945 -14.607  0.00  0.00     0.037 A 
HETATM   10  C           1     -35.887   1.476 -15.500  0.00  0.00     0.065 A 
HETATM   11  C           1     -36.390   0.182 -15.367  0.00  0.00     0.037 A 
HETATM   12  C           1     -35.930  -0.644 -14.341  0.00  0.00     0.010 A 
BRANCH  10  13
HETATM   13  O           1     -36.335   2.278 -16.497  0.00  0.00    -0.361 OA
HETATM   14  H           1     -36.380   3.186 -16.154  0.00  0.00     0.217 HD
ENDBRANCH  10  13
ENDBRANCH   6   7
ENDBRANCH   5   6
BRANCH   5  15
HETATM   15  C           1     -35.144  -3.215 -11.331  0.00  0.00     0.197 C 
HETATM   16  O           1     -35.951  -4.051 -10.871  0.00  0.00    -0.646 OA
HETATM   17  O           1     -33.931  -3.503 -11.425  0.00  0.00    -0.646 OA
ENDBRANCH   5  15
ENDBRANCH   1   5
BRANCH   2  18
HETATM   18  C           1     -38.016   0.149  -9.546  0.00  0.00     0.284 C 
BRANCH  18  19
HETATM   19  C           1     -37.138   1.347  -9.211  0.00  0.00     0.155 C 
BRANCH  19  20
HETATM   20  C           1     -36.564   1.180  -7.826  0.00  0.00     0.175 C 
HETATM   21  O           1     -35.557   0.462  -7.649  0.00  0.00    -0.648 OA
HETATM   22  O           1     -37.097   1.759  -6.855  0.00  0.00    -0.648 OA
ENDBRANCH  19  20
ENDBRANCH  18  19
BRANCH  18  23
HETATM   23  N           1     -38.075  -0.772  -8.363  0.00  0.00    -0.066 N 
HETATM   24  H           1     -37.209  -0.658  -7.789  0.00  0.00     0.275 HD
HETATM   25  H           1     -38.911  -0.538  -7.782  0.00  0.00     0.275 HD
HETATM   26  H           1     -38.145  -1.760  -8.695  0.00  0.00     0.275 HD
ENDBRANCH  18  23
ENDBRANCH   2  18
TORSDOF 9
ENDMDL
MODEL 9
REMARK VINA RESULT:      -6.7     14.708     17.440
REMARK  9 active torsions:
REMARK  status: ('A' for Active; 'I' for Inactive)
REMARK    1  A    between atoms: N_1  and  C_16 
REMARK       I    between atoms: N_1  and  C_2 
REMARK    2  A    between atoms: C_2  and  C_3 
REMARK    3  A    between atoms: C_3  and  C_4 
REMARK    4  A    between atoms: C_3  and  N_8 
REMARK    5  A    between atoms: C_4  and  C_5 
REMARK    6  A    between atoms: O_13  and  C_14 
REMARK    7  A    between atoms: C_15  and  C_26 
REMARK    8  A    between atoms: C_15  and  C_16 
REMARK    9  A    between atoms: C_16  and  C_17 
ROOT
HETATM    1  N           1     -20.035  -6.972  -6.027  0.00  0.00    -0.344 N 
HETATM    2  C           1     -20.175  -5.611  -6.022  0.00  0.00     0.249 C 
HETATM    3  O           1     -20.305  -5.021  -4.976  0.00  0.00    -0.271 OA
HETATM    4  H           1     -19.927  -7.467  -6.904  0.00  0.00     0.163 HD
ENDROOT
BRANCH   1   5
HETATM    5  C           1     -20.044  -7.707  -4.777  0.00  0.00     0.189 C 
BRANCH   5   6
HETATM    6  C           1     -21.462  -8.177  -4.474  0.00  0.00     0.074 C 
BRANCH   6   7
HETATM    7  C           1     -21.713  -8.088  -3.001  0.00  0.00    -0.056 A 
HETATM    8  C           1     -21.709  -9.245  -2.223  0.00  0.00     0.010 A 
HETATM    9  C           1     -21.944  -9.161  -0.850  0.00  0.00     0.037 A 
HETATM   10  C           1     -22.179  -7.922  -0.256  0.00  0.00     0.065 A 
HETATM   11  C           1     -22.181  -6.765  -1.034  0.00  0.00     0.037 A 
HETATM   12  C           1     -21.948  -6.847  -2.408  0.00  0.00     0.010 A 
BRANCH  10  13
HETATM   13  O           1     -22.405  -7.841   1.078  0.00  0.00    -0.361 OA
HETATM   14  H           1     -21.551  -7.926   1.533  0.00  0.00     0.217 HD
ENDBRANCH  10  13
ENDBRANCH   6   7
ENDBRANCH   5   6
BRANCH   5  15
HETATM   15  C           1     -19.132  -8.904  -4.893  0.00  0.00     0.197 C 
HETATM   16  O           1     -18.458  -9.274  -3.907  0.00  0.00    -0.646 OA
HETATM   17  O           1     -19.050  -9.526  -5.975  0.00  0.00    -0.646 OA
ENDBRANCH   5  15
ENDBRANCH   1   5
BRANCH   2  18
HETATM   18  C           1     -20.167  -4.847  -7.323  0.00  0.00     0.284 C 
BRANCH  18  19
HETATM   19  C           1     -21.076  -3.630  -7.204  0.00  0.00     0.155 C 
BRANCH  19  20
HETATM   20  C           1     -22.402  -3.926  -7.859  0.00  0.00     0.175 C 
HETATM   21  O           1     -22.598  -3.598  -9.049  0.00  0.00    -0.648 OA
HETATM   22  O           1     -23.305  -4.498  -7.212  0.00  0.00    -0.648 OA
ENDBRANCH  19  20
ENDBRANCH  18  19
BRANCH  18  23
HETATM   23  N           1     -20.664  -5.734  -8.427  0.00  0.00    -0.066 N 
HETATM   24  H           1     -21.651  -6.014  -8.231  0.00  0.00     0.275 HD
HETATM   25  H           1     -20.623  -5.215  -9.333  0.00  0.00     0.275 HD
HETATM   26  H           1     -20.065  -6.587  -8.484  0.00  0.00     0.275 HD
ENDBRANCH  18  23
ENDBRANCH   2  18
TORSDOF 9
ENDMDL
