MODEL 1
REMARK VINA RESULT:      -6.4      0.000      0.000
REMARK  8 active torsions:
REMARK  status: ('A' for Active; 'I' for Inactive)
REMARK    1  A    between atoms: N_1  and  C_9 
REMARK    2  A    between atoms: O_3  and  C_4 
REMARK    3  A    between atoms: C_4  and  C_19 
REMARK    4  A    between atoms: N_7  and  C_19 
REMARK       I    between atoms: N_7  and  C_8 
REMARK    5  A    between atoms: C_8  and  C_9 
REMARK    6  A    between atoms: C_9  and  C_10 
REMARK    7  A    between atoms: C_10  and  C_11 
REMARK       I    between atoms: C_11  and  N_12 
REMARK    8  A    between atoms: C_18  and  C_19 
ROOT
HETATM    1  H           1     -34.069  -0.763 -14.222  0.00  0.00     0.163 HD
HETATM    2  N           1     -35.063  -0.699 -14.043  0.00  0.00    -0.343 N 
HETATM    3  C           1     -35.581  -1.189 -12.874  0.00  0.00     0.249 C 
HETATM    4  O           1     -36.768  -1.112 -12.660  0.00  0.00    -0.271 OA
ENDROOT
BRANCH   3   5
HETATM    5  C           1     -34.671  -1.824 -11.852  0.00  0.00     0.283 C 
BRANCH   5   6
HETATM    6  N           1     -35.032  -1.325 -10.484  0.00  0.00    -0.066 N 
HETATM    7  H           1     -36.062  -1.416 -10.340  0.00  0.00     0.275 HD
HETATM    8  H           1     -34.528  -1.890  -9.764  0.00  0.00     0.275 HD
HETATM    9  H           1     -34.755  -0.321 -10.395  0.00  0.00     0.275 HD
ENDBRANCH   5   6
BRANCH   5  10
HETATM   10  C           1     -34.833  -3.337 -11.898  0.00  0.00     0.145 C 
BRANCH  10  11
HETATM   11  C           1     -33.897  -3.912 -12.933  0.00  0.00     0.217 C 
HETATM   12  N           1     -32.734  -4.520 -12.541  0.00  0.00    -0.370 N 
HETATM   13  H           1     -32.106  -4.904 -13.235  0.00  0.00     0.159 HD
HETATM   14  H           1     -32.502  -4.583 -11.558  0.00  0.00     0.159 HD
HETATM   15  O           1     -34.172  -3.836 -14.106  0.00  0.00    -0.274 OA
ENDBRANCH  10  11
ENDBRANCH   5  10
ENDBRANCH   3   5
BRANCH   2  16
HETATM   16  C           1     -35.939  -0.089 -15.025  0.00  0.00     0.209 C 
BRANCH  16  17
HETATM   17  C           1     -35.505   1.352 -15.264  0.00  0.00     0.200 C 
BRANCH  17  18
HETATM   18  O           1     -36.423   1.981 -16.117  0.00  0.00    -0.398 OA
HETATM   19  H           1     -36.262   2.907 -16.056  0.00  0.00     0.209 HD
ENDBRANCH  17  18
ENDBRANCH  16  17
BRANCH  16  20
HETATM   20  C           1     -35.857  -0.861 -16.319  0.00  0.00     0.198 C 
HETATM   21  O           1     -36.787  -0.785 -17.151  0.00  0.00    -0.646 OA
HETATM   22  O           1     -34.861  -1.577 -16.558  0.00  0.00    -0.646 OA
ENDBRANCH  16  20
ENDBRANCH   2  16
TORSDOF 8
ENDMDL
MODEL 2
REMARK VINA RESULT:      -6.0     12.181     14.604
REMARK  8 active torsions:
REMARK  status: ('A' for Active; 'I' for Inactive)
REMARK    1  A    between atoms: N_1  and  C_9 
REMARK    2  A    between atoms: O_3  and  C_4 
REMARK    3  A    between atoms: C_4  and  C_19 
REMARK    4  A    between atoms: N_7  and  C_19 
REMARK       I    between atoms: N_7  and  C_8 
REMARK    5  A    between atoms: C_8  and  C_9 
REMARK    6  A    between atoms: C_9  and  C_10 
REMARK    7  A    between atoms: C_10  and  C_11 
REMARK       I    between atoms: C_11  and  N_12 
REMARK    8  A    between atoms: C_18  and  C_19 
ROOT
HETATM    1  H           1     -20.778  -3.409  -9.939  0.00  0.00     0.163 HD
HETATM    2  N           1     -21.575  -4.016  -9.799  0.00  0.00    -0.343 N 
HETATM    3  C           1     -22.627  -3.977 -10.675  0.00  0.00     0.249 C 
HETATM    4  O           1     -23.579  -4.703 -10.508  0.00  0.00    -0.271 OA
ENDROOT
BRANCH   3   5
HETATM    5  C           1     -22.599  -3.028 -11.848  0.00  0.00     0.283 C 
BRANCH   5   6
HETATM    6  N           1     -21.670  -3.561 -12.897  0.00  0.00    -0.066 N 
HETATM    7  H           1     -20.683  -3.337 -12.636  0.00  0.00     0.275 HD
HETATM    8  H           1     -21.784  -4.597 -12.970  0.00  0.00     0.275 HD
HETATM    9  H           1     -21.895  -3.120 -13.818  0.00  0.00     0.275 HD
ENDBRANCH   5   6
BRANCH   5  10
HETATM   10  C           1     -24.000  -2.898 -12.430  0.00  0.00     0.145 C 
BRANCH  10  11
HETATM   11  C           1     -23.908  -2.466 -13.873  0.00  0.00     0.217 C 
HETATM   12  N           1     -24.004  -1.140 -14.197  0.00  0.00    -0.370 N 
HETATM   13  H           1     -23.943  -0.850 -15.165  0.00  0.00     0.159 HD
HETATM   14  H           1     -24.136  -0.449 -13.469  0.00  0.00     0.159 HD
HETATM   15  O           1     -23.752  -3.290 -14.741  0.00  0.00    -0.274 OA
ENDBRANCH  10  11
ENDBRANCH   5  10
ENDBRANCH   3   5
BRANCH   2  16
HETATM   16  C           1     -21.603  -4.928  -8.673  0.00  0.00     0.209 C 
BRANCH  16  17
HETATM   17  C           1     -20.191  -5.425  -8.387  0.00  0.00     0.200 C 
BRANCH  17  18
HETATM   18  O           1     -20.204  -6.246  -7.250  0.00  0.00    -0.398 OA
HETATM   19  H           1     -19.379  -6.122  -6.815  0.00  0.00     0.209 HD
ENDBRANCH  17  18
ENDBRANCH  16  17
BRANCH  16  20
HETATM   20  C           1     -22.140  -4.211  -7.459  0.00  0.00     0.198 C 
HETATM   21  O           1     -23.286  -4.472  -7.034  0.00  0.00    -0.646 OA
HETATM   22  O           1     -21.439  -3.354  -6.878  0.00  0.00    -0.646 OA
ENDBRANCH  16  20
ENDBRANCH   2  16
TORSDOF 8
ENDMDL
MODEL 3
REMARK VINA RESULT:      -5.9     12.340     14.752
REMARK  8 active torsions:
REMARK  status: ('A' for Active; 'I' for Inactive)
REMARK    1  A    between atoms: N_1  and  C_9 
REMARK    2  A    between atoms: O_3  and  C_4 
REMARK    3  A    between atoms: C_4  and  C_19 
REMARK    4  A    between atoms: N_7  and  C_19 
REMARK       I    between atoms: N_7  and  C_8 
REMARK    5  A    between atoms: C_8  and  C_9 
REMARK    6  A    between atoms: C_9  and  C_10 
REMARK    7  A    between atoms: C_10  and  C_11 
REMARK       I    between atoms: C_11  and  N_12 
REMARK    8  A    between atoms: C_18  and  C_19 
ROOT
HETATM    1  H           1     -23.348  -4.921  -8.131  0.00  0.00     0.163 HD
HETATM    2  N           1     -22.479  -4.882  -8.649  0.00  0.00    -0.343 N 
HETATM    3  C           1     -22.495  -4.625  -9.994  0.00  0.00     0.249 C 
HETATM    4  O           1     -21.458  -4.578 -10.612  0.00  0.00    -0.271 OA
ENDROOT
BRANCH   3   5
HETATM    5  C           1     -23.808  -4.402 -10.704  0.00  0.00     0.283 C 
BRANCH   5   6
HETATM    6  N           1     -24.921  -4.383  -9.700  0.00  0.00    -0.066 N 
HETATM    7  H           1     -25.618  -5.126  -9.936  0.00  0.00     0.275 HD
HETATM    8  H           1     -24.533  -4.561  -8.746  0.00  0.00     0.275 HD
HETATM    9  H           1     -25.389  -3.449  -9.716  0.00  0.00     0.275 HD
ENDBRANCH   5   6
BRANCH   5  10
HETATM   10  C           1     -23.766  -3.070 -11.441  0.00  0.00     0.145 C 
BRANCH  10  11
HETATM   11  C           1     -23.525  -3.315 -12.910  0.00  0.00     0.217 C 
HETATM   12  N           1     -22.247  -3.328 -13.401  0.00  0.00    -0.370 N 
HETATM   13  H           1     -22.085  -3.491 -14.387  0.00  0.00     0.159 HD
HETATM   14  H           1     -21.464  -3.175 -12.778  0.00  0.00     0.159 HD
HETATM   15  O           1     -24.459  -3.497 -13.654  0.00  0.00    -0.274 OA
ENDBRANCH  10  11
ENDBRANCH   5  10
ENDBRANCH   3   5
BRANCH   2  16
HETATM   16  C           1     -21.218  -5.096  -7.967  0.00  0.00     0.209 C 
BRANCH  16  17
HETATM   17  C           1     -20.632  -3.753  -7.550  0.00  0.00     0.200 C 
BRANCH  17  18
HETATM   18  O           1     -21.653  -2.931  -7.053  0.00  0.00    -0.398 OA
HETATM   19  H           1     -21.281  -2.427  -6.350  0.00  0.00     0.209 HD
ENDBRANCH  17  18
ENDBRANCH  16  17
BRANCH  16  20
HETATM   20  C           1     -21.447  -5.947  -6.742  0.00  0.00     0.198 C 
HETATM   21  O           1     -20.883  -7.058  -6.639  0.00  0.00    -0.646 OA
HETATM   22  O           1     -22.202  -5.542  -5.832  0.00  0.00    -0.646 OA
ENDBRANCH  16  20
ENDBRANCH   2  16
TORSDOF 8
ENDMDL
MODEL 4
REMARK VINA RESULT:      -5.8     13.153     15.649
REMARK  8 active torsions:
REMARK  status: ('A' for Active; 'I' for Inactive)
REMARK    1  A    between atoms: N_1  and  C_9 
REMARK    2  A    between atoms: O_3  and  C_4 
REMARK    3  A    between atoms: C_4  and  C_19 
REMARK    4  A    between atoms: N_7  and  C_19 
REMARK       I    between atoms: N_7  and  C_8 
REMARK    5  A    between atoms: C_8  and  C_9 
REMARK    6  A    between atoms: C_9  and  C_10 
REMARK    7  A    between atoms: C_10  and  C_11 
REMARK       I    between atoms: C_11  and  N_12 
REMARK    8  A    between atoms: C_18  and  C_19 
ROOT
HETATM    1  H           1     -22.215  -4.479  -8.404  0.00  0.00     0.163 HD
HETATM    2  N           1     -21.322  -4.771  -8.781  0.00  0.00    -0.343 N 
HETATM    3  C           1     -21.018  -4.521 -10.093  0.00  0.00     0.249 C 
HETATM    4  O           1     -19.952  -4.868 -10.542  0.00  0.00    -0.271 OA
ENDROOT
BRANCH   3   5
HETATM    5  C           1     -22.014  -3.811 -10.977  0.00  0.00     0.283 C 
BRANCH   5   6
HETATM    6  N           1     -21.506  -3.794 -12.387  0.00  0.00    -0.066 N 
HETATM    7  H           1     -22.310  -3.877 -13.050  0.00  0.00     0.275 HD
HETATM    8  H           1     -21.000  -2.897 -12.564  0.00  0.00     0.275 HD
HETATM    9  H           1     -20.852  -4.596 -12.532  0.00  0.00     0.275 HD
ENDBRANCH   5   6
BRANCH   5  10
HETATM   10  C           1     -23.349  -4.543 -10.927  0.00  0.00     0.145 C 
BRANCH  10  11
HETATM   11  C           1     -24.420  -3.604 -10.428  0.00  0.00     0.217 C 
HETATM   12  N           1     -24.533  -3.347  -9.088  0.00  0.00    -0.370 N 
HETATM   13  H           1     -25.252  -2.718  -8.753  0.00  0.00     0.159 HD
HETATM   14  H           1     -23.899  -3.785  -8.433  0.00  0.00     0.159 HD
HETATM   15  O           1     -25.177  -3.082 -11.209  0.00  0.00    -0.274 OA
ENDBRANCH  10  11
ENDBRANCH   5  10
ENDBRANCH   3   5
BRANCH   2  16
HETATM   16  C           1     -20.364  -5.453  -7.933  0.00  0.00     0.209 C 
BRANCH  16  17
HETATM   17  C           1     -19.386  -4.438  -7.355  0.00  0.00     0.200 C 
BRANCH  17  18
HETATM   18  O           1     -19.412  -4.507  -5.955  0.00  0.00    -0.398 OA
HETATM   19  H           1     -18.726  -3.944  -5.641  0.00  0.00     0.209 HD
ENDBRANCH  17  18
ENDBRANCH  16  17
BRANCH  16  20
HETATM   20  C           1     -21.094  -6.146  -6.808  0.00  0.00     0.198 C 
HETATM   21  O           1     -20.713  -7.270  -6.415  0.00  0.00    -0.646 OA
HETATM   22  O           1     -22.080  -5.597  -6.271  0.00  0.00    -0.646 OA
ENDBRANCH  16  20
ENDBRANCH   2  16
TORSDOF 8
ENDMDL
MODEL 5
REMARK VINA RESULT:      -5.8     12.445     14.790
REMARK  8 active torsions:
REMARK  status: ('A' for Active; 'I' for Inactive)
REMARK    1  A    between atoms: N_1  and  C_9 
REMARK    2  A    between atoms: O_3  and  C_4 
REMARK    3  A    between atoms: C_4  and  C_19 
REMARK    4  A    between atoms: N_7  and  C_19 
REMARK       I    between atoms: N_7  and  C_8 
REMARK    5  A    between atoms: C_8  and  C_9 
REMARK    6  A    between atoms: C_9  and  C_10 
REMARK    7  A    between atoms: C_10  and  C_11 
REMARK       I    between atoms: C_11  and  N_12 
REMARK    8  A    between atoms: C_18  and  C_19 
ROOT
HETATM    1  H           1     -20.721  -4.644  -9.471  0.00  0.00     0.163 HD
HETATM    2  N           1     -21.551  -4.209  -9.090  0.00  0.00    -0.343 N 
HETATM    3  C           1     -22.552  -3.793  -9.928  0.00  0.00     0.249 C 
HETATM    4  O           1     -23.544  -3.275  -9.473  0.00  0.00    -0.271 OA
ENDROOT
BRANCH   3   5
HETATM    5  C           1     -22.416  -3.982 -11.419  0.00  0.00     0.283 C 
BRANCH   5   6
HETATM    6  N           1     -23.494  -4.904 -11.905  0.00  0.00    -0.066 N 
HETATM    7  H           1     -23.263  -5.886 -11.631  0.00  0.00     0.275 HD
HETATM    8  H           1     -24.407  -4.629 -11.477  0.00  0.00     0.275 HD
HETATM    9  H           1     -23.564  -4.840 -12.946  0.00  0.00     0.275 HD
ENDBRANCH   5   6
BRANCH   5  10
HETATM   10  C           1     -22.549  -2.634 -12.116  0.00  0.00     0.145 C 
BRANCH  10  11
HETATM   11  C           1     -23.270  -2.815 -13.429  0.00  0.00     0.217 C 
HETATM   12  N           1     -22.557  -3.031 -14.577  0.00  0.00    -0.370 N 
HETATM   13  H           1     -23.040  -3.152 -15.458  0.00  0.00     0.159 HD
HETATM   14  H           1     -21.546  -3.070 -14.545  0.00  0.00     0.159 HD
HETATM   15  O           1     -24.475  -2.768 -13.467  0.00  0.00    -0.274 OA
ENDBRANCH  10  11
ENDBRANCH   5  10
ENDBRANCH   3   5
BRANCH   2  16
HETATM   16  C           1     -21.683  -4.027  -7.658  0.00  0.00     0.209 C 
BRANCH  16  17
HETATM   17  C           1     -22.688  -5.032  -7.110  0.00  0.00     0.200 C 
BRANCH  17  18
HETATM   18  O           1     -23.871  -4.367  -6.758  0.00  0.00    -0.398 OA
HETATM   19  H           1     -23.810  -4.168  -5.839  0.00  0.00     0.209 HD
ENDBRANCH  17  18
ENDBRANCH  16  17
BRANCH  16  20
HETATM   20  C           1     -20.343  -4.245  -6.999  0.00  0.00     0.198 C 
HETATM   21  O           1     -20.278  -4.448  -5.767  0.00  0.00    -0.646 OA
HETATM   22  O           1     -19.298  -4.221  -7.685  0.00  0.00    -0.646 OA
ENDBRANCH  16  20
ENDBRANCH   2  16
TORSDOF 8
ENDMDL
MODEL 6
REMARK VINA RESULT:      -5.7      1.979      2.766
REMARK  8 active torsions:
REMARK  status: ('A' for Active; 'I' for Inactive)
REMARK    1  A    between atoms: N_1  and  C_9 
REMARK    2  A    between atoms: O_3  and  C_4 
REMARK    3  A    between atoms: C_4  and  C_19 
REMARK    4  A    between atoms: N_7  and  C_19 
REMARK       I    between atoms: N_7  and  C_8 
REMARK    5  A    between atoms: C_8  and  C_9 
REMARK    6  A    between atoms: C_9  and  C_10 
REMARK    7  A    between atoms: C_10  and  C_11 
REMARK       I    between atoms: C_11  and  N_12 
REMARK    8  A    between atoms: C_18  and  C_19 
ROOT
HETATM    1  H           1     -35.346  -0.565 -11.844  0.00  0.00     0.163 HD
HETATM    2  N           1     -35.325  -1.058 -12.727  0.00  0.00    -0.343 N 
HETATM    3  C           1     -34.689  -2.267 -12.821  0.00  0.00     0.249 C 
HETATM    4  O           1     -34.665  -2.857 -13.875  0.00  0.00    -0.271 OA
ENDROOT
BRANCH   3   5
HETATM    5  C           1     -34.020  -2.864 -11.607  0.00  0.00     0.283 C 
BRANCH   5   6
HETATM    6  N           1     -33.620  -1.766 -10.667  0.00  0.00    -0.066 N 
HETATM    7  H           1     -34.060  -0.868 -10.971  0.00  0.00     0.275 HD
HETATM    8  H           1     -33.941  -2.001  -9.701  0.00  0.00     0.275 HD
HETATM    9  H           1     -32.580  -1.663 -10.674  0.00  0.00     0.275 HD
ENDBRANCH   5   6
BRANCH   5  10
HETATM   10  C           1     -34.988  -3.806 -10.904  0.00  0.00     0.145 C 
BRANCH  10  11
HETATM   11  C           1     -34.594  -5.235 -11.184  0.00  0.00     0.217 C 
HETATM   12  N           1     -34.700  -5.739 -12.452  0.00  0.00    -0.370 N 
HETATM   13  H           1     -34.437  -6.697 -12.640  0.00  0.00     0.159 HD
HETATM   14  H           1     -35.043  -5.152 -13.203  0.00  0.00     0.159 HD
HETATM   15  O           1     -34.186  -5.935 -10.289  0.00  0.00    -0.274 OA
ENDBRANCH  10  11
ENDBRANCH   5  10
ENDBRANCH   3   5
BRANCH   2  16
HETATM   16  C           1     -35.968  -0.485 -13.894  0.00  0.00     0.209 C 
BRANCH  16  17
HETATM   17  C           1     -37.422  -0.168 -13.566  0.00  0.00     0.200 C 
BRANCH  17  18
HETATM   18  O           1     -37.707  -0.578 -12.256  0.00  0.00    -0.398 OA
HETATM   19  H           1     -37.334  -1.436 -12.151  0.00  0.00     0.209 HD
ENDBRANCH  17  18
ENDBRANCH  16  17
BRANCH  16  20
HETATM   20  C           1     -35.253   0.783 -14.289  0.00  0.00     0.198 C 
HETATM   21  O           1     -35.545   1.357 -15.361  0.00  0.00    -0.646 OA
HETATM   22  O           1     -34.368   1.260 -13.546  0.00  0.00    -0.646 OA
ENDBRANCH  16  20
ENDBRANCH   2  16
TORSDOF 8
ENDMDL
MODEL 7
REMARK VINA RESULT:      -5.6     13.067     14.970
REMARK  8 active torsions:
REMARK  status: ('A' for Active; 'I' for Inactive)
REMARK    1  A    between atoms: N_1  and  C_9 
REMARK    2  A    between atoms: O_3  and  C_4 
REMARK    3  A    between atoms: C_4  and  C_19 
REMARK    4  A    between atoms: N_7  and  C_19 
REMARK       I    between atoms: N_7  and  C_8 
REMARK    5  A    between atoms: C_8  and  C_9 
REMARK    6  A    between atoms: C_9  and  C_10 
REMARK    7  A    between atoms: C_10  and  C_11 
REMARK       I    between atoms: C_11  and  N_12 
REMARK    8  A    between atoms: C_18  and  C_19 
ROOT
HETATM    1  H           1     -22.303  -5.837  -9.316  0.00  0.00     0.163 HD
HETATM    2  N           1     -22.164  -4.889  -8.992  0.00  0.00    -0.343 N 
HETATM    3  C           1     -21.626  -4.660  -7.754  0.00  0.00     0.249 C 
HETATM    4  O           1     -21.459  -3.527  -7.367  0.00  0.00    -0.271 OA
ENDROOT
BRANCH   3   5
HETATM    5  C           1     -21.240  -5.822  -6.872  0.00  0.00     0.283 C 
BRANCH   5   6
HETATM    6  N           1     -19.910  -6.360  -7.309  0.00  0.00    -0.066 N 
HETATM    7  H           1     -19.559  -5.806  -8.123  0.00  0.00     0.275 HD
HETATM    8  H           1     -19.229  -6.289  -6.520  0.00  0.00     0.275 HD
HETATM    9  H           1     -20.014  -7.361  -7.590  0.00  0.00     0.275 HD
ENDBRANCH   5   6
BRANCH   5  10
HETATM   10  C           1     -21.146  -5.353  -5.426  0.00  0.00     0.145 C 
BRANCH  10  11
HETATM   11  C           1     -21.689  -6.424  -4.513  0.00  0.00     0.217 C 
HETATM   12  N           1     -22.109  -6.099  -3.251  0.00  0.00    -0.370 N 
HETATM   13  H           1     -22.472  -6.818  -2.638  0.00  0.00     0.159 HD
HETATM   14  H           1     -22.056  -5.140  -2.931  0.00  0.00     0.159 HD
HETATM   15  O           1     -21.751  -7.568  -4.894  0.00  0.00    -0.274 OA
ENDBRANCH  10  11
ENDBRANCH   5  10
ENDBRANCH   3   5
BRANCH   2  16
HETATM   16  C           1     -22.535  -3.772  -9.839  0.00  0.00     0.209 C 
BRANCH  16  17
HETATM   17  C           1     -21.689  -3.794 -11.106  0.00  0.00     0.200 C 
BRANCH  17  18
HETATM   18  O           1     -22.375  -4.486 -12.114  0.00  0.00    -0.398 OA
HETATM   19  H           1     -21.977  -4.242 -12.932  0.00  0.00     0.209 HD
ENDBRANCH  17  18
ENDBRANCH  16  17
BRANCH  16  20
HETATM   20  C           1     -23.994  -3.882 -10.205  0.00  0.00     0.198 C 
HETATM   21  O           1     -24.570  -2.927 -10.771  0.00  0.00    -0.646 OA
HETATM   22  O           1     -24.628  -4.927  -9.942  0.00  0.00    -0.646 OA
ENDBRANCH  16  20
ENDBRANCH   2  16
TORSDOF 8
ENDMDL
MODEL 8
REMARK VINA RESULT:      -5.6     12.857     14.679
REMARK  8 active torsions:
REMARK  status: ('A' for Active; 'I' for Inactive)
REMARK    1  A    between atoms: N_1  and  C_9 
REMARK    2  A    between atoms: O_3  and  C_4 
REMARK    3  A    between atoms: C_4  and  C_19 
REMARK    4  A    between atoms: N_7  and  C_19 
REMARK       I    between atoms: N_7  and  C_8 
REMARK    5  A    between atoms: C_8  and  C_9 
REMARK    6  A    between atoms: C_9  and  C_10 
REMARK    7  A    between atoms: C_10  and  C_11 
REMARK       I    between atoms: C_11  and  N_12 
REMARK    8  A    between atoms: C_18  and  C_19 
ROOT
HETATM    1  H           1     -22.823  -3.222  -8.983  0.00  0.00     0.163 HD
HETATM    2  N           1     -22.273  -3.794  -9.611  0.00  0.00    -0.343 N 
HETATM    3  C           1     -20.988  -4.132  -9.279  0.00  0.00     0.249 C 
HETATM    4  O           1     -20.331  -4.815 -10.028  0.00  0.00    -0.271 OA
ENDROOT
BRANCH   3   5
HETATM    5  C           1     -20.392  -3.650  -7.979  0.00  0.00     0.283 C 
BRANCH   5   6
HETATM    6  N           1     -21.494  -3.331  -7.013  0.00  0.00    -0.066 N 
HETATM    7  H           1     -22.367  -3.106  -7.541  0.00  0.00     0.275 HD
HETATM    8  H           1     -21.664  -4.157  -6.395  0.00  0.00     0.275 HD
HETATM    9  H           1     -21.219  -2.510  -6.429  0.00  0.00     0.275 HD
ENDBRANCH   5   6
BRANCH   5  10
HETATM   10  C           1     -19.503  -4.738  -7.394  0.00  0.00     0.145 C 
BRANCH  10  11
HETATM   11  C           1     -20.299  -5.567  -6.415  0.00  0.00     0.217 C 
HETATM   12  N           1     -20.924  -6.710  -6.836  0.00  0.00    -0.370 N 
HETATM   13  H           1     -21.458  -7.265  -6.181  0.00  0.00     0.159 HD
HETATM   14  H           1     -20.851  -7.000  -7.803  0.00  0.00     0.159 HD
HETATM   15  O           1     -20.387  -5.221  -5.262  0.00  0.00    -0.274 OA
ENDBRANCH  10  11
ENDBRANCH   5  10
ENDBRANCH   3   5
BRANCH   2  16
HETATM   16  C           1     -22.845  -4.257 -10.860  0.00  0.00     0.209 C 
BRANCH  16  17
HETATM   17  C           1     -23.997  -5.211 -10.568  0.00  0.00     0.200 C 
BRANCH  17  18
HETATM   18  O           1     -24.893  -4.603  -9.677  0.00  0.00    -0.398 OA
HETATM   19  H           1     -25.188  -3.808 -10.087  0.00  0.00     0.209 HD
ENDBRANCH  17  18
ENDBRANCH  16  17
BRANCH  16  20
HETATM   20  C           1     -23.356  -3.076 -11.647  0.00  0.00     0.198 C 
HETATM   21  O           1     -24.584  -2.932 -11.831  0.00  0.00    -0.646 OA
HETATM   22  O           1     -22.552  -2.242 -12.116  0.00  0.00    -0.646 OA
ENDBRANCH  16  20
ENDBRANCH   2  16
TORSDOF 8
ENDMDL
MODEL 9
REMARK VINA RESULT:      -5.5     12.083     13.659
REMARK  8 active torsions:
REMARK  status: ('A' for Active; 'I' for Inactive)
REMARK    1  A    between atoms: N_1  and  C_9 
REMARK    2  A    between atoms: O_3  and  C_4 
REMARK    3  A    between atoms: C_4  and  C_19 
REMARK    4  A    between atoms: N_7  and  C_19 
REMARK       I    between atoms: N_7  and  C_8 
REMARK    5  A    between atoms: C_8  and  C_9 
REMARK    6  A    between atoms: C_9  and  C_10 
REMARK    7  A    between atoms: C_10  and  C_11 
REMARK       I    between atoms: C_11  and  N_12 
REMARK    8  A    between atoms: C_18  and  C_19 
ROOT
HETATM    1  H           1     -21.440  -2.899 -12.878  0.00  0.00     0.163 HD
HETATM    2  N           1     -22.246  -3.456 -12.623  0.00  0.00    -0.343 N 
HETATM    3  C           1     -22.188  -4.286 -11.535  0.00  0.00     0.249 C 
HETATM    4  O           1     -23.150  -4.950 -11.231  0.00  0.00    -0.271 OA
ENDROOT
BRANCH   3   5
HETATM    5  C           1     -20.923  -4.371 -10.717  0.00  0.00     0.283 C 
BRANCH   5   6
HETATM    6  N           1     -19.965  -3.309 -11.168  0.00  0.00    -0.066 N 
HETATM    7  H           1     -19.795  -2.637 -10.386  0.00  0.00     0.275 HD
HETATM    8  H           1     -19.061  -3.753 -11.448  0.00  0.00     0.275 HD
HETATM    9  H           1     -20.370  -2.798 -11.985  0.00  0.00     0.275 HD
ENDBRANCH   5   6
BRANCH   5  10
HETATM   10  C           1     -21.255  -4.163  -9.246  0.00  0.00     0.145 C 
BRANCH  10  11
HETATM   11  C           1     -20.123  -4.683  -8.395  0.00  0.00     0.217 C 
HETATM   12  N           1     -20.195  -5.937  -7.851  0.00  0.00    -0.370 N 
HETATM   13  H           1     -19.436  -6.286  -7.280  0.00  0.00     0.159 HD
HETATM   14  H           1     -21.008  -6.516  -8.020  0.00  0.00     0.159 HD
HETATM   15  O           1     -19.153  -3.992  -8.192  0.00  0.00    -0.274 OA
ENDBRANCH  10  11
ENDBRANCH   5  10
ENDBRANCH   3   5
BRANCH   2  16
HETATM   16  C           1     -23.462  -3.375 -13.409  0.00  0.00     0.209 C 
BRANCH  16  17
HETATM   17  C           1     -24.569  -2.753 -12.567  0.00  0.00     0.200 C 
BRANCH  17  18
HETATM   18  O           1     -25.816  -3.174 -13.049  0.00  0.00    -0.398 OA
HETATM   19  H           1     -25.964  -2.719 -13.860  0.00  0.00     0.209 HD
ENDBRANCH  17  18
ENDBRANCH  16  17
BRANCH  16  20
HETATM   20  C           1     -23.216  -2.519 -14.627  0.00  0.00     0.198 C 
HETATM   21  O           1     -23.918  -1.505 -14.831  0.00  0.00    -0.646 OA
HETATM   22  O           1     -22.311  -2.826 -15.434  0.00  0.00    -0.646 OA
ENDBRANCH  16  20
ENDBRANCH   2  16
TORSDOF 8
ENDMDL
