MODEL 1
REMARK VINA RESULT:      -7.1      0.000      0.000
REMARK  8 active torsions:
REMARK  status: ('A' for Active; 'I' for Inactive)
REMARK       I    between atoms: C_1  and  N_6 
REMARK    1  A    between atoms: C_1  and  C_12 
REMARK    2  A    between atoms: C_2  and  C_10 
REMARK    3  A    between atoms: N_6  and  C_22 
REMARK    4  A    between atoms: C_10  and  C_22 
REMARK    5  A    between atoms: C_12  and  C_13 
REMARK    6  A    between atoms: C_12  and  N_18 
REMARK    7  A    between atoms: C_13  and  C_14 
REMARK    8  A    between atoms: C_22  and  C_24 
ROOT
HETATM    1  C           1     -34.814  -2.140 -10.505  0.00  0.00     0.249 C 
HETATM    2  N           1     -36.040  -1.573 -10.281  0.00  0.00    -0.344 N 
HETATM    3  H           1     -36.707  -2.032  -9.674  0.00  0.00     0.163 HD
HETATM    4  O           1     -33.883  -1.872  -9.783  0.00  0.00    -0.271 OA
ENDROOT
BRANCH   2   5
HETATM    5  C           1     -36.382  -0.314 -10.915  0.00  0.00     0.189 C 
BRANCH   5   6
HETATM    6  C           1     -37.417  -0.559 -12.004  0.00  0.00     0.074 C 
BRANCH   6   7
HETATM    7  C           1     -36.917  -0.005 -13.302  0.00  0.00    -0.056 A 
HETATM    8  C           1     -35.636   0.539 -13.380  0.00  0.00     0.007 A 
HETATM    9  C           1     -35.169   1.056 -14.590  0.00  0.00     0.001 A 
HETATM   10  C           1     -35.986   1.028 -15.720  0.00  0.00     0.000 A 
HETATM   11  C           1     -37.267   0.484 -15.642  0.00  0.00     0.001 A 
HETATM   12  C           1     -37.734  -0.032 -14.432  0.00  0.00     0.007 A 
ENDBRANCH   6   7
ENDBRANCH   5   6
BRANCH   5  13
HETATM   13  C           1     -36.952   0.629  -9.882  0.00  0.00     0.197 C 
HETATM   14  O           1     -38.074   1.148 -10.061  0.00  0.00    -0.646 OA
HETATM   15  O           1     -36.300   0.890  -8.847  0.00  0.00    -0.646 OA
ENDBRANCH   5  13
ENDBRANCH   2   5
BRANCH   1  16
HETATM   16  C           1     -34.627  -3.101 -11.654  0.00  0.00     0.275 C 
BRANCH  16  17
HETATM   17  C           1     -33.454  -4.026 -11.355  0.00  0.00     0.046 C 
BRANCH  17  18
HETATM   18  C           1     -33.920  -5.475 -11.417  0.00  0.00    -0.020 C 
HETATM   19  C           1     -34.434  -5.902 -10.049  0.00  0.00     0.009 C 
HETATM   20  C           1     -35.037  -5.605 -12.443  0.00  0.00     0.009 C 
ENDBRANCH  17  18
ENDBRANCH  16  17
BRANCH  16  21
HETATM   21  N           1     -34.347  -2.330 -12.909  0.00  0.00    -0.066 N 
HETATM   22  H           1     -33.319  -2.160 -12.990  0.00  0.00     0.275 HD
HETATM   23  H           1     -34.849  -1.414 -12.875  0.00  0.00     0.275 HD
HETATM   24  H           1     -34.678  -2.878 -13.735  0.00  0.00     0.275 HD
ENDBRANCH  16  21
ENDBRANCH   1  16
TORSDOF 8
ENDMDL
MODEL 2
REMARK VINA RESULT:      -6.8     14.910     17.281
REMARK  8 active torsions:
REMARK  status: ('A' for Active; 'I' for Inactive)
REMARK       I    between atoms: C_1  and  N_6 
REMARK    1  A    between atoms: C_1  and  C_12 
REMARK    2  A    between atoms: C_2  and  C_10 
REMARK    3  A    between atoms: N_6  and  C_22 
REMARK    4  A    between atoms: C_10  and  C_22 
REMARK    5  A    between atoms: C_12  and  C_13 
REMARK    6  A    between atoms: C_12  and  N_18 
REMARK    7  A    between atoms: C_13  and  C_14 
REMARK    8  A    between atoms: C_22  and  C_24 
ROOT
HETATM    1  C           1     -21.731  -6.368  -3.053  0.00  0.00     0.249 C 
HETATM    2  N           1     -22.414  -6.351  -4.240  0.00  0.00    -0.344 N 
HETATM    3  H           1     -23.409  -6.168  -4.249  0.00  0.00     0.163 HD
HETATM    4  O           1     -21.242  -5.351  -2.622  0.00  0.00    -0.271 OA
ENDROOT
BRANCH   2   5
HETATM    5  C           1     -21.709  -6.594  -5.484  0.00  0.00     0.189 C 
BRANCH   5   6
HETATM    6  C           1     -20.791  -5.417  -5.784  0.00  0.00     0.074 C 
BRANCH   6   7
HETATM    7  C           1     -21.057  -4.919  -7.172  0.00  0.00    -0.056 A 
HETATM    8  C           1     -20.051  -4.974  -8.136  0.00  0.00     0.007 A 
HETATM    9  C           1     -20.298  -4.509  -9.429  0.00  0.00     0.001 A 
HETATM   10  C           1     -21.551  -3.990  -9.755  0.00  0.00     0.000 A 
HETATM   11  C           1     -22.556  -3.935  -8.791  0.00  0.00     0.001 A 
HETATM   12  C           1     -22.309  -4.399  -7.498  0.00  0.00     0.007 A 
ENDBRANCH   6   7
ENDBRANCH   5   6
BRANCH   5  13
HETATM   13  C           1     -20.887  -7.853  -5.356  0.00  0.00     0.197 C 
HETATM   14  O           1     -21.443  -8.971  -5.400  0.00  0.00    -0.646 OA
HETATM   15  O           1     -19.647  -7.777  -5.207  0.00  0.00    -0.646 OA
ENDBRANCH   5  13
ENDBRANCH   2   5
BRANCH   1  16
HETATM   16  C           1     -21.592  -7.658  -2.282  0.00  0.00     0.275 C 
BRANCH  16  17
HETATM   17  C           1     -22.242  -7.505  -0.913  0.00  0.00     0.046 C 
BRANCH  17  18
HETATM   18  C           1     -21.961  -8.745  -0.074  0.00  0.00    -0.020 C 
HETATM   19  C           1     -21.538  -8.324   1.327  0.00  0.00     0.009 C 
HETATM   20  C           1     -23.221  -9.596   0.010  0.00  0.00     0.009 C 
ENDBRANCH  17  18
ENDBRANCH  16  17
BRANCH  16  21
HETATM   21  N           1     -20.138  -7.982  -2.110  0.00  0.00    -0.066 N 
HETATM   22  H           1     -19.782  -7.527  -1.239  0.00  0.00     0.275 HD
HETATM   23  H           1     -19.601  -7.624  -2.933  0.00  0.00     0.275 HD
HETATM   24  H           1     -20.017  -9.017  -2.039  0.00  0.00     0.275 HD
ENDBRANCH  16  21
ENDBRANCH   1  16
TORSDOF 8
ENDMDL
MODEL 3
REMARK VINA RESULT:      -6.6     17.433     19.627
REMARK  8 active torsions:
REMARK  status: ('A' for Active; 'I' for Inactive)
REMARK       I    between atoms: C_1  and  N_6 
REMARK    1  A    between atoms: C_1  and  C_12 
REMARK    2  A    between atoms: C_2  and  C_10 
REMARK    3  A    between atoms: N_6  and  C_22 
REMARK    4  A    between atoms: C_10  and  C_22 
REMARK    5  A    between atoms: C_12  and  C_13 
REMARK    6  A    between atoms: C_12  and  N_18 
REMARK    7  A    between atoms: C_13  and  C_14 
REMARK    8  A    between atoms: C_22  and  C_24 
ROOT
HETATM    1  C           1     -19.694  -8.505  -4.884  0.00  0.00     0.249 C 
HETATM    2  N           1     -20.002  -7.765  -3.775  0.00  0.00    -0.344 N 
HETATM    3  H           1     -19.312  -7.144  -3.372  0.00  0.00     0.163 HD
HETATM    4  O           1     -19.898  -8.055  -5.987  0.00  0.00    -0.271 OA
ENDROOT
BRANCH   2   5
HETATM    5  C           1     -21.319  -7.871  -3.177  0.00  0.00     0.189 C 
BRANCH   5   6
HETATM    6  C           1     -21.182  -8.291  -1.720  0.00  0.00     0.074 C 
BRANCH   6   7
HETATM    7  C           1     -22.142  -9.403  -1.428  0.00  0.00    -0.056 A 
HETATM    8  C           1     -22.277 -10.460  -2.328  0.00  0.00     0.007 A 
HETATM    9  C           1     -23.172 -11.496  -2.056  0.00  0.00     0.001 A 
HETATM   10  C           1     -23.930 -11.474  -0.886  0.00  0.00     0.000 A 
HETATM   11  C           1     -23.794 -10.417   0.013  0.00  0.00     0.001 A 
HETATM   12  C           1     -22.900  -9.381  -0.258  0.00  0.00     0.007 A 
ENDBRANCH   6   7
ENDBRANCH   5   6
BRANCH   5  13
HETATM   13  C           1     -22.013  -6.533  -3.252  0.00  0.00     0.197 C 
HETATM   14  O           1     -22.388  -5.963  -2.204  0.00  0.00    -0.646 OA
HETATM   15  O           1     -22.213  -5.993  -4.362  0.00  0.00    -0.646 OA
ENDBRANCH   5  13
ENDBRANCH   2   5
BRANCH   1  16
HETATM   16  C           1     -19.097  -9.883  -4.730  0.00  0.00     0.275 C 
BRANCH  16  17
HETATM   17  C           1     -17.609  -9.761  -4.430  0.00  0.00     0.046 C 
BRANCH  17  18
HETATM   18  C           1     -17.396  -9.714  -2.923  0.00  0.00    -0.020 C 
HETATM   19  C           1     -18.322 -10.716  -2.247  0.00  0.00     0.009 C 
HETATM   20  C           1     -15.949 -10.065  -2.604  0.00  0.00     0.009 C 
ENDBRANCH  17  18
ENDBRANCH  16  17
BRANCH  16  21
HETATM   21  N           1     -19.289 -10.654  -6.001  0.00  0.00    -0.066 N 
HETATM   22  H           1     -20.287 -10.587  -6.302  0.00  0.00     0.275 HD
HETATM   23  H           1     -19.041 -11.657  -5.841  0.00  0.00     0.275 HD
HETATM   24  H           1     -18.672 -10.258  -6.746  0.00  0.00     0.275 HD
ENDBRANCH  16  21
ENDBRANCH   1  16
TORSDOF 8
ENDMDL
MODEL 4
REMARK VINA RESULT:      -6.6     15.768     18.950
REMARK  8 active torsions:
REMARK  status: ('A' for Active; 'I' for Inactive)
REMARK       I    between atoms: C_1  and  N_6 
REMARK    1  A    between atoms: C_1  and  C_12 
REMARK    2  A    between atoms: C_2  and  C_10 
REMARK    3  A    between atoms: N_6  and  C_22 
REMARK    4  A    between atoms: C_10  and  C_22 
REMARK    5  A    between atoms: C_12  and  C_13 
REMARK    6  A    between atoms: C_12  and  N_18 
REMARK    7  A    between atoms: C_13  and  C_14 
REMARK    8  A    between atoms: C_22  and  C_24 
ROOT
HETATM    1  C           1     -20.588  -7.438  -5.695  0.00  0.00     0.249 C 
HETATM    2  N           1     -20.972  -8.585  -5.053  0.00  0.00    -0.344 N 
HETATM    3  H           1     -21.576  -9.249  -5.521  0.00  0.00     0.163 HD
HETATM    4  O           1     -19.580  -7.426  -6.361  0.00  0.00    -0.271 OA
ENDROOT
BRANCH   2   5
HETATM    5  C           1     -20.511  -8.848  -3.703  0.00  0.00     0.189 C 
BRANCH   5   6
HETATM    6  C           1     -21.440  -9.855  -3.038  0.00  0.00     0.074 C 
BRANCH   6   7
HETATM    7  C           1     -22.010  -9.258  -1.789  0.00  0.00    -0.056 A 
HETATM    8  C           1     -21.694  -7.947  -1.435  0.00  0.00     0.007 A 
HETATM    9  C           1     -22.225  -7.391  -0.271  0.00  0.00     0.001 A 
HETATM   10  C           1     -23.073  -8.147   0.539  0.00  0.00     0.000 A 
HETATM   11  C           1     -23.389  -9.458   0.185  0.00  0.00     0.001 A 
HETATM   12  C           1     -22.858 -10.015  -0.979  0.00  0.00     0.007 A 
ENDBRANCH   6   7
ENDBRANCH   5   6
BRANCH   5  13
HETATM   13  C           1     -19.111  -9.411  -3.752  0.00  0.00     0.197 C 
HETATM   14  O           1     -18.270  -9.071  -2.892  0.00  0.00    -0.646 OA
HETATM   15  O           1     -18.793 -10.218  -4.653  0.00  0.00    -0.646 OA
ENDBRANCH   5  13
ENDBRANCH   2   5
BRANCH   1  16
HETATM   16  C           1     -21.426  -6.189  -5.570  0.00  0.00     0.275 C 
BRANCH  16  17
HETATM   17  C           1     -20.513  -4.969  -5.519  0.00  0.00     0.046 C 
BRANCH  17  18
HETATM   18  C           1     -20.791  -4.075  -6.720  0.00  0.00    -0.020 C 
HETATM   19  C           1     -19.711  -4.288  -7.772  0.00  0.00     0.009 C 
HETATM   20  C           1     -22.150  -4.426  -7.311  0.00  0.00     0.009 C 
ENDBRANCH  17  18
ENDBRANCH  16  17
BRANCH  16  21
HETATM   21  N           1     -22.239  -6.256  -4.312  0.00  0.00    -0.066 N 
HETATM   22  H           1     -22.448  -7.255  -4.087  0.00  0.00     0.275 HD
HETATM   23  H           1     -23.135  -5.735  -4.447  0.00  0.00     0.275 HD
HETATM   24  H           1     -21.701  -5.826  -3.526  0.00  0.00     0.275 HD
ENDBRANCH  16  21
ENDBRANCH   1  16
TORSDOF 8
ENDMDL
MODEL 5
REMARK VINA RESULT:      -6.6     18.290     19.980
REMARK  8 active torsions:
REMARK  status: ('A' for Active; 'I' for Inactive)
REMARK       I    between atoms: C_1  and  N_6 
REMARK    1  A    between atoms: C_1  and  C_12 
REMARK    2  A    between atoms: C_2  and  C_10 
REMARK    3  A    between atoms: N_6  and  C_22 
REMARK    4  A    between atoms: C_10  and  C_22 
REMARK    5  A    between atoms: C_12  and  C_13 
REMARK    6  A    between atoms: C_12  and  N_18 
REMARK    7  A    between atoms: C_13  and  C_14 
REMARK    8  A    between atoms: C_22  and  C_24 
ROOT
HETATM    1  C           1     -21.819 -11.194  -4.148  0.00  0.00     0.249 C 
HETATM    2  N           1     -22.889 -11.294  -3.300  0.00  0.00    -0.344 N 
HETATM    3  H           1     -23.814 -11.035  -3.619  0.00  0.00     0.163 HD
HETATM    4  O           1     -21.510 -12.132  -4.845  0.00  0.00    -0.271 OA
ENDROOT
BRANCH   2   5
HETATM    5  C           1     -22.696 -11.772  -1.944  0.00  0.00     0.189 C 
BRANCH   5   6
HETATM    6  C           1     -23.557 -10.954  -0.991  0.00  0.00     0.074 C 
BRANCH   6   7
HETATM    7  C           1     -22.676 -10.115  -0.118  0.00  0.00    -0.056 A 
HETATM    8  C           1     -23.019  -8.791   0.151  0.00  0.00     0.007 A 
HETATM    9  C           1     -22.198  -8.009   0.965  0.00  0.00     0.001 A 
HETATM   10  C           1     -21.034  -8.553   1.509  0.00  0.00     0.000 A 
HETATM   11  C           1     -20.692  -9.877   1.239  0.00  0.00     0.001 A 
HETATM   12  C           1     -21.512 -10.659   0.426  0.00  0.00     0.007 A 
ENDBRANCH   6   7
ENDBRANCH   5   6
BRANCH   5  13
HETATM   13  C           1     -23.098 -13.225  -1.862  0.00  0.00     0.197 C 
HETATM   14  O           1     -22.345 -14.109  -2.324  0.00  0.00    -0.646 OA
HETATM   15  O           1     -24.185 -13.544  -1.332  0.00  0.00    -0.646 OA
ENDBRANCH   5  13
ENDBRANCH   2   5
BRANCH   1  16
HETATM   16  C           1     -21.025  -9.912  -4.212  0.00  0.00     0.275 C 
BRANCH  16  17
HETATM   17  C           1     -21.858  -8.771  -3.642  0.00  0.00     0.046 C 
BRANCH  17  18
HETATM   18  C           1     -20.934  -7.679  -3.119  0.00  0.00    -0.020 C 
HETATM   19  C           1     -21.766  -6.560  -2.506  0.00  0.00     0.009 C 
HETATM   20  C           1     -20.009  -8.262  -2.059  0.00  0.00     0.009 C 
ENDBRANCH  17  18
ENDBRANCH  16  17
BRANCH  16  21
HETATM   21  N           1     -20.676  -9.612  -5.639  0.00  0.00    -0.066 N 
HETATM   22  H           1     -21.114  -8.706  -5.920  0.00  0.00     0.275 HD
HETATM   23  H           1     -21.036 -10.377  -6.254  0.00  0.00     0.275 HD
HETATM   24  H           1     -19.638  -9.545  -5.737  0.00  0.00     0.275 HD
ENDBRANCH  16  21
ENDBRANCH   1  16
TORSDOF 8
ENDMDL
MODEL 6
REMARK VINA RESULT:      -6.6     17.382     19.754
REMARK  8 active torsions:
REMARK  status: ('A' for Active; 'I' for Inactive)
REMARK       I    between atoms: C_1  and  N_6 
REMARK    1  A    between atoms: C_1  and  C_12 
REMARK    2  A    between atoms: C_2  and  C_10 
REMARK    3  A    between atoms: N_6  and  C_22 
REMARK    4  A    between atoms: C_10  and  C_22 
REMARK    5  A    between atoms: C_12  and  C_13 
REMARK    6  A    between atoms: C_12  and  N_18 
REMARK    7  A    between atoms: C_13  and  C_14 
REMARK    8  A    between atoms: C_22  and  C_24 
ROOT
HETATM    1  C           1     -21.781  -7.079  -2.582  0.00  0.00     0.249 C 
HETATM    2  N           1     -21.691  -7.701  -3.798  0.00  0.00    -0.344 N 
HETATM    3  H           1     -22.496  -8.181  -4.181  0.00  0.00     0.163 HD
HETATM    4  O           1     -22.121  -5.921  -2.519  0.00  0.00    -0.271 OA
ENDROOT
BRANCH   2   5
HETATM    5  C           1     -20.443  -7.673  -4.536  0.00  0.00     0.189 C 
BRANCH   5   6
HETATM    6  C           1     -20.068  -9.089  -4.952  0.00  0.00     0.074 C 
BRANCH   6   7
HETATM    7  C           1     -18.649  -9.365  -4.558  0.00  0.00    -0.056 A 
HETATM    8  C           1     -17.705  -9.683  -5.533  0.00  0.00     0.007 A 
HETATM    9  C           1     -16.383  -9.941  -5.167  0.00  0.00     0.001 A 
HETATM   10  C           1     -16.008  -9.879  -3.825  0.00  0.00     0.000 A 
HETATM   11  C           1     -16.952  -9.561  -2.850  0.00  0.00     0.001 A 
HETATM   12  C           1     -18.274  -9.303  -3.216  0.00  0.00     0.007 A 
ENDBRANCH   6   7
ENDBRANCH   5   6
BRANCH   5  13
HETATM   13  C           1     -20.608  -6.815  -5.767  0.00  0.00     0.197 C 
HETATM   14  O           1     -21.590  -6.048  -5.868  0.00  0.00    -0.646 OA
HETATM   15  O           1     -19.761  -6.871  -6.686  0.00  0.00    -0.646 OA
ENDBRANCH   5  13
ENDBRANCH   2   5
BRANCH   1  16
HETATM   16  C           1     -21.454  -7.839  -1.320  0.00  0.00     0.275 C 
BRANCH  16  17
HETATM   17  C           1     -21.874  -9.295  -1.481  0.00  0.00     0.046 C 
BRANCH  17  18
HETATM   18  C           1     -22.387  -9.827  -0.150  0.00  0.00    -0.020 C 
HETATM   19  C           1     -23.667 -10.619  -0.380  0.00  0.00     0.009 C 
HETATM   20  C           1     -21.335 -10.733   0.474  0.00  0.00     0.009 C 
ENDBRANCH  17  18
ENDBRANCH  16  17
BRANCH  16  21
HETATM   21  N           1     -22.194  -7.231  -0.166  0.00  0.00    -0.066 N 
HETATM   22  H           1     -23.201  -7.508  -0.214  0.00  0.00     0.275 HD
HETATM   23  H           1     -22.118  -6.190  -0.212  0.00  0.00     0.275 HD
HETATM   24  H           1     -21.781  -7.572   0.731  0.00  0.00     0.275 HD
ENDBRANCH  16  21
ENDBRANCH   1  16
TORSDOF 8
ENDMDL
MODEL 7
REMARK VINA RESULT:      -6.6     17.077     19.857
REMARK  8 active torsions:
REMARK  status: ('A' for Active; 'I' for Inactive)
REMARK       I    between atoms: C_1  and  N_6 
REMARK    1  A    between atoms: C_1  and  C_12 
REMARK    2  A    between atoms: C_2  and  C_10 
REMARK    3  A    between atoms: N_6  and  C_22 
REMARK    4  A    between atoms: C_10  and  C_22 
REMARK    5  A    between atoms: C_12  and  C_13 
REMARK    6  A    between atoms: C_12  and  N_18 
REMARK    7  A    between atoms: C_13  and  C_14 
REMARK    8  A    between atoms: C_22  and  C_24 
ROOT
HETATM    1  C           1     -19.575  -9.776  -4.826  0.00  0.00     0.249 C 
HETATM    2  N           1     -19.761  -8.462  -4.487  0.00  0.00    -0.344 N 
HETATM    3  H           1     -18.986  -7.812  -4.534  0.00  0.00     0.163 HD
HETATM    4  O           1     -19.736 -10.134  -5.968  0.00  0.00    -0.271 OA
ENDROOT
BRANCH   2   5
HETATM    5  C           1     -21.070  -8.002  -4.063  0.00  0.00     0.189 C 
BRANCH   5   6
HETATM    6  C           1     -20.938  -7.241  -2.751  0.00  0.00     0.074 C 
BRANCH   6   7
HETATM    7  C           1     -21.742  -7.929  -1.692  0.00  0.00    -0.056 A 
HETATM    8  C           1     -21.899  -9.314  -1.726  0.00  0.00     0.007 A 
HETATM    9  C           1     -22.649  -9.956  -0.738  0.00  0.00     0.001 A 
HETATM   10  C           1     -23.241  -9.210   0.281  0.00  0.00     0.000 A 
HETATM   11  C           1     -23.084  -7.826   0.315  0.00  0.00     0.001 A 
HETATM   12  C           1     -22.335  -7.184  -0.672  0.00  0.00     0.007 A 
ENDBRANCH   6   7
ENDBRANCH   5   6
BRANCH   5  13
HETATM   13  C           1     -21.648  -7.091  -5.118  0.00  0.00     0.197 C 
HETATM   14  O           1     -22.582  -6.313  -4.829  0.00  0.00    -0.646 OA
HETATM   15  O           1     -21.191  -7.114  -6.282  0.00  0.00    -0.646 OA
ENDBRANCH   5  13
ENDBRANCH   2   5
BRANCH   1  16
HETATM   16  C           1     -19.166 -10.775  -3.771  0.00  0.00     0.275 C 
BRANCH  16  17
HETATM   17  C           1     -18.330 -10.076  -2.706  0.00  0.00     0.046 C 
BRANCH  17  18
HETATM   18  C           1     -16.895 -10.584  -2.771  0.00  0.00    -0.020 C 
HETATM   19  C           1     -15.949  -9.407  -2.968  0.00  0.00     0.009 C 
HETATM   20  C           1     -16.552 -11.300  -1.472  0.00  0.00     0.009 C 
ENDBRANCH  17  18
ENDBRANCH  16  17
BRANCH  16  21
HETATM   21  N           1     -18.356 -11.866  -4.405  0.00  0.00    -0.066 N 
HETATM   22  H           1     -18.087 -11.581  -5.374  0.00  0.00     0.275 HD
HETATM   23  H           1     -18.923 -12.743  -4.446  0.00  0.00     0.275 HD
HETATM   24  H           1     -17.494 -12.034  -3.838  0.00  0.00     0.275 HD
ENDBRANCH  16  21
ENDBRANCH   1  16
TORSDOF 8
ENDMDL
MODEL 8
REMARK VINA RESULT:      -6.4     17.199     19.632
REMARK  8 active torsions:
REMARK  status: ('A' for Active; 'I' for Inactive)
REMARK       I    between atoms: C_1  and  N_6 
REMARK    1  A    between atoms: C_1  and  C_12 
REMARK    2  A    between atoms: C_2  and  C_10 
REMARK    3  A    between atoms: N_6  and  C_22 
REMARK    4  A    between atoms: C_10  and  C_22 
REMARK    5  A    between atoms: C_12  and  C_13 
REMARK    6  A    between atoms: C_12  and  N_18 
REMARK    7  A    between atoms: C_13  and  C_14 
REMARK    8  A    between atoms: C_22  and  C_24 
ROOT
HETATM    1  C           1     -21.788  -6.817  -2.621  0.00  0.00     0.249 C 
HETATM    2  N           1     -21.168  -7.605  -1.688  0.00  0.00    -0.344 N 
HETATM    3  H           1     -20.189  -7.463  -1.476  0.00  0.00     0.163 HD
HETATM    4  O           1     -22.322  -5.787  -2.283  0.00  0.00    -0.271 OA
ENDROOT
BRANCH   2   5
HETATM    5  C           1     -21.916  -8.642  -1.005  0.00  0.00     0.189 C 
BRANCH   5   6
HETATM    6  C           1     -21.072  -9.907  -0.925  0.00  0.00     0.074 C 
BRANCH   6   7
HETATM    7  C           1     -21.928 -11.050  -0.474  0.00  0.00    -0.056 A 
HETATM    8  C           1     -21.542 -11.818   0.624  0.00  0.00     0.007 A 
HETATM    9  C           1     -22.340 -12.884   1.043  0.00  0.00     0.001 A 
HETATM   10  C           1     -23.521 -13.181   0.364  0.00  0.00     0.000 A 
HETATM   11  C           1     -23.906 -12.412  -0.734  0.00  0.00     0.001 A 
HETATM   12  C           1     -23.109 -11.347  -1.154  0.00  0.00     0.007 A 
ENDBRANCH   6   7
ENDBRANCH   5   6
BRANCH   5  13
HETATM   13  C           1     -22.258  -8.177   0.390  0.00  0.00     0.197 C 
HETATM   14  O           1     -23.438  -7.882   0.680  0.00  0.00    -0.646 OA
HETATM   15  O           1     -21.361  -8.087   1.257  0.00  0.00    -0.646 OA
ENDBRANCH   5  13
ENDBRANCH   2   5
BRANCH   1  16
HETATM   16  C           1     -21.803  -7.235  -4.071  0.00  0.00     0.275 C 
BRANCH  16  17
HETATM   17  C           1     -20.373  -7.307  -4.593  0.00  0.00     0.046 C 
BRANCH  17  18
HETATM   18  C           1     -20.026  -8.751  -4.929  0.00  0.00    -0.020 C 
HETATM   19  C           1     -18.910  -9.231  -4.011  0.00  0.00     0.009 C 
HETATM   20  C           1     -21.256  -9.627  -4.734  0.00  0.00     0.009 C 
ENDBRANCH  17  18
ENDBRANCH  16  17
BRANCH  16  21
HETATM   21  N           1     -22.577  -6.231  -4.872  0.00  0.00    -0.066 N 
HETATM   22  H           1     -22.157  -5.283  -4.739  0.00  0.00     0.275 HD
HETATM   23  H           1     -23.571  -6.219  -4.549  0.00  0.00     0.275 HD
HETATM   24  H           1     -22.542  -6.491  -5.883  0.00  0.00     0.275 HD
ENDBRANCH  16  21
ENDBRANCH   1  16
TORSDOF 8
ENDMDL
MODEL 9
REMARK VINA RESULT:      -6.4     18.364     20.555
REMARK  8 active torsions:
REMARK  status: ('A' for Active; 'I' for Inactive)
REMARK       I    between atoms: C_1  and  N_6 
REMARK    1  A    between atoms: C_1  and  C_12 
REMARK    2  A    between atoms: C_2  and  C_10 
REMARK    3  A    between atoms: N_6  and  C_22 
REMARK    4  A    between atoms: C_10  and  C_22 
REMARK    5  A    between atoms: C_12  and  C_13 
REMARK    6  A    between atoms: C_12  and  N_18 
REMARK    7  A    between atoms: C_13  and  C_14 
REMARK    8  A    between atoms: C_22  and  C_24 
ROOT
HETATM    1  C           1     -19.884  -8.737  -3.179  0.00  0.00     0.249 C 
HETATM    2  N           1     -20.286  -7.932  -2.147  0.00  0.00    -0.344 N 
HETATM    3  H           1     -19.720  -7.138  -1.875  0.00  0.00     0.163 HD
HETATM    4  O           1     -20.228  -8.489  -4.310  0.00  0.00    -0.271 OA
ENDROOT
BRANCH   2   5
HETATM    5  C           1     -21.523  -8.216  -1.446  0.00  0.00     0.189 C 
BRANCH   5   6
HETATM    6  C           1     -21.205  -8.795  -0.074  0.00  0.00     0.074 C 
BRANCH   6   7
HETATM    7  C           1     -21.938 -10.089   0.104  0.00  0.00    -0.056 A 
HETATM    8  C           1     -23.270 -10.196  -0.294  0.00  0.00     0.007 A 
HETATM    9  C           1     -23.952 -11.403  -0.128  0.00  0.00     0.001 A 
HETATM   10  C           1     -23.301 -12.500   0.435  0.00  0.00     0.000 A 
HETATM   11  C           1     -21.970 -12.392   0.833  0.00  0.00     0.001 A 
HETATM   12  C           1     -21.287 -11.187   0.668  0.00  0.00     0.007 A 
ENDBRANCH   6   7
ENDBRANCH   5   6
BRANCH   5  13
HETATM   13  C           1     -22.312  -6.940  -1.283  0.00  0.00     0.197 C 
HETATM   14  O           1     -22.301  -6.078  -2.187  0.00  0.00    -0.646 OA
HETATM   15  O           1     -22.979  -6.746  -0.242  0.00  0.00    -0.646 OA
ENDBRANCH   5  13
ENDBRANCH   2   5
BRANCH   1  16
HETATM   16  C           1     -19.009  -9.936  -2.902  0.00  0.00     0.275 C 
BRANCH  16  17
HETATM   17  C           1     -18.073 -10.164  -4.083  0.00  0.00     0.046 C 
BRANCH  17  18
HETATM   18  C           1     -16.691  -9.620  -3.749  0.00  0.00    -0.020 C 
HETATM   19  C           1     -16.182 -10.276  -2.472  0.00  0.00     0.009 C 
HETATM   20  C           1     -15.735  -9.928  -4.894  0.00  0.00     0.009 C 
ENDBRANCH  17  18
ENDBRANCH  16  17
BRANCH  16  21
HETATM   21  N           1     -19.870 -11.148  -2.706  0.00  0.00    -0.066 N 
HETATM   22  H           1     -19.526 -11.921  -3.319  0.00  0.00     0.275 HD
HETATM   23  H           1     -20.858 -10.918  -2.959  0.00  0.00     0.275 HD
HETATM   24  H           1     -19.828 -11.448  -1.706  0.00  0.00     0.275 HD
ENDBRANCH  16  21
ENDBRANCH   1  16
TORSDOF 8
ENDMDL
