MODEL 1
REMARK VINA RESULT:      -6.9      0.000      0.000
REMARK  10 active torsions:
REMARK  status: ('A' for Active; 'I' for Inactive)
REMARK    1  A    between atoms: C_1  and  C_2 
REMARK    2  A    between atoms: C_1  and  C_19 
REMARK    3  A    between atoms: C_1  and  N_13 
REMARK       I    between atoms: C_2  and  N_3 
REMARK    4  A    between atoms: N_3  and  C_12 
REMARK    5  A    between atoms: C_9  and  C_10 
REMARK    6  A    between atoms: C_9  and  C_12 
REMARK    7  A    between atoms: C_10  and  C_14 
REMARK    8  A    between atoms: C_11  and  C_12 
REMARK    9  A    between atoms: C_17  and  C_18 
REMARK   10  A    between atoms: C_18  and  C_19 
ROOT
HETATM    1  C           1     -21.779  -4.687  -7.987  0.00  0.00     0.249 C 
HETATM    2  N           1     -22.236  -4.920  -9.256  0.00  0.00    -0.345 N 
HETATM    3  O           1     -21.858  -3.580  -7.511  0.00  0.00    -0.271 OA
HETATM    4  H           1     -22.170  -5.848  -9.656  0.00  0.00     0.163 HD
ENDROOT
BRANCH   1   5
HETATM    5  C           1     -21.176  -5.813  -7.184  0.00  0.00     0.275 C 
BRANCH   5   6
HETATM    6  C           1     -21.252  -5.477  -5.700  0.00  0.00     0.053 C 
BRANCH   6   7
HETATM    7  C           1     -22.174  -6.469  -5.002  0.00  0.00     0.115 C 
BRANCH   7   8
HETATM    8  C           1     -21.768  -6.601  -3.555  0.00  0.00     0.172 C 
HETATM    9  O           1     -22.344  -5.919  -2.679  0.00  0.00    -0.648 OA
HETATM   10  O           1     -20.855  -7.391  -3.231  0.00  0.00    -0.648 OA
ENDBRANCH   7   8
ENDBRANCH   6   7
ENDBRANCH   5   6
BRANCH   5  11
HETATM   11  N           1     -19.741  -5.996  -7.581  0.00  0.00    -0.066 N 
HETATM   12  H           1     -19.435  -5.186  -8.165  0.00  0.00     0.275 HD
HETATM   13  H           1     -19.642  -6.879  -8.133  0.00  0.00     0.275 HD
HETATM   14  H           1     -19.147  -6.054  -6.724  0.00  0.00     0.275 HD
ENDBRANCH   5  11
ENDBRANCH   1   5
BRANCH   2  15
HETATM   15  C           1     -22.816  -3.838 -10.029  0.00  0.00     0.186 C 
BRANCH  15  16
HETATM   16  C           1     -22.521  -4.056 -11.507  0.00  0.00     0.046 C 
BRANCH  16  17
HETATM   17  C           1     -22.704  -2.745 -12.260  0.00  0.00     0.116 C 
BRANCH  17  18
HETATM   18  C           1     -23.751  -2.920 -13.332  0.00  0.00     0.172 C 
HETATM   19  O           1     -24.961  -2.957 -13.022  0.00  0.00    -0.648 OA
HETATM   20  O           1     -23.408  -3.029 -14.529  0.00  0.00    -0.648 OA
ENDBRANCH  17  18
ENDBRANCH  16  17
ENDBRANCH  15  16
BRANCH  15  21
HETATM   21  C           1     -24.309  -3.810  -9.812  0.00  0.00     0.196 C 
HETATM   22  O           1     -24.883  -2.730  -9.551  0.00  0.00    -0.646 OA
HETATM   23  O           1     -24.972  -4.866  -9.892  0.00  0.00    -0.646 OA
ENDBRANCH  15  21
ENDBRANCH   2  15
TORSDOF 10
ENDMDL
MODEL 2
REMARK VINA RESULT:      -6.9     11.947     13.539
REMARK  10 active torsions:
REMARK  status: ('A' for Active; 'I' for Inactive)
REMARK    1  A    between atoms: C_1  and  C_2 
REMARK    2  A    between atoms: C_1  and  C_19 
REMARK    3  A    between atoms: C_1  and  N_13 
REMARK       I    between atoms: C_2  and  N_3 
REMARK    4  A    between atoms: N_3  and  C_12 
REMARK    5  A    between atoms: C_9  and  C_10 
REMARK    6  A    between atoms: C_9  and  C_12 
REMARK    7  A    between atoms: C_10  and  C_14 
REMARK    8  A    between atoms: C_11  and  C_12 
REMARK    9  A    between atoms: C_17  and  C_18 
REMARK   10  A    between atoms: C_18  and  C_19 
ROOT
HETATM    1  C           1     -34.491  -2.523 -12.196  0.00  0.00     0.249 C 
HETATM    2  N           1     -35.552  -1.812 -12.690  0.00  0.00    -0.345 N 
HETATM    3  O           1     -33.682  -1.981 -11.482  0.00  0.00    -0.271 OA
HETATM    4  H           1     -36.230  -2.266 -13.289  0.00  0.00     0.163 HD
ENDROOT
BRANCH   1   5
HETATM    5  C           1     -34.332  -3.982 -12.546  0.00  0.00     0.275 C 
BRANCH   5   6
HETATM    6  C           1     -33.472  -4.667 -11.492  0.00  0.00     0.053 C 
BRANCH   6   7
HETATM    7  C           1     -34.358  -5.154 -10.353  0.00  0.00     0.115 C 
BRANCH   7   8
HETATM    8  C           1     -34.260  -6.656 -10.245  0.00  0.00     0.172 C 
HETATM    9  O           1     -33.249  -7.249 -10.679  0.00  0.00    -0.648 OA
HETATM   10  O           1     -35.189  -7.308  -9.722  0.00  0.00    -0.648 OA
ENDBRANCH   7   8
ENDBRANCH   6   7
ENDBRANCH   5   6
BRANCH   5  11
HETATM   11  N           1     -33.670  -4.104 -13.887  0.00  0.00    -0.066 N 
HETATM   12  H           1     -32.894  -4.801 -13.830  0.00  0.00     0.275 HD
HETATM   13  H           1     -33.283  -3.176 -14.172  0.00  0.00     0.275 HD
HETATM   14  H           1     -34.372  -4.419 -14.594  0.00  0.00     0.275 HD
ENDBRANCH   5  11
ENDBRANCH   1   5
BRANCH   2  15
HETATM   15  C           1     -35.705  -0.410 -12.354  0.00  0.00     0.186 C 
BRANCH  15  16
HETATM   16  C           1     -36.221   0.349 -13.569  0.00  0.00     0.046 C 
BRANCH  16  17
HETATM   17  C           1     -35.157   0.349 -14.658  0.00  0.00     0.116 C 
BRANCH  17  18
HETATM   18  C           1     -35.541  -0.632 -15.738  0.00  0.00     0.172 C 
HETATM   19  O           1     -36.266  -0.263 -16.688  0.00  0.00    -0.648 OA
HETATM   20  O           1     -35.135  -1.813 -15.684  0.00  0.00    -0.648 OA
ENDBRANCH  17  18
ENDBRANCH  16  17
ENDBRANCH  15  16
BRANCH  15  21
HETATM   21  C           1     -36.689  -0.270 -11.218  0.00  0.00     0.196 C 
HETATM   22  O           1     -37.700  -1.004 -11.172  0.00  0.00    -0.646 OA
HETATM   23  O           1     -36.493   0.579 -10.323  0.00  0.00    -0.646 OA
ENDBRANCH  15  21
ENDBRANCH   2  15
TORSDOF 10
ENDMDL
MODEL 3
REMARK VINA RESULT:      -6.3      1.930      2.921
REMARK  10 active torsions:
REMARK  status: ('A' for Active; 'I' for Inactive)
REMARK    1  A    between atoms: C_1  and  C_2 
REMARK    2  A    between atoms: C_1  and  C_19 
REMARK    3  A    between atoms: C_1  and  N_13 
REMARK       I    between atoms: C_2  and  N_3 
REMARK    4  A    between atoms: N_3  and  C_12 
REMARK    5  A    between atoms: C_9  and  C_10 
REMARK    6  A    between atoms: C_9  and  C_12 
REMARK    7  A    between atoms: C_10  and  C_14 
REMARK    8  A    between atoms: C_11  and  C_12 
REMARK    9  A    between atoms: C_17  and  C_18 
REMARK   10  A    between atoms: C_18  and  C_19 
ROOT
HETATM    1  C           1     -20.976  -4.403  -8.419  0.00  0.00     0.249 C 
HETATM    2  N           1     -21.925  -4.067  -9.347  0.00  0.00    -0.345 N 
HETATM    3  O           1     -19.953  -4.942  -8.770  0.00  0.00    -0.271 OA
HETATM    4  H           1     -22.782  -3.616  -9.053  0.00  0.00     0.163 HD
ENDROOT
BRANCH   1   5
HETATM    5  C           1     -21.208  -4.103  -6.959  0.00  0.00     0.275 C 
BRANCH   5   6
HETATM    6  C           1     -20.157  -4.817  -6.119  0.00  0.00     0.053 C 
BRANCH   6   7
HETATM    7  C           1     -20.846  -5.666  -5.059  0.00  0.00     0.115 C 
BRANCH   7   8
HETATM    8  C           1     -20.558  -7.125  -5.318  0.00  0.00     0.172 C 
HETATM    9  O           1     -21.169  -8.006  -4.675  0.00  0.00    -0.648 OA
HETATM   10  O           1     -19.708  -7.452  -6.174  0.00  0.00    -0.648 OA
ENDBRANCH   7   8
ENDBRANCH   6   7
ENDBRANCH   5   6
BRANCH   5  11
HETATM   11  N           1     -22.573  -4.580  -6.562  0.00  0.00    -0.066 N 
HETATM   12  H           1     -23.292  -4.123  -7.167  0.00  0.00     0.275 HD
HETATM   13  H           1     -22.753  -4.332  -5.562  0.00  0.00     0.275 HD
HETATM   14  H           1     -22.627  -5.617  -6.678  0.00  0.00     0.275 HD
ENDBRANCH   5  11
ENDBRANCH   1   5
BRANCH   2  15
HETATM   15  C           1     -21.702  -4.357 -10.751  0.00  0.00     0.186 C 
BRANCH  15  16
HETATM   16  C           1     -22.981  -4.913 -11.363  0.00  0.00     0.046 C 
BRANCH  16  17
HETATM   17  C           1     -24.105  -4.848 -10.337  0.00  0.00     0.116 C 
BRANCH  17  18
HETATM   18  C           1     -24.796  -3.509 -10.431  0.00  0.00     0.172 C 
HETATM   19  O           1     -25.180  -3.081 -11.541  0.00  0.00    -0.648 OA
HETATM   20  O           1     -24.984  -2.829  -9.400  0.00  0.00    -0.648 OA
ENDBRANCH  17  18
ENDBRANCH  16  17
ENDBRANCH  15  16
BRANCH  15  21
HETATM   21  C           1     -21.310  -3.089 -11.469  0.00  0.00     0.196 C 
HETATM   22  O           1     -20.185  -2.581 -11.271  0.00  0.00    -0.646 OA
HETATM   23  O           1     -22.110  -2.547 -12.261  0.00  0.00    -0.646 OA
ENDBRANCH  15  21
ENDBRANCH   2  15
TORSDOF 10
ENDMDL
MODEL 4
REMARK VINA RESULT:      -6.2      1.666      7.290
REMARK  10 active torsions:
REMARK  status: ('A' for Active; 'I' for Inactive)
REMARK    1  A    between atoms: C_1  and  C_2 
REMARK    2  A    between atoms: C_1  and  C_19 
REMARK    3  A    between atoms: C_1  and  N_13 
REMARK       I    between atoms: C_2  and  N_3 
REMARK    4  A    between atoms: N_3  and  C_12 
REMARK    5  A    between atoms: C_9  and  C_10 
REMARK    6  A    between atoms: C_9  and  C_12 
REMARK    7  A    between atoms: C_10  and  C_14 
REMARK    8  A    between atoms: C_11  and  C_12 
REMARK    9  A    between atoms: C_17  and  C_18 
REMARK   10  A    between atoms: C_18  and  C_19 
ROOT
HETATM    1  C           1     -23.199  -4.351  -8.904  0.00  0.00     0.249 C 
HETATM    2  N           1     -22.087  -5.135  -8.755  0.00  0.00    -0.345 N 
HETATM    3  O           1     -23.360  -3.388  -8.193  0.00  0.00    -0.271 OA
HETATM    4  H           1     -21.952  -5.942  -9.351  0.00  0.00     0.163 HD
ENDROOT
BRANCH   1   5
HETATM    5  C           1     -24.225  -4.690  -9.957  0.00  0.00     0.275 C 
BRANCH   5   6
HETATM    6  C           1     -23.557  -4.725 -11.326  0.00  0.00     0.053 C 
BRANCH   6   7
HETATM    7  C           1     -23.078  -3.327 -11.693  0.00  0.00     0.115 C 
BRANCH   7   8
HETATM    8  C           1     -23.732  -2.893 -12.982  0.00  0.00     0.172 C 
HETATM    9  O           1     -24.976  -2.791 -13.049  0.00  0.00    -0.648 OA
HETATM   10  O           1     -23.029  -2.637 -13.984  0.00  0.00    -0.648 OA
ENDBRANCH   7   8
ENDBRANCH   6   7
ENDBRANCH   5   6
BRANCH   5  11
HETATM   11  N           1     -25.305  -3.649  -9.956  0.00  0.00    -0.066 N 
HETATM   12  H           1     -26.207  -4.084  -9.656  0.00  0.00     0.275 HD
HETATM   13  H           1     -25.413  -3.256 -10.918  0.00  0.00     0.275 HD
HETATM   14  H           1     -25.049  -2.882  -9.294  0.00  0.00     0.275 HD
ENDBRANCH   5  11
ENDBRANCH   1   5
BRANCH   2  15
HETATM   15  C           1     -21.101  -4.809  -7.742  0.00  0.00     0.186 C 
BRANCH  15  16
HETATM   16  C           1     -20.737  -6.067  -6.966  0.00  0.00     0.046 C 
BRANCH  16  17
HETATM   17  C           1     -20.920  -5.816  -5.475  0.00  0.00     0.116 C 
BRANCH  17  18
HETATM   18  C           1     -22.113  -6.594  -4.976  0.00  0.00     0.172 C 
HETATM   19  O           1     -21.955  -7.735  -4.491  0.00  0.00    -0.648 OA
HETATM   20  O           1     -23.258  -6.098  -5.047  0.00  0.00    -0.648 OA
ENDBRANCH  17  18
ENDBRANCH  16  17
ENDBRANCH  15  16
BRANCH  15  21
HETATM   21  C           1     -19.865  -4.251  -8.406  0.00  0.00     0.196 C 
HETATM   22  O           1     -19.913  -3.868  -9.595  0.00  0.00    -0.646 OA
HETATM   23  O           1     -18.795  -4.172  -7.766  0.00  0.00    -0.646 OA
ENDBRANCH  15  21
ENDBRANCH   2  15
TORSDOF 10
ENDMDL
MODEL 5
REMARK VINA RESULT:      -6.2     11.986     14.473
REMARK  10 active torsions:
REMARK  status: ('A' for Active; 'I' for Inactive)
REMARK    1  A    between atoms: C_1  and  C_2 
REMARK    2  A    between atoms: C_1  and  C_19 
REMARK    3  A    between atoms: C_1  and  N_13 
REMARK       I    between atoms: C_2  and  N_3 
REMARK    4  A    between atoms: N_3  and  C_12 
REMARK    5  A    between atoms: C_9  and  C_10 
REMARK    6  A    between atoms: C_9  and  C_12 
REMARK    7  A    between atoms: C_10  and  C_14 
REMARK    8  A    between atoms: C_11  and  C_12 
REMARK    9  A    between atoms: C_17  and  C_18 
REMARK   10  A    between atoms: C_18  and  C_19 
ROOT
HETATM    1  C           1     -35.452  -1.757 -10.715  0.00  0.00     0.249 C 
HETATM    2  N           1     -35.553  -2.972 -11.338  0.00  0.00    -0.345 N 
HETATM    3  O           1     -34.449  -1.472 -10.105  0.00  0.00    -0.271 OA
HETATM    4  H           1     -36.393  -3.211 -11.849  0.00  0.00     0.163 HD
ENDROOT
BRANCH   1   5
HETATM    5  C           1     -36.595  -0.775 -10.789  0.00  0.00     0.275 C 
BRANCH   5   6
HETATM    6  C           1     -36.830  -0.376 -12.240  0.00  0.00     0.053 C 
BRANCH   6   7
HETATM    7  C           1     -35.581   0.305 -12.788  0.00  0.00     0.115 C 
BRANCH   7   8
HETATM    8  C           1     -35.350  -0.138 -14.211  0.00  0.00     0.172 C 
HETATM    9  O           1     -34.458   0.405 -14.898  0.00  0.00    -0.648 OA
HETATM   10  O           1     -36.050  -1.049 -14.704  0.00  0.00    -0.648 OA
ENDBRANCH   7   8
ENDBRANCH   6   7
ENDBRANCH   5   6
BRANCH   5  11
HETATM   11  N           1     -36.258   0.445  -9.984  0.00  0.00    -0.066 N 
HETATM   12  H           1     -37.078   1.093  -9.972  0.00  0.00     0.275 HD
HETATM   13  H           1     -35.438   0.932 -10.414  0.00  0.00     0.275 HD
HETATM   14  H           1     -36.021   0.163  -9.006  0.00  0.00     0.275 HD
ENDBRANCH   5  11
ENDBRANCH   1   5
BRANCH   2  15
HETATM   15  C           1     -34.454  -3.916 -11.266  0.00  0.00     0.186 C 
BRANCH  15  16
HETATM   16  C           1     -35.006  -5.323 -11.078  0.00  0.00     0.046 C 
BRANCH  16  17
HETATM   17  C           1     -33.861  -6.285 -10.790  0.00  0.00     0.116 C 
BRANCH  17  18
HETATM   18  C           1     -34.396  -7.511 -10.092  0.00  0.00     0.172 C 
HETATM   19  O           1     -33.761  -8.586 -10.146  0.00  0.00    -0.648 OA
HETATM   20  O           1     -35.473  -7.451  -9.461  0.00  0.00    -0.648 OA
ENDBRANCH  17  18
ENDBRANCH  16  17
ENDBRANCH  15  16
BRANCH  15  21
HETATM   21  C           1     -33.655  -3.856 -12.545  0.00  0.00     0.196 C 
HETATM   22  O           1     -34.216  -3.547 -13.618  0.00  0.00    -0.646 OA
HETATM   23  O           1     -32.433  -4.114 -12.531  0.00  0.00    -0.646 OA
ENDBRANCH  15  21
ENDBRANCH   2  15
TORSDOF 10
ENDMDL
MODEL 6
REMARK VINA RESULT:      -6.1     12.029     15.275
REMARK  10 active torsions:
REMARK  status: ('A' for Active; 'I' for Inactive)
REMARK    1  A    between atoms: C_1  and  C_2 
REMARK    2  A    between atoms: C_1  and  C_19 
REMARK    3  A    between atoms: C_1  and  N_13 
REMARK       I    between atoms: C_2  and  N_3 
REMARK    4  A    between atoms: N_3  and  C_12 
REMARK    5  A    between atoms: C_9  and  C_10 
REMARK    6  A    between atoms: C_9  and  C_12 
REMARK    7  A    between atoms: C_10  and  C_14 
REMARK    8  A    between atoms: C_11  and  C_12 
REMARK    9  A    between atoms: C_17  and  C_18 
REMARK   10  A    between atoms: C_18  and  C_19 
ROOT
HETATM    1  C           1     -36.453  -0.399 -14.267  0.00  0.00     0.249 C 
HETATM    2  N           1     -35.437  -0.707 -13.402  0.00  0.00    -0.345 N 
HETATM    3  O           1     -37.566  -0.821 -14.065  0.00  0.00    -0.271 OA
HETATM    4  H           1     -34.504  -0.354 -13.570  0.00  0.00     0.163 HD
ENDROOT
BRANCH   1   5
HETATM    5  C           1     -36.180   0.465 -15.473  0.00  0.00     0.275 C 
BRANCH   5   6
HETATM    6  C           1     -35.093  -0.177 -16.325  0.00  0.00     0.053 C 
BRANCH   6   7
HETATM    7  C           1     -35.573  -1.536 -16.818  0.00  0.00     0.115 C 
BRANCH   7   8
HETATM    8  C           1     -34.540  -2.585 -16.488  0.00  0.00     0.172 C 
HETATM    9  O           1     -33.600  -2.808 -17.281  0.00  0.00    -0.648 OA
HETATM   10  O           1     -34.624  -3.232 -15.422  0.00  0.00    -0.648 OA
ENDBRANCH   7   8
ENDBRANCH   6   7
ENDBRANCH   5   6
BRANCH   5  11
HETATM   11  N           1     -35.724   1.822 -15.022  0.00  0.00    -0.066 N 
HETATM   12  H           1     -34.788   2.030 -15.437  0.00  0.00     0.275 HD
HETATM   13  H           1     -35.653   1.837 -13.979  0.00  0.00     0.275 HD
HETATM   14  H           1     -36.414   2.542 -15.333  0.00  0.00     0.275 HD
ENDBRANCH   5  11
ENDBRANCH   1   5
BRANCH   2  15
HETATM   15  C           1     -35.699  -1.539 -12.242  0.00  0.00     0.186 C 
BRANCH  15  16
HETATM   16  C           1     -34.378  -2.002 -11.643  0.00  0.00     0.046 C 
BRANCH  16  17
HETATM   17  C           1     -34.595  -3.302 -10.879  0.00  0.00     0.116 C 
BRANCH  17  18
HETATM   18  C           1     -33.487  -4.271 -11.208  0.00  0.00     0.172 C 
HETATM   19  O           1     -32.473  -3.875 -11.822  0.00  0.00    -0.648 OA
HETATM   20  O           1     -33.582  -5.470 -10.867  0.00  0.00    -0.648 OA
ENDBRANCH  17  18
ENDBRANCH  16  17
ENDBRANCH  15  16
BRANCH  15  21
HETATM   21  C           1     -36.466  -0.742 -11.216  0.00  0.00     0.196 C 
HETATM   22  O           1     -37.578  -1.148 -10.812  0.00  0.00    -0.646 OA
HETATM   23  O           1     -35.990   0.324 -10.769  0.00  0.00    -0.646 OA
ENDBRANCH  15  21
ENDBRANCH   2  15
TORSDOF 10
ENDMDL
MODEL 7
REMARK VINA RESULT:      -6.1      2.022      3.452
REMARK  10 active torsions:
REMARK  status: ('A' for Active; 'I' for Inactive)
REMARK    1  A    between atoms: C_1  and  C_2 
REMARK    2  A    between atoms: C_1  and  C_19 
REMARK    3  A    between atoms: C_1  and  N_13 
REMARK       I    between atoms: C_2  and  N_3 
REMARK    4  A    between atoms: N_3  and  C_12 
REMARK    5  A    between atoms: C_9  and  C_10 
REMARK    6  A    between atoms: C_9  and  C_12 
REMARK    7  A    between atoms: C_10  and  C_14 
REMARK    8  A    between atoms: C_11  and  C_12 
REMARK    9  A    between atoms: C_17  and  C_18 
REMARK   10  A    between atoms: C_18  and  C_19 
ROOT
HETATM    1  C           1     -21.699  -6.534  -5.751  0.00  0.00     0.249 C 
HETATM    2  N           1     -22.350  -5.420  -6.209  0.00  0.00    -0.345 N 
HETATM    3  O           1     -20.876  -7.081  -6.445  0.00  0.00    -0.271 OA
HETATM    4  H           1     -23.039  -4.961  -5.628  0.00  0.00     0.163 HD
ENDROOT
BRANCH   1   5
HETATM    5  C           1     -22.011  -7.079  -4.379  0.00  0.00     0.275 C 
BRANCH   5   6
HETATM    6  C           1     -21.250  -6.281  -3.329  0.00  0.00     0.053 C 
BRANCH   6   7
HETATM    7  C           1     -22.171  -5.983  -2.152  0.00  0.00     0.115 C 
BRANCH   7   8
HETATM    8  C           1     -22.071  -7.097  -1.140  0.00  0.00     0.172 C 
HETATM    9  O           1     -22.976  -7.256  -0.293  0.00  0.00    -0.648 OA
HETATM   10  O           1     -21.082  -7.862  -1.148  0.00  0.00    -0.648 OA
ENDBRANCH   7   8
ENDBRANCH   6   7
ENDBRANCH   5   6
BRANCH   5  11
HETATM   11  N           1     -21.598  -8.519  -4.309  0.00  0.00    -0.066 N 
HETATM   12  H           1     -21.071  -8.687  -3.422  0.00  0.00     0.275 HD
HETATM   13  H           1     -20.986  -8.748  -5.125  0.00  0.00     0.275 HD
HETATM   14  H           1     -22.448  -9.127  -4.331  0.00  0.00     0.275 HD
ENDBRANCH   5  11
ENDBRANCH   1   5
BRANCH   2  15
HETATM   15  C           1     -22.049  -4.896  -7.528  0.00  0.00     0.186 C 
BRANCH  15  16
HETATM   16  C           1     -23.313  -4.305  -8.138  0.00  0.00     0.046 C 
BRANCH  16  17
HETATM   17  C           1     -23.147  -4.199  -9.649  0.00  0.00     0.116 C 
BRANCH  17  18
HETATM   18  C           1     -24.224  -3.307 -10.213  0.00  0.00     0.172 C 
HETATM   19  O           1     -25.170  -2.932  -9.486  0.00  0.00    -0.648 OA
HETATM   20  O           1     -24.172  -2.941 -11.408  0.00  0.00    -0.648 OA
ENDBRANCH  17  18
ENDBRANCH  16  17
ENDBRANCH  15  16
BRANCH  15  21
HETATM   21  C           1     -20.996  -3.821  -7.414  0.00  0.00     0.196 C 
HETATM   22  O           1     -21.279  -2.722  -6.890  0.00  0.00    -0.646 OA
HETATM   23  O           1     -19.841  -4.030  -7.842  0.00  0.00    -0.646 OA
ENDBRANCH  15  21
ENDBRANCH   2  15
TORSDOF 10
ENDMDL
MODEL 8
REMARK VINA RESULT:      -6.1      1.999      3.136
REMARK  10 active torsions:
REMARK  status: ('A' for Active; 'I' for Inactive)
REMARK    1  A    between atoms: C_1  and  C_2 
REMARK    2  A    between atoms: C_1  and  C_19 
REMARK    3  A    between atoms: C_1  and  N_13 
REMARK       I    between atoms: C_2  and  N_3 
REMARK    4  A    between atoms: N_3  and  C_12 
REMARK    5  A    between atoms: C_9  and  C_10 
REMARK    6  A    between atoms: C_9  and  C_12 
REMARK    7  A    between atoms: C_10  and  C_14 
REMARK    8  A    between atoms: C_11  and  C_12 
REMARK    9  A    between atoms: C_17  and  C_18 
REMARK   10  A    between atoms: C_18  and  C_19 
ROOT
HETATM    1  C           1     -21.352  -5.912  -6.499  0.00  0.00     0.249 C 
HETATM    2  N           1     -21.812  -4.821  -7.187  0.00  0.00    -0.345 N 
HETATM    3  O           1     -20.854  -6.837  -7.096  0.00  0.00    -0.271 OA
HETATM    4  H           1     -22.229  -4.047  -6.688  0.00  0.00     0.163 HD
ENDROOT
BRANCH   1   5
HETATM    5  C           1     -21.470  -5.960  -4.996  0.00  0.00     0.275 C 
BRANCH   5   6
HETATM    6  C           1     -20.634  -7.114  -4.457  0.00  0.00     0.053 C 
BRANCH   6   7
HETATM    7  C           1     -21.481  -7.955  -3.510  0.00  0.00     0.115 C 
BRANCH   7   8
HETATM    8  C           1     -21.290  -7.466  -2.095  0.00  0.00     0.172 C 
HETATM    9  O           1     -20.368  -7.932  -1.392  0.00  0.00    -0.648 OA
HETATM   10  O           1     -22.056  -6.596  -1.626  0.00  0.00    -0.648 OA
ENDBRANCH   7   8
ENDBRANCH   6   7
ENDBRANCH   5   6
BRANCH   5  11
HETATM   11  N           1     -22.906  -6.163  -4.613  0.00  0.00    -0.066 N 
HETATM   12  H           1     -23.107  -7.186  -4.545  0.00  0.00     0.275 HD
HETATM   13  H           1     -23.525  -5.735  -5.340  0.00  0.00     0.275 HD
HETATM   14  H           1     -23.088  -5.708  -3.691  0.00  0.00     0.275 HD
ENDBRANCH   5  11
ENDBRANCH   1   5
BRANCH   2  15
HETATM   15  C           1     -21.699  -4.776  -8.633  0.00  0.00     0.186 C 
BRANCH  15  16
HETATM   16  C           1     -22.673  -3.743  -9.184  0.00  0.00     0.046 C 
BRANCH  16  17
HETATM   17  C           1     -23.426  -4.336 -10.367  0.00  0.00     0.116 C 
BRANCH  17  18
HETATM   18  C           1     -24.556  -3.415 -10.758  0.00  0.00     0.172 C 
HETATM   19  O           1     -25.486  -3.192  -9.954  0.00  0.00    -0.648 OA
HETATM   20  O           1     -24.562  -2.877 -11.887  0.00  0.00    -0.648 OA
ENDBRANCH  17  18
ENDBRANCH  16  17
ENDBRANCH  15  16
BRANCH  15  21
HETATM   21  C           1     -20.290  -4.393  -9.015  0.00  0.00     0.196 C 
HETATM   22  O           1     -19.612  -3.667  -8.256  0.00  0.00    -0.646 OA
HETATM   23  O           1     -19.801  -4.803 -10.089  0.00  0.00    -0.646 OA
ENDBRANCH  15  21
ENDBRANCH   2  15
TORSDOF 10
ENDMDL
MODEL 9
REMARK VINA RESULT:      -5.6      2.735      8.240
REMARK  10 active torsions:
REMARK  status: ('A' for Active; 'I' for Inactive)
REMARK    1  A    between atoms: C_1  and  C_2 
REMARK    2  A    between atoms: C_1  and  C_19 
REMARK    3  A    between atoms: C_1  and  N_13 
REMARK       I    between atoms: C_2  and  N_3 
REMARK    4  A    between atoms: N_3  and  C_12 
REMARK    5  A    between atoms: C_9  and  C_10 
REMARK    6  A    between atoms: C_9  and  C_12 
REMARK    7  A    between atoms: C_10  and  C_14 
REMARK    8  A    between atoms: C_11  and  C_12 
REMARK    9  A    between atoms: C_17  and  C_18 
REMARK   10  A    between atoms: C_18  and  C_19 
ROOT
HETATM    1  C           1     -20.809  -6.077  -5.979  0.00  0.00     0.249 C 
HETATM    2  N           1     -20.664  -7.423  -5.778  0.00  0.00    -0.345 N 
HETATM    3  O           1     -20.447  -5.297  -5.130  0.00  0.00    -0.271 OA
HETATM    4  H           1     -20.967  -8.077  -6.489  0.00  0.00     0.163 HD
ENDROOT
BRANCH   1   5
HETATM    5  C           1     -21.423  -5.567  -7.259  0.00  0.00     0.275 C 
BRANCH   5   6
HETATM    6  C           1     -20.375  -4.799  -8.055  0.00  0.00     0.053 C 
BRANCH   6   7
HETATM    7  C           1     -21.068  -3.898  -9.070  0.00  0.00     0.115 C 
BRANCH   7   8
HETATM    8  C           1     -20.882  -4.465 -10.456  0.00  0.00     0.172 C 
HETATM    9  O           1     -19.735  -4.737 -10.871  0.00  0.00    -0.648 OA
HETATM   10  O           1     -21.875  -4.661 -11.190  0.00  0.00    -0.648 OA
ENDBRANCH   7   8
ENDBRANCH   6   7
ENDBRANCH   5   6
BRANCH   5  11
HETATM   11  N           1     -22.569  -4.656  -6.935  0.00  0.00    -0.066 N 
HETATM   12  H           1     -23.460  -5.202  -6.939  0.00  0.00     0.275 HD
HETATM   13  H           1     -22.625  -3.896  -7.651  0.00  0.00     0.275 HD
HETATM   14  H           1     -22.423  -4.233  -5.991  0.00  0.00     0.275 HD
ENDBRANCH   5  11
ENDBRANCH   1   5
BRANCH   2  15
HETATM   15  C           1     -20.074  -7.914  -4.547  0.00  0.00     0.186 C 
BRANCH  15  16
HETATM   16  C           1     -21.180  -8.272  -3.563  0.00  0.00     0.046 C 
BRANCH  16  17
HETATM   17  C           1     -20.910  -7.594  -2.226  0.00  0.00     0.116 C 
BRANCH  17  18
HETATM   18  C           1     -22.091  -6.735  -1.849  0.00  0.00     0.172 C 
HETATM   19  O           1     -22.468  -5.821  -2.614  0.00  0.00    -0.648 OA
HETATM   20  O           1     -22.692  -6.936  -0.771  0.00  0.00    -0.648 OA
ENDBRANCH  17  18
ENDBRANCH  16  17
ENDBRANCH  15  16
BRANCH  15  21
HETATM   21  C           1     -19.245  -9.140  -4.841  0.00  0.00     0.196 C 
HETATM   22  O           1     -18.516  -9.629  -3.951  0.00  0.00    -0.646 OA
HETATM   23  O           1     -19.288  -9.666  -5.973  0.00  0.00    -0.646 OA
ENDBRANCH  15  21
ENDBRANCH   2  15
TORSDOF 10
ENDMDL
