MODEL 1
REMARK VINA RESULT:      -6.8      0.000      0.000
REMARK  11 active torsions:
REMARK  status: ('A' for Active; 'I' for Inactive)
REMARK    1  A    between atoms: C_1  and  C_16 
REMARK    2  A    between atoms: C_5  and  C_16 
REMARK    3  A    between atoms: C_5  and  C_12 
REMARK    4  A    between atoms: C_5  and  N_21 
REMARK    5  A    between atoms: N_10  and  C_19 
REMARK    6  A    between atoms: N_11  and  C_23 
REMARK    7  A    between atoms: C_18  and  C_19 
REMARK    8  A    between atoms: C_18  and  C_25 
REMARK    9  A    between atoms: C_19  and  C_20 
REMARK       I    between atoms: C_20  and  N_21 
REMARK   10  A    between atoms: C_23  and  C_24 
REMARK   11  A    between atoms: C_24  and  C_25 
ROOT
HETATM    1  C           1     -34.354  -3.853 -12.143  0.00  0.00     0.274 C 
ENDROOT
BRANCH   1   2
HETATM    2  N           1     -33.566  -4.058 -13.403  0.00  0.00    -0.067 N 
HETATM    3  H           1     -33.377  -3.133 -13.851  0.00  0.00     0.275 HD
HETATM    4  H           1     -32.660  -4.524 -13.173  0.00  0.00     0.275 HD
HETATM    5  H           1     -34.110  -4.660 -14.061  0.00  0.00     0.275 HD
ENDBRANCH   1   2
BRANCH   1   6
HETATM    6  C           1     -33.549  -4.359 -10.954  0.00  0.00     0.042 C 
BRANCH   6   7
HETATM    7  C           1     -33.559  -5.882 -10.945  0.00  0.00     0.004 C 
BRANCH   7   8
HETATM    8  C           1     -34.754  -6.378 -10.143  0.00  0.00     0.027 C 
BRANCH   8   9
HETATM    9  C           1     -34.724  -7.899 -10.071  0.00  0.00     0.229 C 
BRANCH   9  10
HETATM   10  N           1     -33.348  -8.389 -10.416  0.00  0.00    -0.079 N 
HETATM   11  H           1     -32.777  -8.461  -9.544  0.00  0.00     0.274 HD
HETATM   12  H           1     -32.894  -7.718 -11.076  0.00  0.00     0.274 HD
HETATM   13  H           1     -33.417  -9.329 -10.868  0.00  0.00     0.274 HD
ENDBRANCH   9  10
ENDBRANCH   8   9
ENDBRANCH   7   8
ENDBRANCH   6   7
ENDBRANCH   1   6
BRANCH   1  14
HETATM   14  C           1     -34.644  -2.382 -11.966  0.00  0.00     0.249 C 
HETATM   15  O           1     -33.883  -1.689 -11.334  0.00  0.00    -0.271 OA
HETATM   16  N           1     -35.770  -1.835 -12.520  0.00  0.00    -0.345 N 
HETATM   17  H           1     -36.408  -2.416 -13.050  0.00  0.00     0.163 HD
BRANCH  16  18
HETATM   18  C           1     -36.049  -0.422 -12.349  0.00  0.00     0.185 C 
BRANCH  18  19
HETATM   19  C           1     -36.792   0.099 -13.572  0.00  0.00     0.040 C 
BRANCH  19  20
HETATM   20  C           1     -35.796   0.714 -14.547  0.00  0.00    -0.020 C 
HETATM   21  C           1     -34.525   1.097 -13.800  0.00  0.00     0.009 C 
HETATM   22  C           1     -35.460  -0.299 -15.634  0.00  0.00     0.009 C 
ENDBRANCH  19  20
ENDBRANCH  18  19
BRANCH  18  23
HETATM   23  C           1     -36.900  -0.224 -11.120  0.00  0.00     0.196 C 
HETATM   24  O           1     -36.502   0.520 -10.197  0.00  0.00    -0.646 OA
HETATM   25  O           1     -38.004  -0.802 -11.023  0.00  0.00    -0.646 OA
ENDBRANCH  18  23
ENDBRANCH  16  18
ENDBRANCH   1  14
TORSDOF 11
ENDMDL
MODEL 2
REMARK VINA RESULT:      -6.4     11.967     13.767
REMARK  11 active torsions:
REMARK  status: ('A' for Active; 'I' for Inactive)
REMARK    1  A    between atoms: C_1  and  C_16 
REMARK    2  A    between atoms: C_5  and  C_16 
REMARK    3  A    between atoms: C_5  and  C_12 
REMARK    4  A    between atoms: C_5  and  N_21 
REMARK    5  A    between atoms: N_10  and  C_19 
REMARK    6  A    between atoms: N_11  and  C_23 
REMARK    7  A    between atoms: C_18  and  C_19 
REMARK    8  A    between atoms: C_18  and  C_25 
REMARK    9  A    between atoms: C_19  and  C_20 
REMARK       I    between atoms: C_20  and  N_21 
REMARK   10  A    between atoms: C_23  and  C_24 
REMARK   11  A    between atoms: C_24  and  C_25 
ROOT
HETATM    1  C           1     -22.530  -4.724  -6.496  0.00  0.00     0.274 C 
ENDROOT
BRANCH   1   2
HETATM    2  N           1     -23.938  -5.188  -6.262  0.00  0.00    -0.067 N 
HETATM    3  H           1     -24.010  -6.207  -6.482  0.00  0.00     0.275 HD
HETATM    4  H           1     -24.194  -5.028  -5.262  0.00  0.00     0.275 HD
HETATM    5  H           1     -24.588  -4.651  -6.879  0.00  0.00     0.275 HD
ENDBRANCH   1   2
BRANCH   1   6
HETATM    6  C           1     -21.590  -5.923  -6.466  0.00  0.00     0.042 C 
BRANCH   6   7
HETATM    7  C           1     -20.904  -5.996  -5.108  0.00  0.00     0.004 C 
BRANCH   7   8
HETATM    8  C           1     -21.672  -6.947  -4.201  0.00  0.00     0.027 C 
BRANCH   8   9
HETATM    9  C           1     -21.299  -6.678  -2.749  0.00  0.00     0.229 C 
BRANCH   9  10
HETATM   10  N           1     -22.385  -5.877  -2.093  0.00  0.00    -0.079 N 
HETATM   11  H           1     -22.372  -4.902  -2.469  0.00  0.00     0.274 HD
HETATM   12  H           1     -22.227  -5.855  -1.060  0.00  0.00     0.274 HD
HETATM   13  H           1     -23.312  -6.317  -2.294  0.00  0.00     0.274 HD
ENDBRANCH   9  10
ENDBRANCH   8   9
ENDBRANCH   7   8
ENDBRANCH   6   7
ENDBRANCH   1   6
BRANCH   1  14
HETATM   14  C           1     -22.441  -4.048  -7.843  0.00  0.00     0.249 C 
HETATM   15  O           1     -21.571  -3.237  -8.055  0.00  0.00    -0.271 OA
HETATM   16  N           1     -23.346  -4.354  -8.823  0.00  0.00    -0.345 N 
HETATM   17  H           1     -24.075  -5.034  -8.645  0.00  0.00     0.163 HD
BRANCH  16  18
HETATM   18  C           1     -23.261  -3.704 -10.116  0.00  0.00     0.185 C 
BRANCH  18  19
HETATM   19  C           1     -22.665  -4.670 -11.131  0.00  0.00     0.040 C 
BRANCH  19  20
HETATM   20  C           1     -21.331  -4.126 -11.626  0.00  0.00    -0.020 C 
HETATM   21  C           1     -21.342  -2.605 -11.548  0.00  0.00     0.009 C 
HETATM   22  C           1     -20.207  -4.671 -10.754  0.00  0.00     0.009 C 
ENDBRANCH  19  20
ENDBRANCH  18  19
BRANCH  18  23
HETATM   23  C           1     -24.642  -3.292 -10.563  0.00  0.00     0.196 C 
HETATM   24  O           1     -25.545  -3.113  -9.718  0.00  0.00    -0.646 OA
HETATM   25  O           1     -24.883  -3.130 -11.778  0.00  0.00    -0.646 OA
ENDBRANCH  18  23
ENDBRANCH  16  18
ENDBRANCH   1  14
TORSDOF 11
ENDMDL
MODEL 3
REMARK VINA RESULT:      -6.1     14.265     17.000
REMARK  11 active torsions:
REMARK  status: ('A' for Active; 'I' for Inactive)
REMARK    1  A    between atoms: C_1  and  C_16 
REMARK    2  A    between atoms: C_5  and  C_16 
REMARK    3  A    between atoms: C_5  and  C_12 
REMARK    4  A    between atoms: C_5  and  N_21 
REMARK    5  A    between atoms: N_10  and  C_19 
REMARK    6  A    between atoms: N_11  and  C_23 
REMARK    7  A    between atoms: C_18  and  C_19 
REMARK    8  A    between atoms: C_18  and  C_25 
REMARK    9  A    between atoms: C_19  and  C_20 
REMARK       I    between atoms: C_20  and  N_21 
REMARK   10  A    between atoms: C_23  and  C_24 
REMARK   11  A    between atoms: C_24  and  C_25 
ROOT
HETATM    1  C           1     -21.273  -4.998  -7.933  0.00  0.00     0.274 C 
ENDROOT
BRANCH   1   2
HETATM    2  N           1     -22.421  -4.094  -7.591  0.00  0.00    -0.067 N 
HETATM    3  H           1     -23.283  -4.666  -7.447  0.00  0.00     0.275 HD
HETATM    4  H           1     -22.201  -3.570  -6.715  0.00  0.00     0.275 HD
HETATM    5  H           1     -22.577  -3.418  -8.372  0.00  0.00     0.275 HD
ENDBRANCH   1   2
BRANCH   1   6
HETATM    6  C           1     -20.201  -4.199  -8.663  0.00  0.00     0.042 C 
BRANCH   6   7
HETATM    7  C           1     -20.131  -4.652 -10.116  0.00  0.00     0.004 C 
BRANCH   7   8
HETATM    8  C           1     -20.697  -3.561 -11.016  0.00  0.00     0.027 C 
BRANCH   8   9
HETATM    9  C           1     -21.943  -4.079 -11.722  0.00  0.00     0.229 C 
BRANCH   9  10
HETATM   10  N           1     -22.016  -3.493 -13.101  0.00  0.00    -0.079 N 
HETATM   11  H           1     -22.501  -4.165 -13.738  0.00  0.00     0.274 HD
HETATM   12  H           1     -21.050  -3.312 -13.455  0.00  0.00     0.274 HD
HETATM   13  H           1     -22.550  -2.594 -13.069  0.00  0.00     0.274 HD
ENDBRANCH   9  10
ENDBRANCH   8   9
ENDBRANCH   7   8
ENDBRANCH   6   7
ENDBRANCH   1   6
BRANCH   1  14
HETATM   14  C           1     -20.694  -5.575  -6.664  0.00  0.00     0.249 C 
HETATM   15  O           1     -19.891  -4.939  -6.023  0.00  0.00    -0.271 OA
HETATM   16  N           1     -21.077  -6.819  -6.241  0.00  0.00    -0.345 N 
HETATM   17  H           1     -21.749  -7.352  -6.780  0.00  0.00     0.163 HD
BRANCH  16  18
HETATM   18  C           1     -20.520  -7.375  -5.024  0.00  0.00     0.185 C 
BRANCH  18  19
HETATM   19  C           1     -21.612  -7.477  -3.967  0.00  0.00     0.040 C 
BRANCH  19  20
HETATM   20  C           1     -21.101  -6.903  -2.652  0.00  0.00    -0.020 C 
HETATM   21  C           1     -22.224  -6.139  -1.963  0.00  0.00     0.009 C 
HETATM   22  C           1     -20.632  -8.038  -1.751  0.00  0.00     0.009 C 
ENDBRANCH  19  20
ENDBRANCH  18  19
BRANCH  18  23
HETATM   23  C           1     -19.962  -8.748  -5.307  0.00  0.00     0.196 C 
HETATM   24  O           1     -20.672  -9.606  -5.874  0.00  0.00    -0.646 OA
HETATM   25  O           1     -18.790  -9.027  -4.975  0.00  0.00    -0.646 OA
ENDBRANCH  18  23
ENDBRANCH  16  18
ENDBRANCH   1  14
TORSDOF 11
ENDMDL
MODEL 4
REMARK VINA RESULT:      -6.0     12.257     14.911
REMARK  11 active torsions:
REMARK  status: ('A' for Active; 'I' for Inactive)
REMARK    1  A    between atoms: C_1  and  C_16 
REMARK    2  A    between atoms: C_5  and  C_16 
REMARK    3  A    between atoms: C_5  and  C_12 
REMARK    4  A    between atoms: C_5  and  N_21 
REMARK    5  A    between atoms: N_10  and  C_19 
REMARK    6  A    between atoms: N_11  and  C_23 
REMARK    7  A    between atoms: C_18  and  C_19 
REMARK    8  A    between atoms: C_18  and  C_25 
REMARK    9  A    between atoms: C_19  and  C_20 
REMARK       I    between atoms: C_20  and  N_21 
REMARK   10  A    between atoms: C_23  and  C_24 
REMARK   11  A    between atoms: C_24  and  C_25 
ROOT
HETATM    1  C           1     -24.382  -4.602  -9.949  0.00  0.00     0.274 C 
ENDROOT
BRANCH   1   2
HETATM    2  N           1     -25.481  -3.601  -9.747  0.00  0.00    -0.067 N 
HETATM    3  H           1     -25.187  -2.677 -10.136  0.00  0.00     0.275 HD
HETATM    4  H           1     -26.343  -3.928 -10.239  0.00  0.00     0.275 HD
HETATM    5  H           1     -25.679  -3.503  -8.726  0.00  0.00     0.275 HD
ENDBRANCH   1   2
BRANCH   1   6
HETATM    6  C           1     -23.902  -4.541 -11.394  0.00  0.00     0.042 C 
BRANCH   6   7
HETATM    7  C           1     -24.280  -3.196 -11.999  0.00  0.00     0.004 C 
BRANCH   7   8
HETATM    8  C           1     -23.043  -2.546 -12.605  0.00  0.00     0.027 C 
BRANCH   8   9
HETATM    9  C           1     -21.839  -3.457 -12.405  0.00  0.00     0.229 C 
BRANCH   9  10
HETATM   10  N           1     -20.810  -2.749 -11.574  0.00  0.00    -0.079 N 
HETATM   11  H           1     -20.685  -3.257 -10.669  0.00  0.00     0.274 HD
HETATM   12  H           1     -21.126  -1.771 -11.385  0.00  0.00     0.274 HD
HETATM   13  H           1     -19.901  -2.727 -12.090  0.00  0.00     0.274 HD
ENDBRANCH   9  10
ENDBRANCH   8   9
ENDBRANCH   7   8
ENDBRANCH   6   7
ENDBRANCH   1   6
BRANCH   1  14
HETATM   14  C           1     -23.233  -4.281  -9.024  0.00  0.00     0.249 C 
HETATM   15  O           1     -23.140  -3.178  -8.538  0.00  0.00    -0.271 OA
HETATM   16  N           1     -22.298  -5.237  -8.735  0.00  0.00    -0.345 N 
HETATM   17  H           1     -22.376  -6.161  -9.143  0.00  0.00     0.163 HD
BRANCH  16  18
HETATM   18  C           1     -21.195  -4.929  -7.848  0.00  0.00     0.185 C 
BRANCH  18  19
HETATM   19  C           1     -20.904  -6.134  -6.963  0.00  0.00     0.040 C 
BRANCH  19  20
HETATM   20  C           1     -21.208  -5.783  -5.512  0.00  0.00    -0.020 C 
HETATM   21  C           1     -21.139  -7.043  -4.660  0.00  0.00     0.009 C 
HETATM   22  C           1     -20.185  -4.773  -5.009  0.00  0.00     0.009 C 
ENDBRANCH  19  20
ENDBRANCH  18  19
BRANCH  18  23
HETATM   23  C           1     -19.971  -4.596  -8.664  0.00  0.00     0.196 C 
HETATM   24  O           1     -19.034  -3.948  -8.150  0.00  0.00    -0.646 OA
HETATM   25  O           1     -19.892  -4.969  -9.854  0.00  0.00    -0.646 OA
ENDBRANCH  18  23
ENDBRANCH  16  18
ENDBRANCH   1  14
TORSDOF 11
ENDMDL
MODEL 5
REMARK VINA RESULT:      -5.8     15.055     18.094
REMARK  11 active torsions:
REMARK  status: ('A' for Active; 'I' for Inactive)
REMARK    1  A    between atoms: C_1  and  C_16 
REMARK    2  A    between atoms: C_5  and  C_16 
REMARK    3  A    between atoms: C_5  and  C_12 
REMARK    4  A    between atoms: C_5  and  N_21 
REMARK    5  A    between atoms: N_10  and  C_19 
REMARK    6  A    between atoms: N_11  and  C_23 
REMARK    7  A    between atoms: C_18  and  C_19 
REMARK    8  A    between atoms: C_18  and  C_25 
REMARK    9  A    between atoms: C_19  and  C_20 
REMARK       I    between atoms: C_20  and  N_21 
REMARK   10  A    between atoms: C_23  and  C_24 
REMARK   11  A    between atoms: C_24  and  C_25 
ROOT
HETATM    1  C           1     -21.722  -6.434  -5.109  0.00  0.00     0.274 C 
ENDROOT
BRANCH   1   2
HETATM    2  N           1     -23.177  -6.068  -5.087  0.00  0.00    -0.067 N 
HETATM    3  H           1     -23.315  -5.157  -5.581  0.00  0.00     0.275 HD
HETATM    4  H           1     -23.730  -6.812  -5.570  0.00  0.00     0.275 HD
HETATM    5  H           1     -23.500  -5.981  -4.097  0.00  0.00     0.275 HD
ENDBRANCH   1   2
BRANCH   1   6
HETATM    6  C           1     -20.910  -5.251  -5.618  0.00  0.00     0.042 C 
BRANCH   6   7
HETATM    7  C           1     -21.030  -5.166  -7.134  0.00  0.00     0.004 C 
BRANCH   7   8
HETATM    8  C           1     -21.521  -3.780  -7.528  0.00  0.00     0.027 C 
BRANCH   8   9
HETATM    9  C           1     -22.552  -3.902  -8.641  0.00  0.00     0.229 C 
BRANCH   9  10
HETATM   10  N           1     -23.920  -4.054  -8.042  0.00  0.00    -0.079 N 
HETATM   11  H           1     -24.487  -4.705  -8.631  0.00  0.00     0.274 HD
HETATM   12  H           1     -24.388  -3.121  -8.002  0.00  0.00     0.274 HD
HETATM   13  H           1     -23.835  -4.443  -7.075  0.00  0.00     0.274 HD
ENDBRANCH   9  10
ENDBRANCH   8   9
ENDBRANCH   7   8
ENDBRANCH   6   7
ENDBRANCH   1   6
BRANCH   1  14
HETATM   14  C           1     -21.274  -6.790  -3.712  0.00  0.00     0.249 C 
HETATM   15  O           1     -21.185  -5.929  -2.869  0.00  0.00    -0.271 OA
HETATM   16  N           1     -20.967  -8.087  -3.401  0.00  0.00    -0.345 N 
HETATM   17  H           1     -21.041  -8.808  -4.108  0.00  0.00     0.163 HD
BRANCH  16  18
HETATM   18  C           1     -20.535  -8.429  -2.060  0.00  0.00     0.185 C 
BRANCH  18  19
HETATM   19  C           1     -21.726  -8.933  -1.257  0.00  0.00     0.040 C 
BRANCH  19  20
HETATM   20  C           1     -21.794  -8.189   0.071  0.00  0.00    -0.020 C 
HETATM   21  C           1     -23.251  -8.021   0.483  0.00  0.00     0.009 C 
HETATM   22  C           1     -21.053  -8.986   1.137  0.00  0.00     0.009 C 
ENDBRANCH  19  20
ENDBRANCH  18  19
BRANCH  18  23
HETATM   23  C           1     -19.482  -9.507  -2.131  0.00  0.00     0.196 C 
HETATM   24  O           1     -18.342  -9.240  -2.569  0.00  0.00    -0.646 OA
HETATM   25  O           1     -19.749 -10.667  -1.751  0.00  0.00    -0.646 OA
ENDBRANCH  18  23
ENDBRANCH  16  18
ENDBRANCH   1  14
TORSDOF 11
ENDMDL
MODEL 6
REMARK VINA RESULT:      -5.5     12.037     14.505
REMARK  11 active torsions:
REMARK  status: ('A' for Active; 'I' for Inactive)
REMARK    1  A    between atoms: C_1  and  C_16 
REMARK    2  A    between atoms: C_5  and  C_16 
REMARK    3  A    between atoms: C_5  and  C_12 
REMARK    4  A    between atoms: C_5  and  N_21 
REMARK    5  A    between atoms: N_10  and  C_19 
REMARK    6  A    between atoms: N_11  and  C_23 
REMARK    7  A    between atoms: C_18  and  C_19 
REMARK    8  A    between atoms: C_18  and  C_25 
REMARK    9  A    between atoms: C_19  and  C_20 
REMARK       I    between atoms: C_20  and  N_21 
REMARK   10  A    between atoms: C_23  and  C_24 
REMARK   11  A    between atoms: C_24  and  C_25 
ROOT
HETATM    1  C           1     -24.072  -3.844  -9.857  0.00  0.00     0.274 C 
ENDROOT
BRANCH   1   2
HETATM    2  N           1     -24.940  -2.982  -8.987  0.00  0.00    -0.067 N 
HETATM    3  H           1     -24.518  -2.030  -8.909  0.00  0.00     0.275 HD
HETATM    4  H           1     -25.891  -2.909  -9.412  0.00  0.00     0.275 HD
HETATM    5  H           1     -25.014  -3.410  -8.037  0.00  0.00     0.275 HD
ENDBRANCH   1   2
BRANCH   1   6
HETATM    6  C           1     -23.372  -2.974 -10.893  0.00  0.00     0.042 C 
BRANCH   6   7
HETATM    7  C           1     -23.535  -3.597 -12.273  0.00  0.00     0.004 C 
BRANCH   7   8
HETATM    8  C           1     -22.646  -2.865 -13.270  0.00  0.00     0.027 C 
BRANCH   8   9
HETATM    9  C           1     -23.319  -2.849 -14.636  0.00  0.00     0.229 C 
BRANCH   9  10
HETATM   10  N           1     -22.950  -1.588 -15.360  0.00  0.00    -0.079 N 
HETATM   11  H           1     -22.306  -1.021 -14.765  0.00  0.00     0.274 HD
HETATM   12  H           1     -23.814  -1.037 -15.564  0.00  0.00     0.274 HD
HETATM   13  H           1     -22.472  -1.830 -16.259  0.00  0.00     0.274 HD
ENDBRANCH   9  10
ENDBRANCH   8   9
ENDBRANCH   7   8
ENDBRANCH   6   7
ENDBRANCH   1   6
BRANCH   1  14
HETATM   14  C           1     -23.039  -4.540  -9.003  0.00  0.00     0.249 C 
HETATM   15  O           1     -22.180  -5.211  -9.523  0.00  0.00    -0.271 OA
HETATM   16  N           1     -23.078  -4.411  -7.641  0.00  0.00    -0.345 N 
HETATM   17  H           1     -23.799  -3.849  -7.206  0.00  0.00     0.163 HD
BRANCH  16  18
HETATM   18  C           1     -22.088  -5.081  -6.821  0.00  0.00     0.185 C 
BRANCH  18  19
HETATM   19  C           1     -21.016  -4.082  -6.404  0.00  0.00     0.040 C 
BRANCH  19  20
HETATM   20  C           1     -19.663  -4.539  -6.934  0.00  0.00    -0.020 C 
HETATM   21  C           1     -19.678  -6.050  -7.127  0.00  0.00     0.009 C 
HETATM   22  C           1     -19.385  -3.860  -8.269  0.00  0.00     0.009 C 
ENDBRANCH  19  20
ENDBRANCH  18  19
BRANCH  18  23
HETATM   23  C           1     -22.753  -5.649  -5.592  0.00  0.00     0.196 C 
HETATM   24  O           1     -24.000  -5.716  -5.531  0.00  0.00    -0.646 OA
HETATM   25  O           1     -22.058  -6.053  -4.635  0.00  0.00    -0.646 OA
ENDBRANCH  18  23
ENDBRANCH  16  18
ENDBRANCH   1  14
TORSDOF 11
ENDMDL
MODEL 7
REMARK VINA RESULT:      -5.4     16.329     18.644
REMARK  11 active torsions:
REMARK  status: ('A' for Active; 'I' for Inactive)
REMARK    1  A    between atoms: C_1  and  C_16 
REMARK    2  A    between atoms: C_5  and  C_16 
REMARK    3  A    between atoms: C_5  and  C_12 
REMARK    4  A    between atoms: C_5  and  N_21 
REMARK    5  A    between atoms: N_10  and  C_19 
REMARK    6  A    between atoms: N_11  and  C_23 
REMARK    7  A    between atoms: C_18  and  C_19 
REMARK    8  A    between atoms: C_18  and  C_25 
REMARK    9  A    between atoms: C_19  and  C_20 
REMARK       I    between atoms: C_20  and  N_21 
REMARK   10  A    between atoms: C_23  and  C_24 
REMARK   11  A    between atoms: C_24  and  C_25 
ROOT
HETATM    1  C           1     -20.477  -9.633  -4.249  0.00  0.00     0.274 C 
ENDROOT
BRANCH   1   2
HETATM    2  N           1     -21.007 -10.197  -5.534  0.00  0.00    -0.067 N 
HETATM    3  H           1     -20.270 -10.135  -6.272  0.00  0.00     0.275 HD
HETATM    4  H           1     -21.273 -11.197  -5.390  0.00  0.00     0.275 HD
HETATM    5  H           1     -21.847  -9.653  -5.833  0.00  0.00     0.275 HD
ENDBRANCH   1   2
BRANCH   1   6
HETATM    6  C           1     -20.231  -8.139  -4.415  0.00  0.00     0.042 C 
BRANCH   6   7
HETATM    7  C           1     -21.230  -7.568  -5.413  0.00  0.00     0.004 C 
BRANCH   7   8
HETATM    8  C           1     -21.975  -6.402  -4.776  0.00  0.00     0.027 C 
BRANCH   8   9
HETATM    9  C           1     -21.349  -6.074  -3.427  0.00  0.00     0.229 C 
BRANCH   9  10
HETATM   10  N           1     -22.431  -5.880  -2.407  0.00  0.00    -0.079 N 
HETATM   11  H           1     -23.322  -5.627  -2.890  0.00  0.00     0.274 HD
HETATM   12  H           1     -22.159  -5.112  -1.751  0.00  0.00     0.274 HD
HETATM   13  H           1     -22.565  -6.766  -1.868  0.00  0.00     0.274 HD
ENDBRANCH   9  10
ENDBRANCH   8   9
ENDBRANCH   7   8
ENDBRANCH   6   7
ENDBRANCH   1   6
BRANCH   1  14
HETATM   14  C           1     -21.485  -9.858  -3.148  0.00  0.00     0.249 C 
HETATM   15  O           1     -22.509 -10.456  -3.380  0.00  0.00    -0.271 OA
HETATM   16  N           1     -21.239  -9.385  -1.887  0.00  0.00    -0.345 N 
HETATM   17  H           1     -20.381  -8.884  -1.693  0.00  0.00     0.163 HD
BRANCH  16  18
HETATM   18  C           1     -22.208  -9.600  -0.830  0.00  0.00     0.185 C 
BRANCH  18  19
HETATM   19  C           1     -21.794 -10.809  -0.002  0.00  0.00     0.040 C 
BRANCH  19  20
HETATM   20  C           1     -22.781 -11.946  -0.234  0.00  0.00    -0.020 C 
HETATM   21  C           1     -22.799 -12.859   0.985  0.00  0.00     0.009 C 
HETATM   22  C           1     -24.173 -11.371  -0.459  0.00  0.00     0.009 C 
ENDBRANCH  19  20
ENDBRANCH  18  19
BRANCH  18  23
HETATM   23  C           1     -22.267  -8.379   0.054  0.00  0.00     0.196 C 
HETATM   24  O           1     -23.145  -7.511  -0.138  0.00  0.00    -0.646 OA
HETATM   25  O           1     -21.438  -8.236   0.978  0.00  0.00    -0.646 OA
ENDBRANCH  18  23
ENDBRANCH  16  18
ENDBRANCH   1  14
TORSDOF 11
ENDMDL
MODEL 8
REMARK VINA RESULT:      -5.4     12.577     15.377
REMARK  11 active torsions:
REMARK  status: ('A' for Active; 'I' for Inactive)
REMARK    1  A    between atoms: C_1  and  C_16 
REMARK    2  A    between atoms: C_5  and  C_16 
REMARK    3  A    between atoms: C_5  and  C_12 
REMARK    4  A    between atoms: C_5  and  N_21 
REMARK    5  A    between atoms: N_10  and  C_19 
REMARK    6  A    between atoms: N_11  and  C_23 
REMARK    7  A    between atoms: C_18  and  C_19 
REMARK    8  A    between atoms: C_18  and  C_25 
REMARK    9  A    between atoms: C_19  and  C_20 
REMARK       I    between atoms: C_20  and  N_21 
REMARK   10  A    between atoms: C_23  and  C_24 
REMARK   11  A    between atoms: C_24  and  C_25 
ROOT
HETATM    1  C           1     -23.260  -4.510  -9.609  0.00  0.00     0.274 C 
ENDROOT
BRANCH   1   2
HETATM    2  N           1     -24.757  -4.586  -9.675  0.00  0.00    -0.067 N 
HETATM    3  H           1     -25.039  -5.297 -10.385  0.00  0.00     0.275 HD
HETATM    4  H           1     -25.132  -4.861  -8.739  0.00  0.00     0.275 HD
HETATM    5  H           1     -25.142  -3.652  -9.944  0.00  0.00     0.275 HD
ENDBRANCH   1   2
BRANCH   1   6
HETATM    6  C           1     -22.803  -3.128 -10.056  0.00  0.00     0.042 C 
BRANCH   6   7
HETATM    7  C           1     -21.559  -3.260 -10.925  0.00  0.00     0.004 C 
BRANCH   7   8
HETATM    8  C           1     -21.944  -3.837 -12.280  0.00  0.00     0.027 C 
BRANCH   8   9
HETATM    9  C           1     -22.777  -2.820 -13.049  0.00  0.00     0.229 C 
BRANCH   9  10
HETATM   10  N           1     -23.350  -3.466 -14.275  0.00  0.00    -0.079 N 
HETATM   11  H           1     -22.881  -3.078 -15.124  0.00  0.00     0.274 HD
HETATM   12  H           1     -24.376  -3.273 -14.324  0.00  0.00     0.274 HD
HETATM   13  H           1     -23.192  -4.499 -14.230  0.00  0.00     0.274 HD
ENDBRANCH   9  10
ENDBRANCH   8   9
ENDBRANCH   7   8
ENDBRANCH   6   7
ENDBRANCH   1   6
BRANCH   1  14
HETATM   14  C           1     -22.806  -4.757  -8.190  0.00  0.00     0.249 C 
HETATM   15  O           1     -23.492  -4.391  -7.266  0.00  0.00    -0.271 OA
HETATM   16  N           1     -21.619  -5.394  -7.952  0.00  0.00    -0.345 N 
HETATM   17  H           1     -21.044  -5.701  -8.728  0.00  0.00     0.163 HD
BRANCH  16  18
HETATM   18  C           1     -21.182  -5.630  -6.590  0.00  0.00     0.185 C 
BRANCH  18  19
HETATM   19  C           1     -20.842  -7.104  -6.415  0.00  0.00     0.040 C 
BRANCH  19  20
HETATM   20  C           1     -21.528  -7.638  -5.164  0.00  0.00    -0.020 C 
HETATM   21  C           1     -20.480  -7.944  -4.102  0.00  0.00     0.009 C 
HETATM   22  C           1     -22.499  -6.591  -4.632  0.00  0.00     0.009 C 
ENDBRANCH  19  20
ENDBRANCH  18  19
BRANCH  18  23
HETATM   23  C           1     -19.961  -4.793  -6.302  0.00  0.00     0.196 C 
HETATM   24  O           1     -19.133  -4.562  -7.209  0.00  0.00    -0.646 OA
HETATM   25  O           1     -19.777  -4.330  -5.156  0.00  0.00    -0.646 OA
ENDBRANCH  18  23
ENDBRANCH  16  18
ENDBRANCH   1  14
TORSDOF 11
ENDMDL
MODEL 9
REMARK VINA RESULT:      -5.3     15.314     18.318
REMARK  11 active torsions:
REMARK  status: ('A' for Active; 'I' for Inactive)
REMARK    1  A    between atoms: C_1  and  C_16 
REMARK    2  A    between atoms: C_5  and  C_16 
REMARK    3  A    between atoms: C_5  and  C_12 
REMARK    4  A    between atoms: C_5  and  N_21 
REMARK    5  A    between atoms: N_10  and  C_19 
REMARK    6  A    between atoms: N_11  and  C_23 
REMARK    7  A    between atoms: C_18  and  C_19 
REMARK    8  A    between atoms: C_18  and  C_25 
REMARK    9  A    between atoms: C_19  and  C_20 
REMARK       I    between atoms: C_20  and  N_21 
REMARK   10  A    between atoms: C_23  and  C_24 
REMARK   11  A    between atoms: C_24  and  C_25 
ROOT
HETATM    1  C           1     -21.570  -6.575  -5.691  0.00  0.00     0.274 C 
ENDROOT
BRANCH   1   2
HETATM    2  N           1     -22.802  -6.222  -4.910  0.00  0.00    -0.067 N 
HETATM    3  H           1     -22.526  -5.811  -3.990  0.00  0.00     0.275 HD
HETATM    4  H           1     -23.366  -5.525  -5.448  0.00  0.00     0.275 HD
HETATM    5  H           1     -23.372  -7.083  -4.750  0.00  0.00     0.275 HD
ENDBRANCH   1   2
BRANCH   1   6
HETATM    6  C           1     -20.532  -5.474  -5.523  0.00  0.00     0.042 C 
BRANCH   6   7
HETATM    7  C           1     -20.288  -4.796  -6.865  0.00  0.00     0.004 C 
BRANCH   7   8
HETATM    8  C           1     -21.363  -3.745  -7.106  0.00  0.00     0.027 C 
BRANCH   8   9
HETATM    9  C           1     -22.209  -4.147  -8.306  0.00  0.00     0.229 C 
BRANCH   9  10
HETATM   10  N           1     -23.663  -4.037  -7.953  0.00  0.00    -0.079 N 
HETATM   11  H           1     -23.788  -4.220  -6.932  0.00  0.00     0.274 HD
HETATM   12  H           1     -24.209  -4.739  -8.503  0.00  0.00     0.274 HD
HETATM   13  H           1     -24.005  -3.075  -8.181  0.00  0.00     0.274 HD
ENDBRANCH   9  10
ENDBRANCH   8   9
ENDBRANCH   7   8
ENDBRANCH   6   7
ENDBRANCH   1   6
BRANCH   1  14
HETATM   14  C           1     -21.009  -7.879  -5.179  0.00  0.00     0.249 C 
HETATM   15  O           1     -20.971  -8.845  -5.903  0.00  0.00    -0.271 OA
HETATM   16  N           1     -20.544  -7.967  -3.895  0.00  0.00    -0.345 N 
HETATM   17  H           1     -20.576  -7.158  -3.288  0.00  0.00     0.163 HD
BRANCH  16  18
HETATM   18  C           1     -20.005  -9.220  -3.403  0.00  0.00     0.185 C 
BRANCH  18  19
HETATM   19  C           1     -18.633  -8.977  -2.790  0.00  0.00     0.040 C 
BRANCH  19  20
HETATM   20  C           1     -17.626  -9.944  -3.400  0.00  0.00    -0.020 C 
HETATM   21  C           1     -17.656  -9.816  -4.918  0.00  0.00     0.009 C 
HETATM   22  C           1     -16.230  -9.610  -2.891  0.00  0.00     0.009 C 
ENDBRANCH  19  20
ENDBRANCH  18  19
BRANCH  18  23
HETATM   23  C           1     -20.931  -9.788  -2.356  0.00  0.00     0.196 C 
HETATM   24  O           1     -22.097 -10.117  -2.664  0.00  0.00    -0.646 OA
HETATM   25  O           1     -20.532  -9.931  -1.180  0.00  0.00    -0.646 OA
ENDBRANCH  18  23
ENDBRANCH  16  18
ENDBRANCH   1  14
TORSDOF 11
ENDMDL
