MODEL 1
REMARK VINA RESULT:      -7.4      0.000      0.000
REMARK  6 active torsions:
REMARK  status: ('A' for Active; 'I' for Inactive)
REMARK    1  A    between atoms: C_2  and  C_17 
REMARK       I    between atoms: C_4  and  N_11 
REMARK    2  A    between atoms: C_4  and  C_5 
REMARK    3  A    between atoms: C_5  and  C_13 
REMARK    4  A    between atoms: C_5  and  N_19 
REMARK    5  A    between atoms: N_11  and  C_17 
REMARK    6  A    between atoms: C_13  and  C_16 
ROOT
HETATM    1  C           1     -35.924  -0.489 -11.308  0.00  0.00     0.278 C 
ENDROOT
BRANCH   1   2
HETATM    2  C           1     -36.678  -0.358 -12.608  0.00  0.00     0.249 C 
HETATM    3  N           1     -36.043   0.123 -13.722  0.00  0.00    -0.349 N 
HETATM    4  H           1     -35.069   0.391 -13.674  0.00  0.00     0.163 HD
HETATM    5  O           1     -37.841  -0.678 -12.666  0.00  0.00    -0.271 OA
BRANCH   3   6
HETATM    6  C           1     -36.768   0.247 -14.972  0.00  0.00     0.235 C 
BRANCH   6   7
HETATM    7  C           1     -36.202  -0.720 -15.981  0.00  0.00     0.191 C 
HETATM    8  O           1     -35.274  -1.491 -15.655  0.00  0.00    -0.647 OA
HETATM    9  O           1     -36.660  -0.750 -17.144  0.00  0.00    -0.647 OA
ENDBRANCH   6   7
ENDBRANCH   3   6
ENDBRANCH   1   2
BRANCH   1  10
HETATM   10  C           1     -36.280  -1.812 -10.643  0.00  0.00     0.081 C 
BRANCH  10  11
HETATM   11  C           1     -35.200  -2.812 -10.911  0.00  0.00    -0.056 A 
HETATM   12  C           1     -33.902  -2.380 -11.188  0.00  0.00     0.007 A 
HETATM   13  C           1     -32.896  -3.313 -11.439  0.00  0.00     0.001 A 
HETATM   14  C           1     -33.185  -4.677 -11.412  0.00  0.00     0.000 A 
HETATM   15  C           1     -34.483  -5.108 -11.135  0.00  0.00     0.001 A 
HETATM   16  C           1     -35.490  -4.176 -10.885  0.00  0.00     0.007 A 
ENDBRANCH  10  11
ENDBRANCH   1  10
BRANCH   1  17
HETATM   17  N           1     -36.298   0.644 -10.398  0.00  0.00    -0.066 N 
HETATM   18  H           1     -36.897   0.282  -9.621  0.00  0.00     0.275 HD
HETATM   19  H           1     -36.827   1.365 -10.938  0.00  0.00     0.275 HD
HETATM   20  H           1     -35.432   1.072  -9.999  0.00  0.00     0.275 HD
ENDBRANCH   1  17
TORSDOF 6
ENDMDL
MODEL 2
REMARK VINA RESULT:      -7.3     11.795     13.478
REMARK  6 active torsions:
REMARK  status: ('A' for Active; 'I' for Inactive)
REMARK    1  A    between atoms: C_2  and  C_17 
REMARK       I    between atoms: C_4  and  N_11 
REMARK    2  A    between atoms: C_4  and  C_5 
REMARK    3  A    between atoms: C_5  and  C_13 
REMARK    4  A    between atoms: C_5  and  N_19 
REMARK    5  A    between atoms: N_11  and  C_17 
REMARK    6  A    between atoms: C_13  and  C_16 
ROOT
HETATM    1  C           1     -23.460  -3.473 -10.065  0.00  0.00     0.278 C 
ENDROOT
BRANCH   1   2
HETATM    2  C           1     -24.058  -3.436 -11.450  0.00  0.00     0.249 C 
HETATM    3  N           1     -23.311  -3.828 -12.529  0.00  0.00    -0.349 N 
HETATM    4  H           1     -22.358  -4.141 -12.398  0.00  0.00     0.163 HD
HETATM    5  O           1     -25.196  -3.061 -11.607  0.00  0.00    -0.271 OA
BRANCH   3   6
HETATM    6  C           1     -23.887  -3.793 -13.860  0.00  0.00     0.235 C 
BRANCH   6   7
HETATM    7  C           1     -23.347  -2.600 -14.610  0.00  0.00     0.191 C 
HETATM    8  O           1     -23.916  -1.491 -14.514  0.00  0.00    -0.647 OA
HETATM    9  O           1     -22.330  -2.722 -15.328  0.00  0.00    -0.647 OA
ENDBRANCH   6   7
ENDBRANCH   3   6
ENDBRANCH   1   2
BRANCH   1  10
HETATM   10  C           1     -22.798  -4.825  -9.833  0.00  0.00     0.081 C 
BRANCH  10  11
HETATM   11  C           1     -21.750  -4.692  -8.773  0.00  0.00    -0.056 A 
HETATM   12  C           1     -22.078  -4.916  -7.435  0.00  0.00     0.007 A 
HETATM   13  C           1     -21.101  -4.791  -6.448  0.00  0.00     0.001 A 
HETATM   14  C           1     -19.796  -4.443  -6.796  0.00  0.00     0.000 A 
HETATM   15  C           1     -19.469  -4.218  -8.134  0.00  0.00     0.001 A 
HETATM   16  C           1     -20.445  -4.343  -9.122  0.00  0.00     0.007 A 
ENDBRANCH  10  11
ENDBRANCH   1  10
BRANCH   1  17
HETATM   17  N           1     -24.543  -3.266  -9.048  0.00  0.00    -0.066 N 
HETATM   18  H           1     -25.408  -2.927  -9.526  0.00  0.00     0.275 HD
HETATM   19  H           1     -24.231  -2.557  -8.347  0.00  0.00     0.275 HD
HETATM   20  H           1     -24.744  -4.170  -8.564  0.00  0.00     0.275 HD
ENDBRANCH   1  17
TORSDOF 6
ENDMDL
MODEL 3
REMARK VINA RESULT:      -7.3     11.530     12.926
REMARK  6 active torsions:
REMARK  status: ('A' for Active; 'I' for Inactive)
REMARK    1  A    between atoms: C_2  and  C_17 
REMARK       I    between atoms: C_4  and  N_11 
REMARK    2  A    between atoms: C_4  and  C_5 
REMARK    3  A    between atoms: C_5  and  C_13 
REMARK    4  A    between atoms: C_5  and  N_19 
REMARK    5  A    between atoms: N_11  and  C_17 
REMARK    6  A    between atoms: C_13  and  C_16 
ROOT
HETATM    1  C           1     -23.948  -3.335 -10.970  0.00  0.00     0.278 C 
ENDROOT
BRANCH   1   2
HETATM    2  C           1     -24.061  -3.204 -12.469  0.00  0.00     0.249 C 
HETATM    3  N           1     -23.122  -2.493 -13.167  0.00  0.00    -0.349 N 
HETATM    4  H           1     -22.352  -2.055 -12.677  0.00  0.00     0.163 HD
HETATM    5  O           1     -24.980  -3.727 -13.054  0.00  0.00    -0.271 OA
BRANCH   3   6
HETATM    6  C           1     -23.230  -2.368 -14.607  0.00  0.00     0.235 C 
BRANCH   6   7
HETATM    7  C           1     -23.819  -1.023 -14.952  0.00  0.00     0.191 C 
HETATM    8  O           1     -25.002  -0.761 -14.646  0.00  0.00    -0.647 OA
HETATM    9  O           1     -23.123  -0.169 -15.546  0.00  0.00    -0.647 OA
ENDBRANCH   6   7
ENDBRANCH   3   6
ENDBRANCH   1   2
BRANCH   1  10
HETATM   10  C           1     -23.249  -4.644 -10.625  0.00  0.00     0.081 C 
BRANCH  10  11
HETATM   11  C           1     -22.242  -4.403  -9.545  0.00  0.00    -0.056 A 
HETATM   12  C           1     -20.883  -4.353  -9.857  0.00  0.00     0.007 A 
HETATM   13  C           1     -19.944  -4.129  -8.850  0.00  0.00     0.001 A 
HETATM   14  C           1     -20.363  -3.953  -7.531  0.00  0.00     0.000 A 
HETATM   15  C           1     -21.722  -4.003  -7.220  0.00  0.00     0.001 A 
HETATM   16  C           1     -22.661  -4.228  -8.226  0.00  0.00     0.007 A 
ENDBRANCH  10  11
ENDBRANCH   1  10
BRANCH   1  17
HETATM   17  N           1     -25.320  -3.327 -10.364  0.00  0.00    -0.066 N 
HETATM   18  H           1     -25.834  -4.189 -10.653  0.00  0.00     0.275 HD
HETATM   19  H           1     -25.842  -2.484 -10.694  0.00  0.00     0.275 HD
HETATM   20  H           1     -25.241  -3.302  -9.322  0.00  0.00     0.275 HD
ENDBRANCH   1  17
TORSDOF 6
ENDMDL
MODEL 4
REMARK VINA RESULT:      -7.0     12.538     14.247
REMARK  6 active torsions:
REMARK  status: ('A' for Active; 'I' for Inactive)
REMARK    1  A    between atoms: C_2  and  C_17 
REMARK       I    between atoms: C_4  and  N_11 
REMARK    2  A    between atoms: C_4  and  C_5 
REMARK    3  A    between atoms: C_5  and  C_13 
REMARK    4  A    between atoms: C_5  and  N_19 
REMARK    5  A    between atoms: N_11  and  C_17 
REMARK    6  A    between atoms: C_13  and  C_16 
ROOT
HETATM    1  C           1     -21.462  -4.344 -10.719  0.00  0.00     0.278 C 
ENDROOT
BRANCH   1   2
HETATM    2  C           1     -22.619  -4.267 -11.684  0.00  0.00     0.249 C 
HETATM    3  N           1     -22.546  -3.445 -12.777  0.00  0.00    -0.349 N 
HETATM    4  H           1     -21.716  -2.890 -12.938  0.00  0.00     0.163 HD
HETATM    5  O           1     -23.611  -4.929 -11.492  0.00  0.00    -0.271 OA
BRANCH   3   6
HETATM    6  C           1     -23.658  -3.372 -13.705  0.00  0.00     0.235 C 
BRANCH   6   7
HETATM    7  C           1     -23.381  -2.310 -14.740  0.00  0.00     0.191 C 
HETATM    8  O           1     -24.111  -1.298 -14.808  0.00  0.00    -0.647 OA
HETATM    9  O           1     -22.421  -2.443 -15.530  0.00  0.00    -0.647 OA
ENDBRANCH   6   7
ENDBRANCH   3   6
ENDBRANCH   1   2
BRANCH   1  10
HETATM   10  C           1     -21.766  -3.495  -9.491  0.00  0.00     0.081 C 
BRANCH  10  11
HETATM   11  C           1     -21.200  -4.157  -8.274  0.00  0.00    -0.056 A 
HETATM   12  C           1     -19.823  -4.147  -8.051  0.00  0.00     0.007 A 
HETATM   13  C           1     -19.296  -4.765  -6.917  0.00  0.00     0.001 A 
HETATM   14  C           1     -20.145  -5.392  -6.005  0.00  0.00     0.000 A 
HETATM   15  C           1     -21.522  -5.402  -6.229  0.00  0.00     0.001 A 
HETATM   16  C           1     -22.050  -4.785  -7.363  0.00  0.00     0.007 A 
ENDBRANCH  10  11
ENDBRANCH   1  10
BRANCH   1  17
HETATM   17  N           1     -20.221  -3.830 -11.386  0.00  0.00    -0.066 N 
HETATM   18  H           1     -19.639  -3.315 -10.688  0.00  0.00     0.275 HD
HETATM   19  H           1     -20.485  -3.184 -12.164  0.00  0.00     0.275 HD
HETATM   20  H           1     -19.674  -4.633 -11.771  0.00  0.00     0.275 HD
ENDBRANCH   1  17
TORSDOF 6
ENDMDL
MODEL 5
REMARK VINA RESULT:      -6.6     13.842     16.081
REMARK  6 active torsions:
REMARK  status: ('A' for Active; 'I' for Inactive)
REMARK    1  A    between atoms: C_2  and  C_17 
REMARK       I    between atoms: C_4  and  N_11 
REMARK    2  A    between atoms: C_4  and  C_5 
REMARK    3  A    between atoms: C_5  and  C_13 
REMARK    4  A    between atoms: C_5  and  N_19 
REMARK    5  A    between atoms: N_11  and  C_17 
REMARK    6  A    between atoms: C_13  and  C_16 
ROOT
HETATM    1  C           1     -21.877  -4.600  -7.497  0.00  0.00     0.278 C 
ENDROOT
BRANCH   1   2
HETATM    2  C           1     -21.467  -5.773  -6.643  0.00  0.00     0.249 C 
HETATM    3  N           1     -21.877  -5.848  -5.338  0.00  0.00    -0.349 N 
HETATM    4  H           1     -22.455  -5.115  -4.947  0.00  0.00     0.163 HD
HETATM    5  O           1     -20.776  -6.648  -7.109  0.00  0.00    -0.271 OA
BRANCH   3   6
HETATM    6  C           1     -21.482  -6.976  -4.518  0.00  0.00     0.235 C 
BRANCH   6   7
HETATM    7  C           1     -21.650  -6.623  -3.061  0.00  0.00     0.191 C 
HETATM    8  O           1     -20.859  -7.084  -2.210  0.00  0.00    -0.647 OA
HETATM    9  O           1     -22.582  -5.869  -2.704  0.00  0.00    -0.647 OA
ENDBRANCH   6   7
ENDBRANCH   3   6
ENDBRANCH   1   2
BRANCH   1  10
HETATM   10  C           1     -21.157  -4.669  -8.837  0.00  0.00     0.081 C 
BRANCH  10  11
HETATM   11  C           1     -22.012  -4.049  -9.897  0.00  0.00    -0.056 A 
HETATM   12  C           1     -21.425  -3.524 -11.049  0.00  0.00     0.007 A 
HETATM   13  C           1     -22.223  -2.946 -12.036  0.00  0.00     0.001 A 
HETATM   14  C           1     -23.607  -2.893 -11.873  0.00  0.00     0.000 A 
HETATM   15  C           1     -24.193  -3.418 -10.721  0.00  0.00     0.001 A 
HETATM   16  C           1     -23.396  -3.996  -9.733  0.00  0.00     0.007 A 
ENDBRANCH  10  11
ENDBRANCH   1  10
BRANCH   1  17
HETATM   17  N           1     -21.513  -3.323  -6.799  0.00  0.00    -0.066 N 
HETATM   18  H           1     -22.181  -3.154  -6.013  0.00  0.00     0.275 HD
HETATM   19  H           1     -21.565  -2.529  -7.477  0.00  0.00     0.275 HD
HETATM   20  H           1     -20.542  -3.396  -6.422  0.00  0.00     0.275 HD
ENDBRANCH   1  17
TORSDOF 6
ENDMDL
MODEL 6
REMARK VINA RESULT:      -6.5      8.780     10.294
REMARK  6 active torsions:
REMARK  status: ('A' for Active; 'I' for Inactive)
REMARK    1  A    between atoms: C_2  and  C_17 
REMARK       I    between atoms: C_4  and  N_11 
REMARK    2  A    between atoms: C_4  and  C_5 
REMARK    3  A    between atoms: C_5  and  C_13 
REMARK    4  A    between atoms: C_5  and  N_19 
REMARK    5  A    between atoms: N_11  and  C_17 
REMARK    6  A    between atoms: C_13  and  C_16 
ROOT
HETATM    1  C           1     -28.914  -6.794 -17.264  0.00  0.00     0.278 C 
ENDROOT
BRANCH   1   2
HETATM    2  C           1     -29.989  -5.961 -16.612  0.00  0.00     0.249 C 
HETATM    3  N           1     -31.128  -5.647 -17.306  0.00  0.00    -0.349 N 
HETATM    4  H           1     -31.247  -5.973 -18.256  0.00  0.00     0.163 HD
HETATM    5  O           1     -29.847  -5.571 -15.478  0.00  0.00    -0.271 OA
BRANCH   3   6
HETATM    6  C           1     -32.161  -4.846 -16.679  0.00  0.00     0.235 C 
BRANCH   6   7
HETATM    7  C           1     -32.200  -3.482 -17.321  0.00  0.00     0.191 C 
HETATM    8  O           1     -31.134  -2.905 -17.628  0.00  0.00    -0.647 OA
HETATM    9  O           1     -33.298  -2.927 -17.545  0.00  0.00    -0.647 OA
ENDBRANCH   6   7
ENDBRANCH   3   6
ENDBRANCH   1   2
BRANCH   1  10
HETATM   10  C           1     -28.547  -6.188 -18.612  0.00  0.00     0.081 C 
BRANCH  10  11
HETATM   11  C           1     -27.113  -6.484 -18.920  0.00  0.00    -0.056 A 
HETATM   12  C           1     -26.173  -6.528 -17.889  0.00  0.00     0.007 A 
HETATM   13  C           1     -24.836  -6.802 -18.176  0.00  0.00     0.001 A 
HETATM   14  C           1     -24.438  -7.035 -19.493  0.00  0.00     0.000 A 
HETATM   15  C           1     -25.378  -6.990 -20.523  0.00  0.00     0.001 A 
HETATM   16  C           1     -26.715  -6.715 -20.236  0.00  0.00     0.007 A 
ENDBRANCH  10  11
ENDBRANCH   1  10
BRANCH   1  17
HETATM   17  N           1     -29.420  -8.192 -17.467  0.00  0.00    -0.066 N 
HETATM   18  H           1     -30.321  -8.163 -17.995  0.00  0.00     0.275 HD
HETATM   19  H           1     -29.575  -8.644 -16.538  0.00  0.00     0.275 HD
HETATM   20  H           1     -28.716  -8.742 -18.009  0.00  0.00     0.275 HD
ENDBRANCH   1  17
TORSDOF 6
ENDMDL
MODEL 7
REMARK VINA RESULT:      -6.2     14.686     16.648
REMARK  6 active torsions:
REMARK  status: ('A' for Active; 'I' for Inactive)
REMARK    1  A    between atoms: C_2  and  C_17 
REMARK       I    between atoms: C_4  and  N_11 
REMARK    2  A    between atoms: C_4  and  C_5 
REMARK    3  A    between atoms: C_5  and  C_13 
REMARK    4  A    between atoms: C_5  and  N_19 
REMARK    5  A    between atoms: N_11  and  C_17 
REMARK    6  A    between atoms: C_13  and  C_16 
ROOT
HETATM    1  C           1     -22.205  -5.112  -6.779  0.00  0.00     0.278 C 
ENDROOT
BRANCH   1   2
HETATM    2  C           1     -21.464  -5.497  -5.523  0.00  0.00     0.249 C 
HETATM    3  N           1     -22.120  -6.147  -4.512  0.00  0.00    -0.349 N 
HETATM    4  H           1     -23.103  -6.368  -4.607  0.00  0.00     0.163 HD
HETATM    5  O           1     -20.290  -5.233  -5.409  0.00  0.00    -0.271 OA
BRANCH   3   6
HETATM    6  C           1     -21.406  -6.517  -3.305  0.00  0.00     0.235 C 
BRANCH   6   7
HETATM    7  C           1     -21.330  -8.020  -3.207  0.00  0.00     0.191 C 
HETATM    8  O           1     -21.672  -8.728  -4.178  0.00  0.00    -0.647 OA
HETATM    9  O           1     -20.925  -8.558  -2.153  0.00  0.00    -0.647 OA
ENDBRANCH   6   7
ENDBRANCH   3   6
ENDBRANCH   1   2
BRANCH   1  10
HETATM   10  C           1     -21.610  -3.831  -7.349  0.00  0.00     0.081 C 
BRANCH  10  11
HETATM   11  C           1     -21.535  -3.935  -8.840  0.00  0.00    -0.056 A 
HETATM   12  C           1     -22.658  -3.647  -9.617  0.00  0.00     0.007 A 
HETATM   13  C           1     -22.587  -3.745 -11.007  0.00  0.00     0.001 A 
HETATM   14  C           1     -21.395  -4.131 -11.620  0.00  0.00     0.000 A 
HETATM   15  C           1     -20.274  -4.419 -10.842  0.00  0.00     0.001 A 
HETATM   16  C           1     -20.343  -4.322  -9.453  0.00  0.00     0.007 A 
ENDBRANCH  10  11
ENDBRANCH   1  10
BRANCH   1  17
HETATM   17  N           1     -23.653  -4.890  -6.456  0.00  0.00    -0.066 N 
HETATM   18  H           1     -24.128  -5.813  -6.336  0.00  0.00     0.275 HD
HETATM   19  H           1     -24.107  -4.363  -7.235  0.00  0.00     0.275 HD
HETATM   20  H           1     -23.733  -4.340  -5.571  0.00  0.00     0.275 HD
ENDBRANCH   1  17
TORSDOF 6
ENDMDL
MODEL 8
REMARK VINA RESULT:      -6.2     14.901     16.686
REMARK  6 active torsions:
REMARK  status: ('A' for Active; 'I' for Inactive)
REMARK    1  A    between atoms: C_2  and  C_17 
REMARK       I    between atoms: C_4  and  N_11 
REMARK    2  A    between atoms: C_4  and  C_5 
REMARK    3  A    between atoms: C_5  and  C_13 
REMARK    4  A    between atoms: C_5  and  N_19 
REMARK    5  A    between atoms: N_11  and  C_17 
REMARK    6  A    between atoms: C_13  and  C_16 
ROOT
HETATM    1  C           1     -21.870  -6.642  -5.152  0.00  0.00     0.278 C 
ENDROOT
BRANCH   1   2
HETATM    2  C           1     -22.232  -5.506  -6.076  0.00  0.00     0.249 C 
HETATM    3  N           1     -21.261  -4.894  -6.823  0.00  0.00    -0.349 N 
HETATM    4  H           1     -20.300  -5.203  -6.754  0.00  0.00     0.163 HD
HETATM    5  O           1     -23.379  -5.135  -6.158  0.00  0.00    -0.271 OA
BRANCH   3   6
HETATM    6  C           1     -21.609  -3.802  -7.712  0.00  0.00     0.235 C 
BRANCH   6   7
HETATM    7  C           1     -21.611  -4.295  -9.137  0.00  0.00     0.191 C 
HETATM    8  O           1     -22.621  -4.869  -9.599  0.00  0.00    -0.647 OA
HETATM    9  O           1     -20.602  -4.131  -9.857  0.00  0.00    -0.647 OA
ENDBRANCH   6   7
ENDBRANCH   3   6
ENDBRANCH   1   2
BRANCH   1  10
HETATM   10  C           1     -20.912  -6.140  -4.080  0.00  0.00     0.081 C 
BRANCH  10  11
HETATM   11  C           1     -21.220  -6.814  -2.780  0.00  0.00    -0.056 A 
HETATM   12  C           1     -20.534  -7.973  -2.415  0.00  0.00     0.007 A 
HETATM   13  C           1     -20.822  -8.601  -1.204  0.00  0.00     0.001 A 
HETATM   14  C           1     -21.795  -8.072  -0.356  0.00  0.00     0.000 A 
HETATM   15  C           1     -22.481  -6.913  -0.722  0.00  0.00     0.001 A 
HETATM   16  C           1     -22.194  -6.285  -1.933  0.00  0.00     0.007 A 
ENDBRANCH  10  11
ENDBRANCH   1  10
BRANCH   1  17
HETATM   17  N           1     -21.210  -7.735  -5.940  0.00  0.00    -0.066 N 
HETATM   18  H           1     -21.679  -8.645  -5.731  0.00  0.00     0.275 HD
HETATM   19  H           1     -20.201  -7.794  -5.675  0.00  0.00     0.275 HD
HETATM   20  H           1     -21.291  -7.527  -6.960  0.00  0.00     0.275 HD
ENDBRANCH   1  17
TORSDOF 6
ENDMDL
MODEL 9
REMARK VINA RESULT:      -6.2     14.430     16.444
REMARK  6 active torsions:
REMARK  status: ('A' for Active; 'I' for Inactive)
REMARK    1  A    between atoms: C_2  and  C_17 
REMARK       I    between atoms: C_4  and  N_11 
REMARK    2  A    between atoms: C_4  and  C_5 
REMARK    3  A    between atoms: C_5  and  C_13 
REMARK    4  A    between atoms: C_5  and  N_19 
REMARK    5  A    between atoms: N_11  and  C_17 
REMARK    6  A    between atoms: C_13  and  C_16 
ROOT
HETATM    1  C           1     -22.465  -5.198  -6.974  0.00  0.00     0.278 C 
ENDROOT
BRANCH   1   2
HETATM    2  C           1     -21.757  -5.995  -5.908  0.00  0.00     0.249 C 
HETATM    3  N           1     -20.862  -6.971  -6.262  0.00  0.00    -0.349 N 
HETATM    4  H           1     -20.677  -7.156  -7.239  0.00  0.00     0.163 HD
HETATM    5  O           1     -21.978  -5.774  -4.741  0.00  0.00    -0.271 OA
BRANCH   3   6
HETATM    6  C           1     -20.181  -7.736  -5.236  0.00  0.00     0.235 C 
BRANCH   6   7
HETATM    7  C           1     -20.897  -9.047  -5.028  0.00  0.00     0.191 C 
HETATM    8  O           1     -21.625  -9.210  -4.025  0.00  0.00    -0.647 OA
HETATM    9  O           1     -20.762  -9.972  -5.858  0.00  0.00    -0.647 OA
ENDBRANCH   6   7
ENDBRANCH   3   6
ENDBRANCH   1   2
BRANCH   1  10
HETATM   10  C           1     -21.585  -4.033  -7.407  0.00  0.00     0.081 C 
BRANCH  10  11
HETATM   11  C           1     -21.527  -3.979  -8.901  0.00  0.00    -0.056 A 
HETATM   12  C           1     -20.340  -4.293  -9.565  0.00  0.00     0.007 A 
HETATM   13  C           1     -20.286  -4.241 -10.958  0.00  0.00     0.001 A 
HETATM   14  C           1     -21.418  -3.877 -11.688  0.00  0.00     0.000 A 
HETATM   15  C           1     -22.603  -3.563 -11.024  0.00  0.00     0.001 A 
HETATM   16  C           1     -22.658  -3.614  -9.631  0.00  0.00     0.007 A 
ENDBRANCH  10  11
ENDBRANCH   1  10
BRANCH   1  17
HETATM   17  N           1     -23.758  -4.671  -6.427  0.00  0.00    -0.066 N 
HETATM   18  H           1     -24.154  -5.359  -5.747  0.00  0.00     0.275 HD
HETATM   19  H           1     -24.435  -4.527  -7.211  0.00  0.00     0.275 HD
HETATM   20  H           1     -23.588  -3.761  -5.943  0.00  0.00     0.275 HD
ENDBRANCH   1  17
TORSDOF 6
ENDMDL
