MODEL 1
REMARK VINA RESULT:      -6.0      0.000      0.000
REMARK  9 active torsions:
REMARK  status: ('A' for Active; 'I' for Inactive)
REMARK    1  A    between atoms: N_1  and  C_5 
REMARK       I    between atoms: N_1  and  C_23 
REMARK    2  A    between atoms: C_2  and  C_18 
REMARK    3  A    between atoms: C_2  and  O_3 
REMARK    4  A    between atoms: C_4  and  C_10 
REMARK    5  A    between atoms: C_4  and  C_5 
REMARK    6  A    between atoms: C_5  and  C_16 
REMARK       I    between atoms: N_6  and  C_21 
REMARK    7  A    between atoms: C_10  and  C_21 
REMARK    8  A    between atoms: C_18  and  C_23 
REMARK    9  A    between atoms: C_18  and  N_22 
ROOT
HETATM    1  N           1     -34.901  -1.767 -13.074  0.00  0.00    -0.345 N 
HETATM    2  O           1     -33.653  -2.116 -11.255  0.00  0.00    -0.271 OA
HETATM    3  H           1     -35.330  -2.150 -13.907  0.00  0.00     0.163 HD
HETATM    4  C           1     -34.165  -2.573 -12.248  0.00  0.00     0.251 C 
ENDROOT
BRANCH   1   5
HETATM    5  C           1     -35.065  -0.360 -12.757  0.00  0.00     0.186 C 
BRANCH   5   6
HETATM    6  C           1     -35.221   0.435 -14.046  0.00  0.00     0.045 C 
BRANCH   6   7
HETATM    7  C           1     -35.499  -0.517 -15.201  0.00  0.00     0.105 C 
BRANCH   7   8
HETATM    8  C           1     -36.844  -0.195 -15.806  0.00  0.00     0.215 C 
HETATM    9  N           1     -37.709   0.638 -15.148  0.00  0.00    -0.370 N 
HETATM   10  H           1     -37.446   1.038 -14.257  0.00  0.00     0.159 HD
HETATM   11  H           1     -38.610   0.854 -15.554  0.00  0.00     0.159 HD
HETATM   12  O           1     -37.157  -0.673 -16.871  0.00  0.00    -0.274 OA
ENDBRANCH   7   8
ENDBRANCH   6   7
ENDBRANCH   5   6
BRANCH   5  13
HETATM   13  C           1     -36.294  -0.180 -11.901  0.00  0.00     0.196 C 
HETATM   14  O           1     -37.402  -0.600 -12.301  0.00  0.00    -0.646 OA
HETATM   15  O           1     -36.205   0.389 -10.791  0.00  0.00    -0.646 OA
ENDBRANCH   5  13
ENDBRANCH   1   5
BRANCH   4  16
HETATM   16  C           1     -33.995  -4.036 -12.579  0.00  0.00     0.297 C 
BRANCH  16  17
HETATM   17  C           1     -34.952  -4.863 -11.731  0.00  0.00     0.206 C 
BRANCH  17  18
HETATM   18  O           1     -35.834  -4.010 -11.053  0.00  0.00    -0.398 OA
HETATM   19  H           1     -36.264  -4.527 -10.394  0.00  0.00     0.209 HD
ENDBRANCH  17  18
ENDBRANCH  16  17
BRANCH  16  20
HETATM   20  N           1     -32.583  -4.452 -12.289  0.00  0.00    -0.064 N 
HETATM   21  H           1     -32.105  -4.705 -13.183  0.00  0.00     0.275 HD
HETATM   22  H           1     -32.589  -5.280 -11.650  0.00  0.00     0.275 HD
HETATM   23  H           1     -32.074  -3.663 -11.832  0.00  0.00     0.275 HD
ENDBRANCH  16  20
ENDBRANCH   4  16
TORSDOF 9
ENDMDL
MODEL 2
REMARK VINA RESULT:      -6.0     12.082     13.660
REMARK  9 active torsions:
REMARK  status: ('A' for Active; 'I' for Inactive)
REMARK    1  A    between atoms: N_1  and  C_5 
REMARK       I    between atoms: N_1  and  C_23 
REMARK    2  A    between atoms: C_2  and  C_18 
REMARK    3  A    between atoms: C_2  and  O_3 
REMARK    4  A    between atoms: C_4  and  C_10 
REMARK    5  A    between atoms: C_4  and  C_5 
REMARK    6  A    between atoms: C_5  and  C_16 
REMARK       I    between atoms: N_6  and  C_21 
REMARK    7  A    between atoms: C_10  and  C_21 
REMARK    8  A    between atoms: C_18  and  C_23 
REMARK    9  A    between atoms: C_18  and  N_22 
ROOT
HETATM    1  N           1     -22.137  -4.731  -8.968  0.00  0.00    -0.345 N 
HETATM    2  O           1     -21.622  -3.246  -7.382  0.00  0.00    -0.271 OA
HETATM    3  H           1     -22.120  -5.694  -9.280  0.00  0.00     0.163 HD
HETATM    4  C           1     -21.601  -4.394  -7.754  0.00  0.00     0.251 C 
ENDROOT
BRANCH   1   5
HETATM    5  C           1     -22.730  -3.708  -9.809  0.00  0.00     0.186 C 
BRANCH   5   6
HETATM    6  C           1     -22.254  -3.892 -11.244  0.00  0.00     0.045 C 
BRANCH   6   7
HETATM    7  C           1     -22.449  -2.593 -12.014  0.00  0.00     0.105 C 
BRANCH   7   8
HETATM    8  C           1     -23.249  -2.864 -13.265  0.00  0.00     0.215 C 
HETATM    9  N           1     -22.609  -3.031 -14.464  0.00  0.00    -0.370 N 
HETATM   10  H           1     -21.600  -2.972 -14.511  0.00  0.00     0.159 HD
HETATM   11  H           1     -23.145  -3.213 -15.302  0.00  0.00     0.159 HD
HETATM   12  O           1     -24.454  -2.935 -13.208  0.00  0.00    -0.274 OA
ENDBRANCH   7   8
ENDBRANCH   6   7
ENDBRANCH   5   6
BRANCH   5  13
HETATM   13  C           1     -24.233  -3.825  -9.757  0.00  0.00     0.196 C 
HETATM   14  O           1     -24.779  -4.937  -9.926  0.00  0.00    -0.646 OA
HETATM   15  O           1     -24.932  -2.811  -9.543  0.00  0.00    -0.646 OA
ENDBRANCH   5  13
ENDBRANCH   1   5
BRANCH   4  16
HETATM   16  C           1     -20.984  -5.459  -6.881  0.00  0.00     0.297 C 
BRANCH  16  17
HETATM   17  C           1     -21.959  -5.833  -5.772  0.00  0.00     0.206 C 
BRANCH  17  18
HETATM   18  O           1     -23.221  -5.293  -6.056  0.00  0.00    -0.398 OA
HETATM   19  H           1     -23.664  -5.909  -6.614  0.00  0.00     0.209 HD
ENDBRANCH  17  18
ENDBRANCH  16  17
BRANCH  16  20
HETATM   20  N           1     -19.716  -4.935  -6.275  0.00  0.00    -0.064 N 
HETATM   21  H           1     -19.120  -4.517  -7.024  0.00  0.00     0.275 HD
HETATM   22  H           1     -19.200  -5.720  -5.815  0.00  0.00     0.275 HD
HETATM   23  H           1     -19.945  -4.205  -5.563  0.00  0.00     0.275 HD
ENDBRANCH  16  20
ENDBRANCH   4  16
TORSDOF 9
ENDMDL
MODEL 3
REMARK VINA RESULT:      -5.8      2.413      5.244
REMARK  9 active torsions:
REMARK  status: ('A' for Active; 'I' for Inactive)
REMARK    1  A    between atoms: N_1  and  C_5 
REMARK       I    between atoms: N_1  and  C_23 
REMARK    2  A    between atoms: C_2  and  C_18 
REMARK    3  A    between atoms: C_2  and  O_3 
REMARK    4  A    between atoms: C_4  and  C_10 
REMARK    5  A    between atoms: C_4  and  C_5 
REMARK    6  A    between atoms: C_5  and  C_16 
REMARK       I    between atoms: N_6  and  C_21 
REMARK    7  A    between atoms: C_10  and  C_21 
REMARK    8  A    between atoms: C_18  and  C_23 
REMARK    9  A    between atoms: C_18  and  N_22 
ROOT
HETATM    1  N           1     -36.330  -0.638 -13.095  0.00  0.00    -0.345 N 
HETATM    2  O           1     -35.132   1.070 -13.890  0.00  0.00    -0.271 OA
HETATM    3  H           1     -37.058  -1.323 -13.254  0.00  0.00     0.163 HD
HETATM    4  C           1     -36.000   0.253 -14.080  0.00  0.00     0.251 C 
ENDROOT
BRANCH   1   5
HETATM    5  C           1     -35.637  -0.600 -11.821  0.00  0.00     0.186 C 
BRANCH   5   6
HETATM    6  C           1     -36.616  -0.929 -10.701  0.00  0.00     0.045 C 
BRANCH   6   7
HETATM    7  C           1     -37.469   0.295 -10.397  0.00  0.00     0.105 C 
BRANCH   7   8
HETATM    8  C           1     -37.023   0.909  -9.092  0.00  0.00     0.215 C 
HETATM    9  N           1     -37.650   2.029  -8.613  0.00  0.00    -0.370 N 
HETATM   10  H           1     -38.411   2.445  -9.134  0.00  0.00     0.159 HD
HETATM   11  H           1     -37.351   2.440  -7.738  0.00  0.00     0.159 HD
HETATM   12  O           1     -36.115   0.412  -8.470  0.00  0.00    -0.274 OA
ENDBRANCH   7   8
ENDBRANCH   6   7
ENDBRANCH   5   6
BRANCH   5  13
HETATM   13  C           1     -34.520  -1.615 -11.828  0.00  0.00     0.196 C 
HETATM   14  O           1     -34.376  -2.380 -12.806  0.00  0.00    -0.646 OA
HETATM   15  O           1     -33.738  -1.690 -10.855  0.00  0.00    -0.646 OA
ENDBRANCH   5  13
ENDBRANCH   1   5
BRANCH   4  16
HETATM   16  C           1     -36.722   0.214 -15.405  0.00  0.00     0.297 C 
BRANCH  16  17
HETATM   17  C           1     -36.023  -0.770 -16.334  0.00  0.00     0.206 C 
BRANCH  17  18
HETATM   18  O           1     -35.163  -1.589 -15.589  0.00  0.00    -0.398 OA
HETATM   19  H           1     -35.158  -2.433 -16.007  0.00  0.00     0.209 HD
ENDBRANCH  17  18
ENDBRANCH  16  17
BRANCH  16  20
HETATM   20  N           1     -36.707   1.581 -16.022  0.00  0.00    -0.064 N 
HETATM   21  H           1     -37.387   1.612 -16.815  0.00  0.00     0.275 HD
HETATM   22  H           1     -35.747   1.792 -16.378  0.00  0.00     0.275 HD
HETATM   23  H           1     -36.976   2.290 -15.304  0.00  0.00     0.275 HD
ENDBRANCH  16  20
ENDBRANCH   4  16
TORSDOF 9
ENDMDL
MODEL 4
REMARK VINA RESULT:      -5.7     11.318     13.579
REMARK  9 active torsions:
REMARK  status: ('A' for Active; 'I' for Inactive)
REMARK    1  A    between atoms: N_1  and  C_5 
REMARK       I    between atoms: N_1  and  C_23 
REMARK    2  A    between atoms: C_2  and  C_18 
REMARK    3  A    between atoms: C_2  and  O_3 
REMARK    4  A    between atoms: C_4  and  C_10 
REMARK    5  A    between atoms: C_4  and  C_5 
REMARK    6  A    between atoms: C_5  and  C_16 
REMARK       I    between atoms: N_6  and  C_21 
REMARK    7  A    between atoms: C_10  and  C_21 
REMARK    8  A    between atoms: C_18  and  C_23 
REMARK    9  A    between atoms: C_18  and  N_22 
ROOT
HETATM    1  N           1     -23.237  -3.277 -11.823  0.00  0.00    -0.345 N 
HETATM    2  O           1     -24.349  -4.117 -13.568  0.00  0.00    -0.271 OA
HETATM    3  H           1     -22.585  -2.587 -11.473  0.00  0.00     0.163 HD
HETATM    4  C           1     -23.571  -3.294 -13.151  0.00  0.00     0.251 C 
ENDROOT
BRANCH   1   5
HETATM    5  C           1     -23.818  -4.250 -10.917  0.00  0.00     0.186 C 
BRANCH   5   6
HETATM    6  C           1     -22.705  -4.986 -10.183  0.00  0.00     0.045 C 
BRANCH   6   7
HETATM    7  C           1     -21.441  -4.138 -10.194  0.00  0.00     0.105 C 
BRANCH   7   8
HETATM    8  C           1     -20.802  -4.168  -8.827  0.00  0.00     0.215 C 
HETATM    9  N           1     -21.507  -3.745  -7.732  0.00  0.00    -0.370 N 
HETATM   10  H           1     -22.457  -3.412  -7.840  0.00  0.00     0.159 HD
HETATM   11  H           1     -21.079  -3.765  -6.816  0.00  0.00     0.159 HD
HETATM   12  O           1     -19.668  -4.565  -8.699  0.00  0.00    -0.274 OA
ENDBRANCH   7   8
ENDBRANCH   6   7
ENDBRANCH   5   6
BRANCH   5  13
HETATM   13  C           1     -24.698  -3.541  -9.918  0.00  0.00     0.196 C 
HETATM   14  O           1     -24.305  -3.379  -8.742  0.00  0.00    -0.646 OA
HETATM   15  O           1     -25.820  -3.114 -10.267  0.00  0.00    -0.646 OA
ENDBRANCH   5  13
ENDBRANCH   1   5
BRANCH   4  16
HETATM   16  C           1     -22.966  -2.282 -14.093  0.00  0.00     0.297 C 
BRANCH  16  17
HETATM   17  C           1     -24.065  -1.385 -14.647  0.00  0.00     0.206 C 
BRANCH  17  18
HETATM   18  O           1     -25.175  -1.422 -13.793  0.00  0.00    -0.398 OA
HETATM   19  H           1     -25.489  -0.537 -13.713  0.00  0.00     0.209 HD
ENDBRANCH  17  18
ENDBRANCH  16  17
BRANCH  16  20
HETATM   20  N           1     -22.286  -2.996 -15.224  0.00  0.00    -0.064 N 
HETATM   21  H           1     -21.252  -2.966 -15.082  0.00  0.00     0.275 HD
HETATM   22  H           1     -22.528  -2.528 -16.126  0.00  0.00     0.275 HD
HETATM   23  H           1     -22.606  -3.990 -15.251  0.00  0.00     0.275 HD
ENDBRANCH  16  20
ENDBRANCH   4  16
TORSDOF 9
ENDMDL
MODEL 5
REMARK VINA RESULT:      -5.7      8.462      9.904
REMARK  9 active torsions:
REMARK  status: ('A' for Active; 'I' for Inactive)
REMARK    1  A    between atoms: N_1  and  C_5 
REMARK       I    between atoms: N_1  and  C_23 
REMARK    2  A    between atoms: C_2  and  C_18 
REMARK    3  A    between atoms: C_2  and  O_3 
REMARK    4  A    between atoms: C_4  and  C_10 
REMARK    5  A    between atoms: C_4  and  C_5 
REMARK    6  A    between atoms: C_5  and  C_16 
REMARK       I    between atoms: N_6  and  C_21 
REMARK    7  A    between atoms: C_10  and  C_21 
REMARK    8  A    between atoms: C_18  and  C_23 
REMARK    9  A    between atoms: C_18  and  N_22 
ROOT
HETATM    1  N           1     -28.225  -6.872 -17.936  0.00  0.00    -0.345 N 
HETATM    2  O           1     -27.884  -6.061 -15.883  0.00  0.00    -0.271 OA
HETATM    3  H           1     -27.827  -7.167 -18.819  0.00  0.00     0.163 HD
HETATM    4  C           1     -27.409  -6.414 -16.936  0.00  0.00     0.251 C 
ENDROOT
BRANCH   1   5
HETATM    5  C           1     -29.660  -6.932 -17.732  0.00  0.00     0.186 C 
BRANCH   5   6
HETATM    6  C           1     -30.271  -5.567 -18.019  0.00  0.00     0.045 C 
BRANCH   6   7
HETATM    7  C           1     -31.233  -5.196 -16.899  0.00  0.00     0.105 C 
BRANCH   7   8
HETATM    8  C           1     -31.893  -3.876 -17.218  0.00  0.00     0.215 C 
HETATM    9  N           1     -33.251  -3.744 -17.102  0.00  0.00    -0.370 N 
HETATM   10  H           1     -33.812  -4.531 -16.801  0.00  0.00     0.159 HD
HETATM   11  H           1     -33.693  -2.860 -17.316  0.00  0.00     0.159 HD
HETATM   12  O           1     -31.223  -2.937 -17.577  0.00  0.00    -0.274 OA
ENDBRANCH   7   8
ENDBRANCH   6   7
ENDBRANCH   5   6
BRANCH   5  13
HETATM   13  C           1     -30.256  -7.957 -18.664  0.00  0.00     0.196 C 
HETATM   14  O           1     -31.497  -8.058 -18.772  0.00  0.00    -0.646 OA
HETATM   15  O           1     -29.507  -8.705 -19.331  0.00  0.00    -0.646 OA
ENDBRANCH   5  13
ENDBRANCH   1   5
BRANCH   4  16
HETATM   16  C           1     -25.916  -6.351 -17.150  0.00  0.00     0.297 C 
BRANCH  16  17
HETATM   17  C           1     -25.594  -6.723 -18.591  0.00  0.00     0.206 C 
BRANCH  17  18
HETATM   18  O           1     -24.424  -7.493 -18.626  0.00  0.00    -0.398 OA
HETATM   19  H           1     -24.336  -7.819 -19.505  0.00  0.00     0.209 HD
ENDBRANCH  17  18
ENDBRANCH  16  17
BRANCH  16  20
HETATM   20  N           1     -25.239  -7.315 -16.222  0.00  0.00    -0.064 N 
HETATM   21  H           1     -24.203  -7.194 -16.289  0.00  0.00     0.275 HD
HETATM   22  H           1     -25.494  -8.293 -16.489  0.00  0.00     0.275 HD
HETATM   23  H           1     -25.548  -7.131 -15.241  0.00  0.00     0.275 HD
ENDBRANCH  16  20
ENDBRANCH   4  16
TORSDOF 9
ENDMDL
MODEL 6
REMARK VINA RESULT:      -5.5     10.600     12.679
REMARK  9 active torsions:
REMARK  status: ('A' for Active; 'I' for Inactive)
REMARK    1  A    between atoms: N_1  and  C_5 
REMARK       I    between atoms: N_1  and  C_23 
REMARK    2  A    between atoms: C_2  and  C_18 
REMARK    3  A    between atoms: C_2  and  O_3 
REMARK    4  A    between atoms: C_4  and  C_10 
REMARK    5  A    between atoms: C_4  and  C_5 
REMARK    6  A    between atoms: C_5  and  C_16 
REMARK       I    between atoms: N_6  and  C_21 
REMARK    7  A    between atoms: C_10  and  C_21 
REMARK    8  A    between atoms: C_18  and  C_23 
REMARK    9  A    between atoms: C_18  and  N_22 
ROOT
HETATM    1  N           1     -27.475  -7.244 -19.213  0.00  0.00    -0.345 N 
HETATM    2  O           1     -28.470  -5.248 -19.097  0.00  0.00    -0.271 OA
HETATM    3  H           1     -27.393  -8.185 -18.847  0.00  0.00     0.163 HD
HETATM    4  C           1     -28.372  -6.370 -18.661  0.00  0.00     0.251 C 
ENDROOT
BRANCH   1   5
HETATM    5  C           1     -26.639  -6.823 -20.321  0.00  0.00     0.186 C 
BRANCH   5   6
HETATM    6  C           1     -25.315  -6.296 -19.786  0.00  0.00     0.045 C 
BRANCH   6   7
HETATM    7  C           1     -24.583  -7.411 -19.052  0.00  0.00     0.105 C 
BRANCH   7   8
HETATM    8  C           1     -24.611  -7.141 -17.568  0.00  0.00     0.215 C 
HETATM    9  N           1     -23.898  -7.939 -16.713  0.00  0.00    -0.370 N 
HETATM   10  H           1     -23.352  -8.710 -17.077  0.00  0.00     0.159 HD
HETATM   11  H           1     -23.917  -7.758 -15.718  0.00  0.00     0.159 HD
HETATM   12  O           1     -25.263  -6.221 -17.133  0.00  0.00    -0.274 OA
ENDBRANCH   7   8
ENDBRANCH   6   7
ENDBRANCH   5   6
BRANCH   5  13
HETATM   13  C           1     -26.383  -7.999 -21.231  0.00  0.00     0.196 C 
HETATM   14  O           1     -25.279  -8.117 -21.805  0.00  0.00    -0.646 OA
HETATM   15  O           1     -27.275  -8.857 -21.408  0.00  0.00    -0.646 OA
ENDBRANCH   5  13
ENDBRANCH   1   5
BRANCH   4  16
HETATM   16  C           1     -29.241  -6.809 -17.507  0.00  0.00     0.297 C 
BRANCH  16  17
HETATM   17  C           1     -28.522  -6.529 -16.195  0.00  0.00     0.206 C 
BRANCH  17  18
HETATM   18  O           1     -27.568  -7.528 -15.960  0.00  0.00    -0.398 OA
HETATM   19  H           1     -26.983  -7.528 -16.698  0.00  0.00     0.209 HD
ENDBRANCH  17  18
ENDBRANCH  16  17
BRANCH  16  20
HETATM   20  N           1     -29.517  -8.279 -17.622  0.00  0.00    -0.064 N 
HETATM   21  H           1     -30.093  -8.590 -16.808  0.00  0.00     0.275 HD
HETATM   22  H           1     -28.612  -8.803 -17.629  0.00  0.00     0.275 HD
HETATM   23  H           1     -30.036  -8.469 -18.509  0.00  0.00     0.275 HD
ENDBRANCH  16  20
ENDBRANCH   4  16
TORSDOF 9
ENDMDL
MODEL 7
REMARK VINA RESULT:      -5.3     25.122     26.416
REMARK  9 active torsions:
REMARK  status: ('A' for Active; 'I' for Inactive)
REMARK    1  A    between atoms: N_1  and  C_5 
REMARK       I    between atoms: N_1  and  C_23 
REMARK    2  A    between atoms: C_2  and  C_18 
REMARK    3  A    between atoms: C_2  and  O_3 
REMARK    4  A    between atoms: C_4  and  C_10 
REMARK    5  A    between atoms: C_4  and  C_5 
REMARK    6  A    between atoms: C_5  and  C_16 
REMARK       I    between atoms: N_6  and  C_21 
REMARK    7  A    between atoms: C_10  and  C_21 
REMARK    8  A    between atoms: C_18  and  C_23 
REMARK    9  A    between atoms: C_18  and  N_22 
ROOT
HETATM    1  N           1     -12.540   6.917 -19.832  0.00  0.00    -0.345 N 
HETATM    2  O           1     -11.576   7.709 -21.684  0.00  0.00    -0.271 OA
HETATM    3  H           1     -12.863   7.095 -18.889  0.00  0.00     0.163 HD
HETATM    4  C           1     -11.961   7.922 -20.560  0.00  0.00     0.251 C 
ENDROOT
BRANCH   1   5
HETATM    5  C           1     -12.690   5.596 -20.411  0.00  0.00     0.186 C 
BRANCH   5   6
HETATM    6  C           1     -11.944   4.580 -19.557  0.00  0.00     0.045 C 
BRANCH   6   7
HETATM    7  C           1     -10.530   4.404 -20.095  0.00  0.00     0.105 C 
BRANCH   7   8
HETATM    8  C           1      -9.618   5.425 -19.458  0.00  0.00     0.215 C 
HETATM    9  N           1      -9.526   5.503 -18.094  0.00  0.00    -0.370 N 
HETATM   10  H           1     -10.069   4.876 -17.513  0.00  0.00     0.159 HD
HETATM   11  H           1      -8.916   6.187 -17.666  0.00  0.00     0.159 HD
HETATM   12  O           1      -8.970   6.173 -20.151  0.00  0.00    -0.274 OA
ENDBRANCH   7   8
ENDBRANCH   6   7
ENDBRANCH   5   6
BRANCH   5  13
HETATM   13  C           1     -14.154   5.234 -20.461  0.00  0.00     0.196 C 
HETATM   14  O           1     -14.645   4.756 -21.507  0.00  0.00    -0.646 OA
HETATM   15  O           1     -14.876   5.410 -19.456  0.00  0.00    -0.646 OA
ENDBRANCH   5  13
ENDBRANCH   1   5
BRANCH   4  16
HETATM   16  C           1     -11.806   9.297 -19.956  0.00  0.00     0.297 C 
BRANCH  16  17
HETATM   17  C           1     -10.419   9.426 -19.341  0.00  0.00     0.206 C 
BRANCH  17  18
HETATM   18  O           1     -10.265   8.470 -18.328  0.00  0.00    -0.398 OA
HETATM   19  H           1      -9.415   8.081 -18.444  0.00  0.00     0.209 HD
ENDBRANCH  17  18
ENDBRANCH  16  17
BRANCH  16  20
HETATM   20  N           1     -12.845   9.496 -18.893  0.00  0.00    -0.064 N 
HETATM   21  H           1     -12.394   9.880 -18.034  0.00  0.00     0.275 HD
HETATM   22  H           1     -13.295   8.579 -18.671  0.00  0.00     0.275 HD
HETATM   23  H           1     -13.571  10.165 -19.236  0.00  0.00     0.275 HD
ENDBRANCH  16  20
ENDBRANCH   4  16
TORSDOF 9
ENDMDL
MODEL 8
REMARK VINA RESULT:      -5.3      2.208      3.859
REMARK  9 active torsions:
REMARK  status: ('A' for Active; 'I' for Inactive)
REMARK    1  A    between atoms: N_1  and  C_5 
REMARK       I    between atoms: N_1  and  C_23 
REMARK    2  A    between atoms: C_2  and  C_18 
REMARK    3  A    between atoms: C_2  and  O_3 
REMARK    4  A    between atoms: C_4  and  C_10 
REMARK    5  A    between atoms: C_4  and  C_5 
REMARK    6  A    between atoms: C_5  and  C_16 
REMARK       I    between atoms: N_6  and  C_21 
REMARK    7  A    between atoms: C_10  and  C_21 
REMARK    8  A    between atoms: C_18  and  C_23 
REMARK    9  A    between atoms: C_18  and  N_22 
ROOT
HETATM    1  N           1     -35.241  -2.022 -12.538  0.00  0.00    -0.345 N 
HETATM    2  O           1     -35.874  -3.612 -11.104  0.00  0.00    -0.271 OA
HETATM    3  H           1     -34.590  -1.720 -13.252  0.00  0.00     0.163 HD
HETATM    4  C           1     -35.098  -3.253 -11.956  0.00  0.00     0.251 C 
ENDROOT
BRANCH   1   5
HETATM    5  C           1     -36.325  -1.148 -12.131  0.00  0.00     0.186 C 
BRANCH   5   6
HETATM    6  C           1     -35.824  -0.179 -11.069  0.00  0.00     0.045 C 
BRANCH   6   7
HETATM    7  C           1     -36.585  -0.409  -9.770  0.00  0.00     0.105 C 
BRANCH   7   8
HETATM    8  C           1     -37.093   0.911  -9.244  0.00  0.00     0.215 C 
HETATM    9  N           1     -36.460   1.518  -8.193  0.00  0.00    -0.370 N 
HETATM   10  H           1     -35.651   1.082  -7.769  0.00  0.00     0.159 HD
HETATM   11  H           1     -36.800   2.403  -7.840  0.00  0.00     0.159 HD
HETATM   12  O           1     -38.059   1.432  -9.750  0.00  0.00    -0.274 OA
ENDBRANCH   7   8
ENDBRANCH   6   7
ENDBRANCH   5   6
BRANCH   5  13
HETATM   13  C           1     -36.821  -0.374 -13.327  0.00  0.00     0.196 C 
HETATM   14  O           1     -37.967  -0.586 -13.778  0.00  0.00    -0.646 OA
HETATM   15  O           1     -36.084   0.481 -13.866  0.00  0.00    -0.646 OA
ENDBRANCH   5  13
ENDBRANCH   1   5
BRANCH   4  16
HETATM   16  C           1     -33.970  -4.161 -12.380  0.00  0.00     0.297 C 
BRANCH  16  17
HETATM   17  C           1     -32.692  -3.754 -11.659  0.00  0.00     0.206 C 
BRANCH  17  18
HETATM   18  O           1     -32.927  -2.594 -10.907  0.00  0.00    -0.398 OA
HETATM   19  H           1     -33.861  -2.482 -10.861  0.00  0.00     0.209 HD
ENDBRANCH  17  18
ENDBRANCH  16  17
BRANCH  16  20
HETATM   20  N           1     -33.766  -4.046 -13.862  0.00  0.00    -0.064 N 
HETATM   21  H           1     -33.931  -3.058 -14.159  0.00  0.00     0.275 HD
HETATM   22  H           1     -34.439  -4.676 -14.355  0.00  0.00     0.275 HD
HETATM   23  H           1     -32.788  -4.324 -14.102  0.00  0.00     0.275 HD
ENDBRANCH  16  20
ENDBRANCH   4  16
TORSDOF 9
ENDMDL
MODEL 9
REMARK VINA RESULT:      -5.2      2.444      3.747
REMARK  9 active torsions:
REMARK  status: ('A' for Active; 'I' for Inactive)
REMARK    1  A    between atoms: N_1  and  C_5 
REMARK       I    between atoms: N_1  and  C_23 
REMARK    2  A    between atoms: C_2  and  C_18 
REMARK    3  A    between atoms: C_2  and  O_3 
REMARK    4  A    between atoms: C_4  and  C_10 
REMARK    5  A    between atoms: C_4  and  C_5 
REMARK    6  A    between atoms: C_5  and  C_16 
REMARK       I    between atoms: N_6  and  C_21 
REMARK    7  A    between atoms: C_10  and  C_21 
REMARK    8  A    between atoms: C_18  and  C_23 
REMARK    9  A    between atoms: C_18  and  N_22 
ROOT
HETATM    1  N           1     -34.744  -3.108 -11.943  0.00  0.00    -0.345 N 
HETATM    2  O           1     -36.204  -4.326 -10.772  0.00  0.00    -0.271 OA
HETATM    3  H           1     -33.875  -3.075 -12.461  0.00  0.00     0.163 HD
HETATM    4  C           1     -35.167  -4.286 -11.390  0.00  0.00     0.251 C 
ENDROOT
BRANCH   1   5
HETATM    5  C           1     -35.540  -1.906 -11.787  0.00  0.00     0.186 C 
BRANCH   5   6
HETATM    6  C           1     -35.301  -1.315 -10.404  0.00  0.00     0.045 C 
BRANCH   6   7
HETATM    7  C           1     -36.639  -1.072  -9.718  0.00  0.00     0.105 C 
BRANCH   7   8
HETATM    8  C           1     -37.054   0.365  -9.919  0.00  0.00     0.215 C 
HETATM    9  N           1     -36.452   1.359  -9.195  0.00  0.00    -0.370 N 
HETATM   10  H           1     -35.728   1.131  -8.525  0.00  0.00     0.159 HD
HETATM   11  H           1     -36.730   2.323  -9.330  0.00  0.00     0.159 HD
HETATM   12  O           1     -37.918   0.638 -10.719  0.00  0.00    -0.274 OA
ENDBRANCH   7   8
ENDBRANCH   6   7
ENDBRANCH   5   6
BRANCH   5  13
HETATM   13  C           1     -35.141  -0.901 -12.840  0.00  0.00     0.196 C 
HETATM   14  O           1     -35.179  -1.214 -14.050  0.00  0.00    -0.646 OA
HETATM   15  O           1     -34.774   0.246 -12.502  0.00  0.00    -0.646 OA
ENDBRANCH   5  13
ENDBRANCH   1   5
BRANCH   4  16
HETATM   16  C           1     -34.338  -5.537 -11.552  0.00  0.00     0.297 C 
BRANCH  16  17
HETATM   17  C           1     -34.518  -6.427 -10.330  0.00  0.00     0.206 C 
BRANCH  17  18
HETATM   18  O           1     -34.547  -7.771 -10.729  0.00  0.00    -0.398 OA
HETATM   19  H           1     -34.975  -7.799 -11.568  0.00  0.00     0.209 HD
ENDBRANCH  17  18
ENDBRANCH  16  17
BRANCH  16  20
HETATM   20  N           1     -32.892  -5.163 -11.690  0.00  0.00    -0.064 N 
HETATM   21  H           1     -32.461  -5.718 -12.463  0.00  0.00     0.275 HD
HETATM   22  H           1     -32.393  -5.366 -10.794  0.00  0.00     0.275 HD
HETATM   23  H           1     -32.815  -4.144 -11.907  0.00  0.00     0.275 HD
ENDBRANCH  16  20
ENDBRANCH   4  16
TORSDOF 9
ENDMDL
