MODEL 1
REMARK VINA RESULT:      -7.3      0.000      0.000
REMARK  9 active torsions:
REMARK  status: ('A' for Active; 'I' for Inactive)
REMARK    1  A    between atoms: N_1  and  C_17 
REMARK    2  A    between atoms: O_4  and  C_12 
REMARK    3  A    between atoms: C_8  and  C_13 
REMARK    4  A    between atoms: C_13  and  C_17 
REMARK    5  A    between atoms: N_15  and  C_21 
REMARK       I    between atoms: N_15  and  C_16 
REMARK    6  A    between atoms: C_16  and  C_17 
REMARK    7  A    between atoms: C_20  and  C_26 
REMARK    8  A    between atoms: C_20  and  C_21 
REMARK    9  A    between atoms: C_21  and  C_22 
ROOT
HETATM    1  O           1     -20.455  -7.566  -6.019  0.00  0.00    -0.271 OA
HETATM    2  H           1     -22.326  -5.178  -5.218  0.00  0.00     0.163 HD
HETATM    3  N           1     -21.644  -5.693  -5.760  0.00  0.00    -0.344 N 
HETATM    4  C           1     -21.269  -6.951  -5.372  0.00  0.00     0.249 C 
ENDROOT
BRANCH   3   5
HETATM    5  C           1     -21.063  -5.099  -6.949  0.00  0.00     0.189 C 
BRANCH   5   6
HETATM    6  C           1     -21.910  -3.910  -7.387  0.00  0.00     0.074 C 
BRANCH   6   7
HETATM    7  C           1     -22.367  -4.115  -8.797  0.00  0.00    -0.056 A 
HETATM    8  C           1     -21.429  -4.228  -9.824  0.00  0.00     0.010 A 
HETATM    9  C           1     -21.854  -4.420 -11.139  0.00  0.00     0.037 A 
HETATM   10  C           1     -23.216  -4.498 -11.427  0.00  0.00     0.065 A 
HETATM   11  C           1     -24.154  -4.385 -10.400  0.00  0.00     0.037 A 
HETATM   12  C           1     -23.729  -4.194  -9.085  0.00  0.00     0.010 A 
BRANCH  10  13
HETATM   13  O           1     -23.630  -4.684 -12.704  0.00  0.00    -0.361 OA
HETATM   14  H           1     -23.932  -3.828 -13.050  0.00  0.00     0.217 HD
ENDBRANCH  10  13
ENDBRANCH   6   7
ENDBRANCH   5   6
BRANCH   5  15
HETATM   15  C           1     -19.661  -4.634  -6.645  0.00  0.00     0.197 C 
HETATM   16  O           1     -19.337  -4.352  -5.471  0.00  0.00    -0.646 OA
HETATM   17  O           1     -18.822  -4.531  -7.566  0.00  0.00    -0.646 OA
ENDBRANCH   5  15
ENDBRANCH   3   5
BRANCH   4  18
HETATM   18  C           1     -21.874  -7.570  -4.135  0.00  0.00     0.278 C 
BRANCH  18  19
HETATM   19  N           1     -21.678  -9.056  -4.173  0.00  0.00    -0.066 N 
HETATM   20  H           1     -21.097  -9.311  -5.004  0.00  0.00     0.275 HD
HETATM   21  H           1     -21.192  -9.365  -3.301  0.00  0.00     0.275 HD
HETATM   22  H           1     -22.608  -9.529  -4.240  0.00  0.00     0.275 HD
ENDBRANCH  18  19
BRANCH  18  23
HETATM   23  C           1     -21.193  -7.000  -2.897  0.00  0.00     0.021 C 
HETATM   24  C           1     -22.199  -6.191  -2.090  0.00  0.00     0.012 C 
BRANCH  23  25
HETATM   25  C           1     -20.659  -8.143  -2.042  0.00  0.00     0.002 C 
HETATM   26  C           1     -21.282  -8.073  -0.654  0.00  0.00     0.005 C 
ENDBRANCH  23  25
ENDBRANCH  18  23
ENDBRANCH   4  18
TORSDOF 9
ENDMDL
MODEL 2
REMARK VINA RESULT:      -6.8      2.435      7.412
REMARK  9 active torsions:
REMARK  status: ('A' for Active; 'I' for Inactive)
REMARK    1  A    between atoms: N_1  and  C_17 
REMARK    2  A    between atoms: O_4  and  C_12 
REMARK    3  A    between atoms: C_8  and  C_13 
REMARK    4  A    between atoms: C_13  and  C_17 
REMARK    5  A    between atoms: N_15  and  C_21 
REMARK       I    between atoms: N_15  and  C_16 
REMARK    6  A    between atoms: C_16  and  C_17 
REMARK    7  A    between atoms: C_20  and  C_26 
REMARK    8  A    between atoms: C_20  and  C_21 
REMARK    9  A    between atoms: C_21  and  C_22 
ROOT
HETATM    1  O           1     -20.301  -4.792  -4.847  0.00  0.00    -0.271 OA
HETATM    2  H           1     -20.205  -7.051  -7.021  0.00  0.00     0.163 HD
HETATM    3  N           1     -20.203  -6.641  -6.097  0.00  0.00    -0.344 N 
HETATM    4  C           1     -20.304  -5.283  -5.950  0.00  0.00     0.249 C 
ENDROOT
BRANCH   3   5
HETATM    5  C           1     -20.092  -7.489  -4.926  0.00  0.00     0.189 C 
BRANCH   5   6
HETATM    6  C           1     -21.453  -8.094  -4.609  0.00  0.00     0.074 C 
BRANCH   6   7
HETATM    7  C           1     -21.707  -8.009  -3.136  0.00  0.00    -0.056 A 
HETATM    8  C           1     -21.674  -9.164  -2.355  0.00  0.00     0.010 A 
HETATM    9  C           1     -21.910  -9.085  -0.982  0.00  0.00     0.037 A 
HETATM   10  C           1     -22.177  -7.850  -0.391  0.00  0.00     0.065 A 
HETATM   11  C           1     -22.208  -6.694  -1.171  0.00  0.00     0.037 A 
HETATM   12  C           1     -21.973  -6.774  -2.545  0.00  0.00     0.010 A 
BRANCH  10  13
HETATM   13  O           1     -22.406  -7.773   0.943  0.00  0.00    -0.361 OA
HETATM   14  H           1     -21.595  -7.447   1.368  0.00  0.00     0.217 HD
ENDBRANCH  10  13
ENDBRANCH   6   7
ENDBRANCH   5   6
BRANCH   5  15
HETATM   15  C           1     -19.101  -8.594  -5.197  0.00  0.00     0.197 C 
HETATM   16  O           1     -18.801  -9.401  -4.291  0.00  0.00    -0.646 OA
HETATM   17  O           1     -18.579  -8.702  -6.329  0.00  0.00    -0.646 OA
ENDBRANCH   5  15
ENDBRANCH   3   5
BRANCH   4  18
HETATM   18  C           1     -20.419  -4.400  -7.168  0.00  0.00     0.278 C 
BRANCH  18  19
HETATM   19  N           1     -19.119  -4.408  -7.916  0.00  0.00    -0.066 N 
HETATM   20  H           1     -18.483  -5.127  -7.503  0.00  0.00     0.275 HD
HETATM   21  H           1     -19.296  -4.637  -8.920  0.00  0.00     0.275 HD
HETATM   22  H           1     -18.671  -3.466  -7.847  0.00  0.00     0.275 HD
ENDBRANCH  18  19
BRANCH  18  23
HETATM   23  C           1     -21.527  -4.923  -8.073  0.00  0.00     0.021 C 
HETATM   24  C           1     -22.872  -4.406  -7.579  0.00  0.00     0.012 C 
BRANCH  23  25
HETATM   25  C           1     -21.290  -4.437  -9.497  0.00  0.00     0.002 C 
HETATM   26  C           1     -22.620  -4.053 -10.132  0.00  0.00     0.005 C 
ENDBRANCH  23  25
ENDBRANCH  18  23
ENDBRANCH   4  18
TORSDOF 9
ENDMDL
MODEL 3
REMARK VINA RESULT:      -6.7      2.254      7.864
REMARK  9 active torsions:
REMARK  status: ('A' for Active; 'I' for Inactive)
REMARK    1  A    between atoms: N_1  and  C_17 
REMARK    2  A    between atoms: O_4  and  C_12 
REMARK    3  A    between atoms: C_8  and  C_13 
REMARK    4  A    between atoms: C_13  and  C_17 
REMARK    5  A    between atoms: N_15  and  C_21 
REMARK       I    between atoms: N_15  and  C_16 
REMARK    6  A    between atoms: C_16  and  C_17 
REMARK    7  A    between atoms: C_20  and  C_26 
REMARK    8  A    between atoms: C_20  and  C_21 
REMARK    9  A    between atoms: C_21  and  C_22 
ROOT
HETATM    1  O           1     -20.081  -6.489  -7.032  0.00  0.00    -0.271 OA
HETATM    2  H           1     -21.151  -4.198  -5.175  0.00  0.00     0.163 HD
HETATM    3  N           1     -20.888  -5.135  -5.449  0.00  0.00    -0.344 N 
HETATM    4  C           1     -20.396  -5.370  -6.705  0.00  0.00     0.249 C 
ENDROOT
BRANCH   3   5
HETATM    5  C           1     -21.031  -6.232  -4.510  0.00  0.00     0.189 C 
BRANCH   5   6
HETATM    6  C           1     -21.105  -5.680  -3.093  0.00  0.00     0.074 C 
BRANCH   6   7
HETATM    7  C           1     -21.277  -6.809  -2.125  0.00  0.00    -0.056 A 
HETATM    8  C           1     -22.318  -6.780  -1.198  0.00  0.00     0.010 A 
HETATM    9  C           1     -22.479  -7.832  -0.296  0.00  0.00     0.037 A 
HETATM   10  C           1     -21.598  -8.913  -0.323  0.00  0.00     0.065 A 
HETATM   11  C           1     -20.558  -8.944  -1.251  0.00  0.00     0.037 A 
HETATM   12  C           1     -20.397  -7.891  -2.153  0.00  0.00     0.010 A 
BRANCH  10  13
HETATM   13  O           1     -21.754  -9.936   0.553  0.00  0.00    -0.361 OA
HETATM   14  H           1     -22.675 -10.241   0.498  0.00  0.00     0.217 HD
ENDBRANCH  10  13
ENDBRANCH   6   7
ENDBRANCH   5   6
BRANCH   5  15
HETATM   15  C           1     -22.293  -6.998  -4.820  0.00  0.00     0.197 C 
HETATM   16  O           1     -22.249  -8.237  -4.981  0.00  0.00    -0.646 OA
HETATM   17  O           1     -23.383  -6.394  -4.916  0.00  0.00    -0.646 OA
ENDBRANCH   5  15
ENDBRANCH   3   5
BRANCH   4  18
HETATM   18  C           1     -20.248  -4.229  -7.681  0.00  0.00     0.278 C 
BRANCH  18  19
HETATM   19  N           1     -18.804  -4.078  -8.058  0.00  0.00    -0.066 N 
HETATM   20  H           1     -18.333  -3.430  -7.387  0.00  0.00     0.275 HD
HETATM   21  H           1     -18.337  -5.012  -8.026  0.00  0.00     0.275 HD
HETATM   22  H           1     -18.735  -3.687  -9.026  0.00  0.00     0.275 HD
ENDBRANCH  18  19
BRANCH  18  23
HETATM   23  C           1     -21.070  -4.518  -8.930  0.00  0.00     0.021 C 
HETATM   24  C           1     -22.404  -3.787  -8.841  0.00  0.00     0.012 C 
BRANCH  23  25
HETATM   25  C           1     -20.310  -4.036 -10.159  0.00  0.00     0.002 C 
HETATM   26  C           1     -21.287  -3.416 -11.150  0.00  0.00     0.005 C 
ENDBRANCH  23  25
ENDBRANCH  18  23
ENDBRANCH   4  18
TORSDOF 9
ENDMDL
MODEL 4
REMARK VINA RESULT:      -6.6      2.686      7.680
REMARK  9 active torsions:
REMARK  status: ('A' for Active; 'I' for Inactive)
REMARK    1  A    between atoms: N_1  and  C_17 
REMARK    2  A    between atoms: O_4  and  C_12 
REMARK    3  A    between atoms: C_8  and  C_13 
REMARK    4  A    between atoms: C_13  and  C_17 
REMARK    5  A    between atoms: N_15  and  C_21 
REMARK       I    between atoms: N_15  and  C_16 
REMARK    6  A    between atoms: C_16  and  C_17 
REMARK    7  A    between atoms: C_20  and  C_26 
REMARK    8  A    between atoms: C_20  and  C_21 
REMARK    9  A    between atoms: C_21  and  C_22 
ROOT
HETATM    1  O           1     -20.896  -5.523  -4.455  0.00  0.00    -0.271 OA
HETATM    2  H           1     -21.125  -8.060  -6.286  0.00  0.00     0.163 HD
HETATM    3  N           1     -20.919  -7.520  -5.457  0.00  0.00    -0.344 N 
HETATM    4  C           1     -21.142  -6.169  -5.445  0.00  0.00     0.249 C 
ENDROOT
BRANCH   3   5
HETATM    5  C           1     -20.386  -8.175  -4.278  0.00  0.00     0.189 C 
BRANCH   5   6
HETATM    6  C           1     -21.382  -9.216  -3.783  0.00  0.00     0.074 C 
BRANCH   6   7
HETATM    7  C           1     -21.820  -8.867  -2.394  0.00  0.00    -0.056 A 
HETATM    8  C           1     -21.724  -7.550  -1.943  0.00  0.00     0.010 A 
HETATM    9  C           1     -22.132  -7.224  -0.650  0.00  0.00     0.037 A 
HETATM   10  C           1     -22.637  -8.215   0.193  0.00  0.00     0.065 A 
HETATM   11  C           1     -22.734  -9.532  -0.258  0.00  0.00     0.037 A 
HETATM   12  C           1     -22.326  -9.858  -1.553  0.00  0.00     0.010 A 
BRANCH  10  13
HETATM   13  O           1     -23.034  -7.899   1.449  0.00  0.00    -0.361 OA
HETATM   14  H           1     -22.287  -7.472   1.901  0.00  0.00     0.217 HD
ENDBRANCH  10  13
ENDBRANCH   6   7
ENDBRANCH   5   6
BRANCH   5  15
HETATM   15  C           1     -19.082  -8.851  -4.624  0.00  0.00     0.197 C 
HETATM   16  O           1     -18.776  -9.042  -5.821  0.00  0.00    -0.646 OA
HETATM   17  O           1     -18.307  -9.219  -3.714  0.00  0.00    -0.646 OA
ENDBRANCH   5  15
ENDBRANCH   3   5
BRANCH   4  18
HETATM   18  C           1     -21.697  -5.487  -6.672  0.00  0.00     0.278 C 
BRANCH  18  19
HETATM   19  N           1     -23.096  -5.024  -6.397  0.00  0.00    -0.066 N 
HETATM   20  H           1     -23.115  -4.477  -5.506  0.00  0.00     0.275 HD
HETATM   21  H           1     -23.424  -4.419  -7.183  0.00  0.00     0.275 HD
HETATM   22  H           1     -23.727  -5.854  -6.309  0.00  0.00     0.275 HD
ENDBRANCH  18  19
BRANCH  18  23
HETATM   23  C           1     -20.826  -4.287  -7.024  0.00  0.00     0.021 C 
HETATM   24  C           1     -19.433  -4.766  -7.411  0.00  0.00     0.012 C 
BRANCH  23  25
HETATM   25  C           1     -21.448  -3.536  -8.194  0.00  0.00     0.002 C 
HETATM   26  C           1     -21.031  -4.198  -9.501  0.00  0.00     0.005 C 
ENDBRANCH  23  25
ENDBRANCH  18  23
ENDBRANCH   4  18
TORSDOF 9
ENDMDL
MODEL 5
REMARK VINA RESULT:      -6.4      1.894      2.436
REMARK  9 active torsions:
REMARK  status: ('A' for Active; 'I' for Inactive)
REMARK    1  A    between atoms: N_1  and  C_17 
REMARK    2  A    between atoms: O_4  and  C_12 
REMARK    3  A    between atoms: C_8  and  C_13 
REMARK    4  A    between atoms: C_13  and  C_17 
REMARK    5  A    between atoms: N_15  and  C_21 
REMARK       I    between atoms: N_15  and  C_16 
REMARK    6  A    between atoms: C_16  and  C_17 
REMARK    7  A    between atoms: C_20  and  C_26 
REMARK    8  A    between atoms: C_20  and  C_21 
REMARK    9  A    between atoms: C_21  and  C_22 
ROOT
HETATM    1  O           1     -20.891  -6.955  -7.109  0.00  0.00    -0.271 OA
HETATM    2  H           1     -21.055  -3.850  -6.691  0.00  0.00     0.163 HD
HETATM    3  N           1     -21.107  -4.733  -7.182  0.00  0.00    -0.344 N 
HETATM    4  C           1     -20.829  -5.900  -6.523  0.00  0.00     0.249 C 
ENDROOT
BRANCH   3   5
HETATM    5  C           1     -21.477  -4.763  -8.584  0.00  0.00     0.189 C 
BRANCH   5   6
HETATM    6  C           1     -22.609  -3.774  -8.831  0.00  0.00     0.074 C 
BRANCH   6   7
HETATM    7  C           1     -22.969  -3.779 -10.284  0.00  0.00    -0.056 A 
HETATM    8  C           1     -22.699  -2.661 -11.073  0.00  0.00     0.010 A 
HETATM    9  C           1     -23.033  -2.666 -12.427  0.00  0.00     0.037 A 
HETATM   10  C           1     -23.638  -3.789 -12.992  0.00  0.00     0.065 A 
HETATM   11  C           1     -23.908  -4.908 -12.204  0.00  0.00     0.037 A 
HETATM   12  C           1     -23.572  -4.903 -10.848  0.00  0.00     0.010 A 
BRANCH  10  13
HETATM   13  O           1     -23.963  -3.794 -14.308  0.00  0.00    -0.361 OA
HETATM   14  H           1     -24.911  -3.593 -14.384  0.00  0.00     0.217 HD
ENDBRANCH  10  13
ENDBRANCH   6   7
ENDBRANCH   5   6
BRANCH   5  15
HETATM   15  C           1     -20.284  -4.385  -9.427  0.00  0.00     0.197 C 
HETATM   16  O           1     -19.568  -3.415  -9.096  0.00  0.00    -0.646 OA
HETATM   17  O           1     -20.011  -5.041 -10.455  0.00  0.00    -0.646 OA
ENDBRANCH   5  15
ENDBRANCH   3   5
BRANCH   4  18
HETATM   18  C           1     -20.444  -5.869  -5.064  0.00  0.00     0.278 C 
BRANCH  18  19
HETATM   19  N           1     -20.039  -4.476  -4.684  0.00  0.00    -0.066 N 
HETATM   20  H           1     -19.676  -4.473  -3.704  0.00  0.00     0.275 HD
HETATM   21  H           1     -19.291  -4.142  -5.333  0.00  0.00     0.275 HD
HETATM   22  H           1     -20.868  -3.841  -4.750  0.00  0.00     0.275 HD
ENDBRANCH  18  19
BRANCH  18  23
HETATM   23  C           1     -21.633  -6.300  -4.215  0.00  0.00     0.021 C 
HETATM   24  C           1     -21.748  -7.818  -4.235  0.00  0.00     0.012 C 
BRANCH  23  25
HETATM   25  C           1     -21.430  -5.826  -2.782  0.00  0.00     0.002 C 
HETATM   26  C           1     -22.357  -6.601  -1.854  0.00  0.00     0.005 C 
ENDBRANCH  23  25
ENDBRANCH  18  23
ENDBRANCH   4  18
TORSDOF 9
ENDMDL
MODEL 6
REMARK VINA RESULT:      -6.4      5.583      8.465
REMARK  9 active torsions:
REMARK  status: ('A' for Active; 'I' for Inactive)
REMARK    1  A    between atoms: N_1  and  C_17 
REMARK    2  A    between atoms: O_4  and  C_12 
REMARK    3  A    between atoms: C_8  and  C_13 
REMARK    4  A    between atoms: C_13  and  C_17 
REMARK    5  A    between atoms: N_15  and  C_21 
REMARK       I    between atoms: N_15  and  C_16 
REMARK    6  A    between atoms: C_16  and  C_17 
REMARK    7  A    between atoms: C_20  and  C_26 
REMARK    8  A    between atoms: C_20  and  C_21 
REMARK    9  A    between atoms: C_21  and  C_22 
ROOT
HETATM    1  O           1     -21.814  -9.682  -4.054  0.00  0.00    -0.271 OA
HETATM    2  H           1     -19.792  -8.055  -2.292  0.00  0.00     0.163 HD
HETATM    3  N           1     -20.688  -8.376  -2.634  0.00  0.00    -0.344 N 
HETATM    4  C           1     -20.744  -9.298  -3.645  0.00  0.00     0.249 C 
ENDROOT
BRANCH   3   5
HETATM    5  C           1     -21.913  -7.860  -2.055  0.00  0.00     0.189 C 
BRANCH   5   6
HETATM    6  C           1     -21.859  -8.009  -0.540  0.00  0.00     0.074 C 
BRANCH   6   7
HETATM    7  C           1     -22.084  -9.442  -0.170  0.00  0.00    -0.056 A 
HETATM    8  C           1     -21.041 -10.194   0.371  0.00  0.00     0.010 A 
HETATM    9  C           1     -21.249 -11.530   0.716  0.00  0.00     0.037 A 
HETATM   10  C           1     -22.501 -12.113   0.520  0.00  0.00     0.065 A 
HETATM   11  C           1     -23.545 -11.361  -0.020  0.00  0.00     0.037 A 
HETATM   12  C           1     -23.336 -10.024  -0.365  0.00  0.00     0.010 A 
BRANCH  10  13
HETATM   13  O           1     -22.705 -13.410   0.855  0.00  0.00    -0.361 OA
HETATM   14  H           1     -23.204 -13.831   0.136  0.00  0.00     0.217 HD
ENDBRANCH  10  13
ENDBRANCH   6   7
ENDBRANCH   5   6
BRANCH   5  15
HETATM   15  C           1     -22.064  -6.402  -2.413  0.00  0.00     0.197 C 
HETATM   16  O           1     -22.298  -5.560  -1.519  0.00  0.00    -0.646 OA
HETATM   17  O           1     -21.955  -6.036  -3.603  0.00  0.00    -0.646 OA
ENDBRANCH   5  15
ENDBRANCH   3   5
BRANCH   4  18
HETATM   18  C           1     -19.469  -9.834  -4.248  0.00  0.00     0.278 C 
BRANCH  18  19
HETATM   19  N           1     -19.070  -8.979  -5.414  0.00  0.00    -0.066 N 
HETATM   20  H           1     -19.146  -7.971  -5.150  0.00  0.00     0.275 HD
HETATM   21  H           1     -18.083  -9.195  -5.682  0.00  0.00     0.275 HD
HETATM   22  H           1     -19.702  -9.175  -6.223  0.00  0.00     0.275 HD
ENDBRANCH  18  19
BRANCH  18  23
HETATM   23  C           1     -18.363  -9.812  -3.201  0.00  0.00     0.021 C 
HETATM   24  C           1     -18.431 -11.083  -2.364  0.00  0.00     0.012 C 
BRANCH  23  25
HETATM   25  C           1     -17.010  -9.736  -3.896  0.00  0.00     0.002 C 
HETATM   26  C           1     -15.917  -9.515  -2.858  0.00  0.00     0.005 C 
ENDBRANCH  23  25
ENDBRANCH  18  23
ENDBRANCH   4  18
TORSDOF 9
ENDMDL
MODEL 7
REMARK VINA RESULT:      -6.4      2.266      3.796
REMARK  9 active torsions:
REMARK  status: ('A' for Active; 'I' for Inactive)
REMARK    1  A    between atoms: N_1  and  C_17 
REMARK    2  A    between atoms: O_4  and  C_12 
REMARK    3  A    between atoms: C_8  and  C_13 
REMARK    4  A    between atoms: C_13  and  C_17 
REMARK    5  A    between atoms: N_15  and  C_21 
REMARK       I    between atoms: N_15  and  C_16 
REMARK    6  A    between atoms: C_16  and  C_17 
REMARK    7  A    between atoms: C_20  and  C_26 
REMARK    8  A    between atoms: C_20  and  C_21 
REMARK    9  A    between atoms: C_21  and  C_22 
ROOT
HETATM    1  O           1     -22.595  -6.223  -2.310  0.00  0.00    -0.271 OA
HETATM    2  H           1     -20.469  -8.456  -2.890  0.00  0.00     0.163 HD
HETATM    3  N           1     -21.102  -7.692  -3.087  0.00  0.00    -0.344 N 
HETATM    4  C           1     -21.839  -7.135  -2.076  0.00  0.00     0.249 C 
ENDROOT
BRANCH   3   5
HETATM    5  C           1     -21.230  -7.185  -4.440  0.00  0.00     0.189 C 
BRANCH   5   6
HETATM    6  C           1     -20.494  -5.857  -4.555  0.00  0.00     0.074 C 
BRANCH   6   7
HETATM    7  C           1     -20.720  -5.277  -5.916  0.00  0.00    -0.056 A 
HETATM    8  C           1     -19.634  -4.860  -6.685  0.00  0.00     0.010 A 
HETATM    9  C           1     -19.843  -4.320  -7.955  0.00  0.00     0.037 A 
HETATM   10  C           1     -21.140  -4.197  -8.454  0.00  0.00     0.065 A 
HETATM   11  C           1     -22.227  -4.615  -7.685  0.00  0.00     0.037 A 
HETATM   12  C           1     -22.016  -5.156  -6.416  0.00  0.00     0.010 A 
BRANCH  10  13
HETATM   13  O           1     -21.345  -3.673  -9.687  0.00  0.00    -0.361 OA
HETATM   14  H           1     -21.882  -4.303 -10.196  0.00  0.00     0.217 HD
ENDBRANCH  10  13
ENDBRANCH   6   7
ENDBRANCH   5   6
BRANCH   5  15
HETATM   15  C           1     -20.634  -8.178  -5.407  0.00  0.00     0.197 C 
HETATM   16  O           1     -19.393  -8.312  -5.479  0.00  0.00    -0.646 OA
HETATM   17  O           1     -21.380  -8.867  -6.135  0.00  0.00    -0.646 OA
ENDBRANCH   5  15
ENDBRANCH   3   5
BRANCH   4  18
HETATM   18  C           1     -21.706  -7.663  -0.668  0.00  0.00     0.278 C 
BRANCH  18  19
HETATM   19  N           1     -22.951  -7.343   0.105  0.00  0.00    -0.066 N 
HETATM   20  H           1     -23.728  -7.128  -0.559  0.00  0.00     0.275 HD
HETATM   21  H           1     -23.214  -8.164   0.696  0.00  0.00     0.275 HD
HETATM   22  H           1     -22.777  -6.513   0.718  0.00  0.00     0.275 HD
ENDBRANCH  18  19
BRANCH  18  23
HETATM   23  C           1     -21.507  -9.172  -0.707  0.00  0.00     0.021 C 
HETATM   24  C           1     -20.836  -9.630   0.581  0.00  0.00     0.012 C 
BRANCH  23  25
HETATM   25  C           1     -22.861  -9.858  -0.843  0.00  0.00     0.002 C 
HETATM   26  C           1     -22.820 -10.835  -2.011  0.00  0.00     0.005 C 
ENDBRANCH  23  25
ENDBRANCH  18  23
ENDBRANCH   4  18
TORSDOF 9
ENDMDL
MODEL 8
REMARK VINA RESULT:      -6.3      1.757      2.074
REMARK  9 active torsions:
REMARK  status: ('A' for Active; 'I' for Inactive)
REMARK    1  A    between atoms: N_1  and  C_17 
REMARK    2  A    between atoms: O_4  and  C_12 
REMARK    3  A    between atoms: C_8  and  C_13 
REMARK    4  A    between atoms: C_13  and  C_17 
REMARK    5  A    between atoms: N_15  and  C_21 
REMARK       I    between atoms: N_15  and  C_16 
REMARK    6  A    between atoms: C_16  and  C_17 
REMARK    7  A    between atoms: C_20  and  C_26 
REMARK    8  A    between atoms: C_20  and  C_21 
REMARK    9  A    between atoms: C_21  and  C_22 
ROOT
HETATM    1  O           1     -19.733  -6.701  -6.806  0.00  0.00    -0.271 OA
HETATM    2  H           1     -22.482  -5.454  -5.953  0.00  0.00     0.163 HD
HETATM    3  N           1     -21.672  -5.625  -6.533  0.00  0.00    -0.344 N 
HETATM    4  C           1     -20.701  -6.496  -6.114  0.00  0.00     0.249 C 
ENDROOT
BRANCH   3   5
HETATM    5  C           1     -21.536  -4.950  -7.809  0.00  0.00     0.189 C 
BRANCH   5   6
HETATM    6  C           1     -22.918  -4.618  -8.356  0.00  0.00     0.074 C 
BRANCH   6   7
HETATM    7  C           1     -22.802  -4.199  -9.788  0.00  0.00    -0.056 A 
HETATM    8  C           1     -21.665  -4.537 -10.522  0.00  0.00     0.010 A 
HETATM    9  C           1     -21.555  -4.147 -11.858  0.00  0.00     0.037 A 
HETATM   10  C           1     -22.583  -3.419 -12.457  0.00  0.00     0.065 A 
HETATM   11  C           1     -23.720  -3.081 -11.723  0.00  0.00     0.037 A 
HETATM   12  C           1     -23.830  -3.472 -10.388  0.00  0.00     0.010 A 
BRANCH  10  13
HETATM   13  O           1     -22.478  -3.039 -13.754  0.00  0.00    -0.361 OA
HETATM   14  H           1     -22.042  -2.171 -13.779  0.00  0.00     0.217 HD
ENDBRANCH  10  13
ENDBRANCH   6   7
ENDBRANCH   5   6
BRANCH   5  15
HETATM   15  C           1     -20.749  -3.677  -7.623  0.00  0.00     0.197 C 
HETATM   16  O           1     -21.271  -2.698  -7.047  0.00  0.00    -0.646 OA
HETATM   17  O           1     -19.574  -3.601  -8.044  0.00  0.00    -0.646 OA
ENDBRANCH   5  15
ENDBRANCH   3   5
BRANCH   4  18
HETATM   18  C           1     -20.842  -7.199  -4.785  0.00  0.00     0.278 C 
BRANCH  18  19
HETATM   19  N           1     -22.251  -7.057  -4.292  0.00  0.00    -0.066 N 
HETATM   20  H           1     -22.275  -7.199  -3.257  0.00  0.00     0.275 HD
HETATM   21  H           1     -22.605  -6.100  -4.520  0.00  0.00     0.275 HD
HETATM   22  H           1     -22.857  -7.772  -4.755  0.00  0.00     0.275 HD
ENDBRANCH  18  19
BRANCH  18  23
HETATM   23  C           1     -20.511  -8.676  -4.954  0.00  0.00     0.021 C 
HETATM   24  C           1     -19.224  -8.997  -4.205  0.00  0.00     0.012 C 
BRANCH  23  25
HETATM   25  C           1     -21.649  -9.517  -4.390  0.00  0.00     0.002 C 
HETATM   26  C           1     -21.196 -10.184  -3.098  0.00  0.00     0.005 C 
ENDBRANCH  23  25
ENDBRANCH  18  23
ENDBRANCH   4  18
TORSDOF 9
ENDMDL
MODEL 9
REMARK VINA RESULT:      -6.2      3.433      7.683
REMARK  9 active torsions:
REMARK  status: ('A' for Active; 'I' for Inactive)
REMARK    1  A    between atoms: N_1  and  C_17 
REMARK    2  A    between atoms: O_4  and  C_12 
REMARK    3  A    between atoms: C_8  and  C_13 
REMARK    4  A    between atoms: C_13  and  C_17 
REMARK    5  A    between atoms: N_15  and  C_21 
REMARK       I    between atoms: N_15  and  C_16 
REMARK    6  A    between atoms: C_16  and  C_17 
REMARK    7  A    between atoms: C_20  and  C_26 
REMARK    8  A    between atoms: C_20  and  C_21 
REMARK    9  A    between atoms: C_21  and  C_22 
ROOT
HETATM    1  O           1     -21.169  -7.972  -6.193  0.00  0.00    -0.271 OA
HETATM    2  H           1     -20.590  -6.715  -3.378  0.00  0.00     0.163 HD
HETATM    3  N           1     -20.682  -7.438  -4.079  0.00  0.00    -0.344 N 
HETATM    4  C           1     -21.059  -7.110  -5.354  0.00  0.00     0.249 C 
ENDROOT
BRANCH   3   5
HETATM    5  C           1     -20.416  -8.822  -3.737  0.00  0.00     0.189 C 
BRANCH   5   6
HETATM    6  C           1     -19.239  -8.886  -2.772  0.00  0.00     0.074 C 
BRANCH   6   7
HETATM    7  C           1     -18.047  -9.456  -3.476  0.00  0.00    -0.056 A 
HETATM    8  C           1     -16.883  -9.737  -2.759  0.00  0.00     0.010 A 
HETATM    9  C           1     -15.772 -10.269  -3.414  0.00  0.00     0.037 A 
HETATM   10  C           1     -15.825 -10.520  -4.785  0.00  0.00     0.065 A 
HETATM   11  C           1     -16.989 -10.240  -5.502  0.00  0.00     0.037 A 
HETATM   12  C           1     -18.101  -9.708  -4.846  0.00  0.00     0.010 A 
BRANCH  10  13
HETATM   13  O           1     -14.746 -11.037  -5.422  0.00  0.00    -0.361 OA
HETATM   14  H           1     -14.854 -10.876  -6.374  0.00  0.00     0.217 HD
ENDBRANCH  10  13
ENDBRANCH   6   7
ENDBRANCH   5   6
BRANCH   5  15
HETATM   15  C           1     -21.636  -9.422  -3.084  0.00  0.00     0.197 C 
HETATM   16  O           1     -21.928  -9.120  -1.907  0.00  0.00    -0.646 OA
HETATM   17  O           1     -22.356 -10.221  -3.721  0.00  0.00    -0.646 OA
ENDBRANCH   5  15
ENDBRANCH   3   5
BRANCH   4  18
HETATM   18  C           1     -21.337  -5.670  -5.711  0.00  0.00     0.278 C 
BRANCH  18  19
HETATM   19  N           1     -20.255  -4.798  -5.147  0.00  0.00    -0.066 N 
HETATM   20  H           1     -20.672  -4.117  -4.472  0.00  0.00     0.275 HD
HETATM   21  H           1     -19.552  -5.391  -4.652  0.00  0.00     0.275 HD
HETATM   22  H           1     -19.788  -4.276  -5.923  0.00  0.00     0.275 HD
ENDBRANCH  18  19
BRANCH  18  23
HETATM   23  C           1     -21.370  -5.519  -7.227  0.00  0.00     0.021 C 
HETATM   24  C           1     -22.388  -4.453  -7.609  0.00  0.00     0.012 C 
BRANCH  23  25
HETATM   25  C           1     -19.991  -5.104  -7.724  0.00  0.00     0.002 C 
HETATM   26  C           1     -20.141  -4.169  -8.917  0.00  0.00     0.005 C 
ENDBRANCH  23  25
ENDBRANCH  18  23
ENDBRANCH   4  18
TORSDOF 9
ENDMDL
