MODEL 1
REMARK VINA RESULT:      -5.8      0.000      0.000
REMARK  6 active torsions:
REMARK  status: ('A' for Active; 'I' for Inactive)
REMARK    1  A    between atoms: C_1  and  C_11 
REMARK    2  A    between atoms: N_4  and  C_11 
REMARK       I    between atoms: N_4  and  C_5 
REMARK    3  A    between atoms: C_5  and  C_6 
REMARK    4  A    between atoms: C_6  and  N_7 
REMARK    5  A    between atoms: C_8  and  C_10 
REMARK    6  A    between atoms: C_8  and  C_11 
ROOT
HETATM    1  N           1     -22.078  -3.549 -12.730  0.00  0.00    -0.345 N 
HETATM    2  C           1     -22.914  -2.781 -13.494  0.00  0.00     0.243 C 
HETATM    3  H           1     -21.357  -4.106 -13.172  0.00  0.00     0.163 HD
HETATM    4  O           1     -23.774  -2.117 -12.966  0.00  0.00    -0.272 OA
ENDROOT
BRANCH   1   5
HETATM    5  C           1     -22.224  -3.567 -11.288  0.00  0.00     0.195 C 
BRANCH   5   6
HETATM    6  C           1     -20.913  -3.965 -10.655  0.00  0.00     0.197 C 
HETATM    7  O           1     -20.807  -4.003  -9.410  0.00  0.00    -0.646 OA
HETATM    8  O           1     -19.935  -4.257 -11.376  0.00  0.00    -0.646 OA
ENDBRANCH   5   6
BRANCH   5   9
HETATM    9  C           1     -23.302  -4.571 -10.900  0.00  0.00     0.149 C 
BRANCH   9  10
HETATM   10  C           1     -24.258  -3.932  -9.923  0.00  0.00     0.175 C 
HETATM   11  O           1     -25.284  -3.352 -10.340  0.00  0.00    -0.648 OA
HETATM   12  O           1     -24.023  -3.982  -8.696  0.00  0.00    -0.648 OA
ENDBRANCH   9  10
ENDBRANCH   5   9
ENDBRANCH   1   5
BRANCH   2  13
HETATM   13  C           1     -22.762  -2.763 -14.995  0.00  0.00     0.332 C 
BRANCH  13  14
HETATM   14  N           1     -23.093  -1.395 -15.516  0.00  0.00    -0.071 N 
HETATM   15  H           1     -24.035  -1.108 -15.168  0.00  0.00     0.274 HD
HETATM   16  H           1     -22.376  -0.713 -15.181  0.00  0.00     0.274 HD
HETATM   17  H           1     -23.098  -1.412 -16.561  0.00  0.00     0.274 HD
ENDBRANCH  13  14
ENDBRANCH   2  13
TORSDOF 6
ENDMDL
MODEL 2
REMARK VINA RESULT:      -5.8      9.040     10.294
REMARK  6 active torsions:
REMARK  status: ('A' for Active; 'I' for Inactive)
REMARK    1  A    between atoms: C_1  and  C_11 
REMARK    2  A    between atoms: N_4  and  C_11 
REMARK       I    between atoms: N_4  and  C_5 
REMARK    3  A    between atoms: C_5  and  C_6 
REMARK    4  A    between atoms: C_6  and  N_7 
REMARK    5  A    between atoms: C_8  and  C_10 
REMARK    6  A    between atoms: C_8  and  C_11 
ROOT
HETATM    1  N           1     -30.949  -6.397 -16.911  0.00  0.00    -0.345 N 
HETATM    2  C           1     -31.266  -5.104 -17.228  0.00  0.00     0.243 C 
HETATM    3  H           1     -31.524  -6.913 -16.256  0.00  0.00     0.163 HD
HETATM    4  O           1     -30.580  -4.489 -18.009  0.00  0.00    -0.272 OA
ENDROOT
BRANCH   1   5
HETATM    5  C           1     -29.790  -7.028 -17.511  0.00  0.00     0.195 C 
BRANCH   5   6
HETATM    6  C           1     -30.237  -7.946 -18.622  0.00  0.00     0.197 C 
HETATM    7  O           1     -31.450  -8.030 -18.913  0.00  0.00    -0.646 OA
HETATM    8  O           1     -29.395  -8.621 -19.252  0.00  0.00    -0.646 OA
ENDBRANCH   5   6
BRANCH   5   9
HETATM    9  C           1     -29.047  -7.834 -16.454  0.00  0.00     0.149 C 
BRANCH   9  10
HETATM   10  C           1     -28.048  -6.947 -15.753  0.00  0.00     0.175 C 
HETATM   11  O           1     -28.319  -5.745 -15.540  0.00  0.00    -0.648 OA
HETATM   12  O           1     -26.949  -7.414 -15.384  0.00  0.00    -0.648 OA
ENDBRANCH   9  10
ENDBRANCH   5   9
ENDBRANCH   1   5
BRANCH   2  13
HETATM   13  C           1     -32.472  -4.448 -16.603  0.00  0.00     0.332 C 
BRANCH  13  14
HETATM   14  N           1     -32.899  -3.280 -17.443  0.00  0.00    -0.071 N 
HETATM   15  H           1     -33.610  -2.718 -16.924  0.00  0.00     0.274 HD
HETATM   16  H           1     -32.069  -2.682 -17.655  0.00  0.00     0.274 HD
HETATM   17  H           1     -33.315  -3.628 -18.337  0.00  0.00     0.274 HD
ENDBRANCH  13  14
ENDBRANCH   2  13
TORSDOF 6
ENDMDL
MODEL 3
REMARK VINA RESULT:      -5.7      1.387      2.901
REMARK  6 active torsions:
REMARK  status: ('A' for Active; 'I' for Inactive)
REMARK    1  A    between atoms: C_1  and  C_11 
REMARK    2  A    between atoms: N_4  and  C_11 
REMARK       I    between atoms: N_4  and  C_5 
REMARK    3  A    between atoms: C_5  and  C_6 
REMARK    4  A    between atoms: C_6  and  N_7 
REMARK    5  A    between atoms: C_8  and  C_10 
REMARK    6  A    between atoms: C_8  and  C_11 
ROOT
HETATM    1  N           1     -23.128  -2.825 -12.768  0.00  0.00    -0.345 N 
HETATM    2  C           1     -23.475  -2.690 -14.085  0.00  0.00     0.243 C 
HETATM    3  H           1     -22.758  -2.033 -12.258  0.00  0.00     0.163 HD
HETATM    4  O           1     -23.916  -3.636 -14.693  0.00  0.00    -0.272 OA
ENDROOT
BRANCH   1   5
HETATM    5  C           1     -23.288  -4.104 -12.103  0.00  0.00     0.195 C 
BRANCH   5   6
HETATM    6  C           1     -24.162  -3.930 -10.885  0.00  0.00     0.197 C 
HETATM    7  O           1     -24.328  -4.885 -10.095  0.00  0.00    -0.646 OA
HETATM    8  O           1     -24.719  -2.833 -10.667  0.00  0.00    -0.646 OA
ENDBRANCH   5   6
BRANCH   5   9
HETATM    9  C           1     -21.923  -4.629 -11.679  0.00  0.00     0.149 C 
BRANCH   9  10
HETATM   10  C           1     -21.230  -3.598 -10.822  0.00  0.00     0.175 C 
HETATM   11  O           1     -20.722  -2.584 -11.350  0.00  0.00    -0.648 OA
HETATM   12  O           1     -21.164  -3.757  -9.584  0.00  0.00    -0.648 OA
ENDBRANCH   9  10
ENDBRANCH   5   9
ENDBRANCH   1   5
BRANCH   2  13
HETATM   13  C           1     -23.309  -1.359 -14.776  0.00  0.00     0.332 C 
BRANCH  13  14
HETATM   14  N           1     -24.569  -0.558 -14.631  0.00  0.00    -0.071 N 
HETATM   15  H           1     -25.323  -0.984 -15.214  0.00  0.00     0.274 HD
HETATM   16  H           1     -24.865  -0.553 -13.629  0.00  0.00     0.274 HD
HETATM   17  H           1     -24.396   0.423 -14.948  0.00  0.00     0.274 HD
ENDBRANCH  13  14
ENDBRANCH   2  13
TORSDOF 6
ENDMDL
MODEL 4
REMARK VINA RESULT:      -5.4      3.113      5.586
REMARK  6 active torsions:
REMARK  status: ('A' for Active; 'I' for Inactive)
REMARK    1  A    between atoms: C_1  and  C_11 
REMARK    2  A    between atoms: N_4  and  C_11 
REMARK       I    between atoms: N_4  and  C_5 
REMARK    3  A    between atoms: C_5  and  C_6 
REMARK    4  A    between atoms: C_6  and  N_7 
REMARK    5  A    between atoms: C_8  and  C_10 
REMARK    6  A    between atoms: C_8  and  C_11 
ROOT
HETATM    1  N           1     -22.327  -4.837  -8.718  0.00  0.00    -0.345 N 
HETATM    2  C           1     -21.692  -4.495  -7.554  0.00  0.00     0.243 C 
HETATM    3  H           1     -22.472  -5.812  -8.947  0.00  0.00     0.163 HD
HETATM    4  O           1     -21.519  -3.332  -7.281  0.00  0.00    -0.272 OA
ENDROOT
BRANCH   1   5
HETATM    5  C           1     -22.791  -3.803  -9.622  0.00  0.00     0.195 C 
BRANCH   5   6
HETATM    6  C           1     -24.298  -3.828  -9.682  0.00  0.00     0.197 C 
HETATM    7  O           1     -24.898  -4.906  -9.890  0.00  0.00    -0.646 OA
HETATM    8  O           1     -24.947  -2.772  -9.524  0.00  0.00    -0.646 OA
ENDBRANCH   5   6
BRANCH   5   9
HETATM    9  C           1     -22.222  -4.053 -11.012  0.00  0.00     0.149 C 
BRANCH   9  10
HETATM   10  C           1     -20.728  -3.842 -10.992  0.00  0.00     0.175 C 
HETATM   11  O           1     -20.248  -2.733 -11.313  0.00  0.00    -0.648 OA
HETATM   12  O           1     -19.970  -4.777 -10.653  0.00  0.00    -0.648 OA
ENDBRANCH   9  10
ENDBRANCH   5   9
ENDBRANCH   1   5
BRANCH   2  13
HETATM   13  C           1     -21.209  -5.572  -6.614  0.00  0.00     0.332 C 
BRANCH  13  14
HETATM   14  N           1     -20.053  -6.299  -7.235  0.00  0.00    -0.071 N 
HETATM   15  H           1     -19.278  -6.381  -6.539  0.00  0.00     0.274 HD
HETATM   16  H           1     -20.359  -7.253  -7.529  0.00  0.00     0.274 HD
HETATM   17  H           1     -19.716  -5.768  -8.070  0.00  0.00     0.274 HD
ENDBRANCH  13  14
ENDBRANCH   2  13
TORSDOF 6
ENDMDL
MODEL 5
REMARK VINA RESULT:      -5.4      1.988      4.685
REMARK  6 active torsions:
REMARK  status: ('A' for Active; 'I' for Inactive)
REMARK    1  A    between atoms: C_1  and  C_11 
REMARK    2  A    between atoms: N_4  and  C_11 
REMARK       I    between atoms: N_4  and  C_5 
REMARK    3  A    between atoms: C_5  and  C_6 
REMARK    4  A    between atoms: C_6  and  N_7 
REMARK    5  A    between atoms: C_8  and  C_10 
REMARK    6  A    between atoms: C_8  and  C_11 
ROOT
HETATM    1  N           1     -22.198  -4.148 -11.646  0.00  0.00    -0.345 N 
HETATM    2  C           1     -20.966  -3.747 -11.206  0.00  0.00     0.243 C 
HETATM    3  H           1     -22.482  -5.114 -11.543  0.00  0.00     0.163 HD
HETATM    4  O           1     -20.627  -2.594 -11.329  0.00  0.00    -0.272 OA
ENDROOT
BRANCH   1   5
HETATM    5  C           1     -23.097  -3.191 -12.261  0.00  0.00     0.195 C 
BRANCH   5   6
HETATM    6  C           1     -24.354  -3.079 -11.433  0.00  0.00     0.197 C 
HETATM    7  O           1     -24.278  -3.014 -10.187  0.00  0.00    -0.646 OA
HETATM    8  O           1     -25.470  -3.051 -11.994  0.00  0.00    -0.646 OA
ENDBRANCH   5   6
BRANCH   5   9
HETATM    9  C           1     -23.453  -3.658 -13.665  0.00  0.00     0.149 C 
BRANCH   9  10
HETATM   10  C           1     -23.245  -2.527 -14.642  0.00  0.00     0.175 C 
HETATM   11  O           1     -23.970  -1.510 -14.585  0.00  0.00    -0.648 OA
HETATM   12  O           1     -22.346  -2.606 -15.507  0.00  0.00    -0.648 OA
ENDBRANCH   9  10
ENDBRANCH   5   9
ENDBRANCH   1   5
BRANCH   2  13
HETATM   13  C           1     -20.031  -4.744 -10.567  0.00  0.00     0.332 C 
BRANCH  13  14
HETATM   14  N           1     -20.172  -4.677  -9.075  0.00  0.00    -0.071 N 
HETATM   15  H           1     -20.128  -3.681  -8.764  0.00  0.00     0.274 HD
HETATM   16  H           1     -21.091  -5.089  -8.793  0.00  0.00     0.274 HD
HETATM   17  H           1     -19.396  -5.216  -8.627  0.00  0.00     0.274 HD
ENDBRANCH  13  14
ENDBRANCH   2  13
TORSDOF 6
ENDMDL
MODEL 6
REMARK VINA RESULT:      -5.4      7.764      9.087
REMARK  6 active torsions:
REMARK  status: ('A' for Active; 'I' for Inactive)
REMARK    1  A    between atoms: C_1  and  C_11 
REMARK    2  A    between atoms: N_4  and  C_11 
REMARK       I    between atoms: N_4  and  C_5 
REMARK    3  A    between atoms: C_5  and  C_6 
REMARK    4  A    between atoms: C_6  and  N_7 
REMARK    5  A    between atoms: C_8  and  C_10 
REMARK    6  A    between atoms: C_8  and  C_11 
ROOT
HETATM    1  N           1     -28.186  -6.988 -18.132  0.00  0.00    -0.345 N 
HETATM    2  C           1     -29.429  -6.446 -18.321  0.00  0.00     0.243 C 
HETATM    3  H           1     -28.089  -7.977 -17.945  0.00  0.00     0.163 HD
HETATM    4  O           1     -29.545  -5.265 -18.545  0.00  0.00    -0.272 OA
ENDROOT
BRANCH   1   5
HETATM    5  C           1     -27.009  -6.144 -18.199  0.00  0.00     0.195 C 
BRANCH   5   6
HETATM    6  C           1     -26.124  -6.605 -19.330  0.00  0.00     0.197 C 
HETATM    7  O           1     -26.631  -6.953 -20.419  0.00  0.00    -0.646 OA
HETATM    8  O           1     -24.883  -6.640 -19.179  0.00  0.00    -0.646 OA
ENDBRANCH   5   6
BRANCH   5   9
HETATM    9  C           1     -26.244  -6.235 -16.885  0.00  0.00     0.149 C 
BRANCH   9  10
HETATM   10  C           1     -27.198  -6.586 -15.770  0.00  0.00     0.175 C 
HETATM   11  O           1     -28.064  -5.761 -15.404  0.00  0.00    -0.648 OA
HETATM   12  O           1     -27.123  -7.702 -15.211  0.00  0.00    -0.648 OA
ENDBRANCH   9  10
ENDBRANCH   5   9
ENDBRANCH   1   5
BRANCH   2  13
HETATM   13  C           1     -30.653  -7.325 -18.252  0.00  0.00     0.332 C 
BRANCH  13  14
HETATM   14  N           1     -31.591  -6.796 -17.207  0.00  0.00    -0.071 N 
HETATM   15  H           1     -32.031  -7.594 -16.697  0.00  0.00     0.274 HD
HETATM   16  H           1     -31.059  -6.202 -16.531  0.00  0.00     0.274 HD
HETATM   17  H           1     -32.335  -6.222 -17.665  0.00  0.00     0.274 HD
ENDBRANCH  13  14
ENDBRANCH   2  13
TORSDOF 6
ENDMDL
MODEL 7
REMARK VINA RESULT:      -5.2      7.604      9.744
REMARK  6 active torsions:
REMARK  status: ('A' for Active; 'I' for Inactive)
REMARK    1  A    between atoms: C_1  and  C_11 
REMARK    2  A    between atoms: N_4  and  C_11 
REMARK       I    between atoms: N_4  and  C_5 
REMARK    3  A    between atoms: C_5  and  C_6 
REMARK    4  A    between atoms: C_6  and  N_7 
REMARK    5  A    between atoms: C_8  and  C_10 
REMARK    6  A    between atoms: C_8  and  C_11 
ROOT
HETATM    1  N           1     -26.502  -6.657 -18.008  0.00  0.00    -0.345 N 
HETATM    2  C           1     -26.325  -6.512 -16.659  0.00  0.00     0.243 C 
HETATM    3  H           1     -25.874  -7.247 -18.540  0.00  0.00     0.163 HD
HETATM    4  O           1     -27.074  -5.807 -16.024  0.00  0.00    -0.272 OA
ENDROOT
BRANCH   1   5
HETATM    5  C           1     -27.586  -5.965 -18.676  0.00  0.00     0.195 C 
BRANCH   5   6
HETATM    6  C           1     -28.898  -6.617 -18.312  0.00  0.00     0.197 C 
HETATM    7  O           1     -29.123  -7.799 -18.653  0.00  0.00    -0.646 OA
HETATM    8  O           1     -29.758  -5.976 -17.671  0.00  0.00    -0.646 OA
ENDBRANCH   5   6
BRANCH   5   9
HETATM    9  C           1     -27.383  -6.039 -20.183  0.00  0.00     0.149 C 
BRANCH   9  10
HETATM   10  C           1     -26.201  -6.925 -20.490  0.00  0.00     0.175 C 
HETATM   11  O           1     -25.038  -6.475 -20.390  0.00  0.00    -0.648 OA
HETATM   12  O           1     -26.384  -8.110 -20.844  0.00  0.00    -0.648 OA
ENDBRANCH   9  10
ENDBRANCH   5   9
ENDBRANCH   1   5
BRANCH   2  13
HETATM   13  C           1     -25.196  -7.232 -15.964  0.00  0.00     0.332 C 
BRANCH  13  14
HETATM   14  N           1     -24.235  -7.762 -16.987  0.00  0.00    -0.071 N 
HETATM   15  H           1     -24.229  -7.132 -17.820  0.00  0.00     0.274 HD
HETATM   16  H           1     -23.275  -7.803 -16.575  0.00  0.00     0.274 HD
HETATM   17  H           1     -24.530  -8.722 -17.278  0.00  0.00     0.274 HD
ENDBRANCH  13  14
ENDBRANCH   2  13
TORSDOF 6
ENDMDL
MODEL 8
REMARK VINA RESULT:      -5.2      2.921      5.290
REMARK  6 active torsions:
REMARK  status: ('A' for Active; 'I' for Inactive)
REMARK    1  A    between atoms: C_1  and  C_11 
REMARK    2  A    between atoms: N_4  and  C_11 
REMARK       I    between atoms: N_4  and  C_5 
REMARK    3  A    between atoms: C_5  and  C_6 
REMARK    4  A    between atoms: C_6  and  N_7 
REMARK    5  A    between atoms: C_8  and  C_10 
REMARK    6  A    between atoms: C_8  and  C_11 
ROOT
HETATM    1  N           1     -22.200  -4.861  -8.887  0.00  0.00    -0.345 N 
HETATM    2  C           1     -21.707  -4.419  -7.689  0.00  0.00     0.243 C 
HETATM    3  H           1     -22.177  -5.848  -9.111  0.00  0.00     0.163 HD
HETATM    4  O           1     -21.734  -3.242  -7.422  0.00  0.00    -0.272 OA
ENDROOT
BRANCH   1   5
HETATM    5  C           1     -22.752  -3.915  -9.837  0.00  0.00     0.195 C 
BRANCH   5   6
HETATM    6  C           1     -24.255  -3.887  -9.701  0.00  0.00     0.197 C 
HETATM    7  O           1     -24.841  -2.809  -9.463  0.00  0.00    -0.646 OA
HETATM    8  O           1     -24.914  -4.942  -9.827  0.00  0.00    -0.646 OA
ENDBRANCH   5   6
BRANCH   5   9
HETATM    9  C           1     -22.378  -4.338 -11.251  0.00  0.00     0.149 C 
BRANCH   9  10
HETATM   10  C           1     -22.957  -3.358 -12.241  0.00  0.00     0.175 C 
HETATM   11  O           1     -23.782  -3.746 -13.096  0.00  0.00    -0.648 OA
HETATM   12  O           1     -22.611  -2.157 -12.206  0.00  0.00    -0.648 OA
ENDBRANCH   9  10
ENDBRANCH   5   9
ENDBRANCH   1   5
BRANCH   2  13
HETATM   13  C           1     -21.132  -5.404  -6.701  0.00  0.00     0.332 C 
BRANCH  13  14
HETATM   14  N           1     -20.071  -6.226  -7.372  0.00  0.00    -0.071 N 
HETATM   15  H           1     -19.294  -5.603  -7.685  0.00  0.00     0.274 HD
HETATM   16  H           1     -19.700  -6.933  -6.698  0.00  0.00     0.274 HD
HETATM   17  H           1     -20.481  -6.714  -8.201  0.00  0.00     0.274 HD
ENDBRANCH  13  14
ENDBRANCH   2  13
TORSDOF 6
ENDMDL
MODEL 9
REMARK VINA RESULT:      -4.9     15.939     17.523
REMARK  6 active torsions:
REMARK  status: ('A' for Active; 'I' for Inactive)
REMARK    1  A    between atoms: C_1  and  C_11 
REMARK    2  A    between atoms: N_4  and  C_11 
REMARK       I    between atoms: N_4  and  C_5 
REMARK    3  A    between atoms: C_5  and  C_6 
REMARK    4  A    between atoms: C_6  and  N_7 
REMARK    5  A    between atoms: C_8  and  C_10 
REMARK    6  A    between atoms: C_8  and  C_11 
ROOT
HETATM    1  N           1     -11.125   5.031 -20.854  0.00  0.00    -0.345 N 
HETATM    2  C           1     -11.112   3.846 -21.538  0.00  0.00     0.243 C 
HETATM    3  H           1     -11.528   5.077 -19.927  0.00  0.00     0.163 HD
HETATM    4  O           1     -10.630   3.792 -22.644  0.00  0.00    -0.272 OA
ENDROOT
BRANCH   1   5
HETATM    5  C           1     -10.561   6.223 -21.458  0.00  0.00     0.195 C 
BRANCH   5   6
HETATM    6  C           1      -9.449   6.750 -20.585  0.00  0.00     0.197 C 
HETATM    7  O           1      -8.860   5.984 -19.791  0.00  0.00    -0.646 OA
HETATM    8  O           1      -9.117   7.953 -20.655  0.00  0.00    -0.646 OA
ENDBRANCH   5   6
BRANCH   5   9
HETATM    9  C           1     -11.645   7.283 -21.597  0.00  0.00     0.149 C 
BRANCH   9  10
HETATM   10  C           1     -12.841   6.892 -20.764  0.00  0.00     0.175 C 
HETATM   11  O           1     -13.792   6.272 -21.288  0.00  0.00    -0.648 OA
HETATM   12  O           1     -12.882   7.188 -19.551  0.00  0.00    -0.648 OA
ENDBRANCH   9  10
ENDBRANCH   5   9
ENDBRANCH   1   5
BRANCH   2  13
HETATM   13  C           1     -11.699   2.606 -20.909  0.00  0.00     0.332 C 
BRANCH  13  14
HETATM   14  N           1     -13.151   2.500 -21.271  0.00  0.00    -0.071 N 
HETATM   15  H           1     -13.253   2.517 -22.310  0.00  0.00     0.274 HD
HETATM   16  H           1     -13.538   1.604 -20.898  0.00  0.00     0.274 HD
HETATM   17  H           1     -13.673   3.305 -20.857  0.00  0.00     0.274 HD
ENDBRANCH  13  14
ENDBRANCH   2  13
TORSDOF 6
ENDMDL
