MODEL 1
REMARK VINA RESULT:      -7.5      0.000      0.000
REMARK  11 active torsions:
REMARK  status: ('A' for Active; 'I' for Inactive)
REMARK    1  A    between atoms: N_3  and  C_6 
REMARK    2  A    between atoms: Se_4  and  C_5 
REMARK    3  A    between atoms: C_5  and  C_6 
REMARK    4  A    between atoms: C_6  and  C_7 
REMARK       I    between atoms: C_7  and  N_8 
REMARK    5  A    between atoms: N_8  and  C_21 
REMARK    6  A    between atoms: O_12  and  P_14 
REMARK    7  A    between atoms: P_14  and  O_15 
REMARK    8  A    between atoms: O_15  and  C_16 
REMARK    9  A    between atoms: C_19  and  C_20 
REMARK   10  A    between atoms: C_20  and  C_21 
REMARK   11  A    between atoms: C_21  and  C_23 
ROOT
HETATM    1  C           1     -32.390  -4.520 -16.326  0.00  0.00     0.189 C 
ENDROOT
BRANCH   1   2
HETATM    2  N           1     -33.734  -4.673 -15.803  0.00  0.00    -0.344 N 
HETATM    3  C           1     -34.122  -3.963 -14.698  0.00  0.00     0.249 C 
HETATM    4  O           1     -34.622  -2.870 -14.827  0.00  0.00    -0.271 OA
HETATM    5  H           1     -34.384  -5.303 -16.254  0.00  0.00     0.163 HD
BRANCH   3   6
HETATM    6  C           1     -33.927  -4.545 -13.320  0.00  0.00     0.274 C 
BRANCH   6   7
HETATM    7  N           1     -32.476  -4.468 -12.947  0.00  0.00    -0.067 N 
HETATM    8  H           1     -32.385  -4.099 -11.973  0.00  0.00     0.275 HD
HETATM    9  H           1     -32.053  -5.422 -12.997  0.00  0.00     0.275 HD
HETATM   10  H           1     -31.979  -3.830 -13.609  0.00  0.00     0.275 HD
ENDBRANCH   6   7
BRANCH   6  11
HETATM   11  C           1     -34.751  -3.754 -12.313  0.00  0.00     0.045 C 
BRANCH  11  12
HETATM   12 Se           1     -33.563  -2.905 -11.023  0.00  0.00     0.000 Se
HETATM   13  H           1     -33.177  -1.808 -11.925  0.00  0.00     0.000 HD
ENDBRANCH  11  12
ENDBRANCH   6  11
ENDBRANCH   3   6
ENDBRANCH   1   2
BRANCH   1  14
HETATM   14  C           1     -31.984  -5.793 -17.058  0.00  0.00     0.074 C 
BRANCH  14  15
HETATM   15  C           1     -30.622  -6.218 -16.603  0.00  0.00    -0.056 A 
HETATM   16  C           1     -30.002  -5.554 -15.544  0.00  0.00     0.010 A 
HETATM   17  C           1     -28.733  -5.950 -15.121  0.00  0.00     0.038 A 
HETATM   18  C           1     -28.084  -7.008 -15.757  0.00  0.00     0.081 A 
HETATM   19  C           1     -28.704  -7.672 -16.815  0.00  0.00     0.038 A 
HETATM   20  C           1     -29.974  -7.276 -17.238  0.00  0.00     0.010 A 
BRANCH  18  21
HETATM   21  O           1     -26.852  -7.393 -15.345  0.00  0.00    -0.247 OA
BRANCH  21  22
HETATM   22  P           1     -25.570  -6.701 -16.042  0.00  0.00     0.411 P 
HETATM   23  O           1     -24.557  -7.736 -16.350  0.00  0.00    -0.624 OA
HETATM   24  O           1     -25.988  -6.033 -17.295  0.00  0.00    -0.624 OA
BRANCH  22  25
HETATM   25  O           1     -24.935  -5.609 -15.036  0.00  0.00    -0.300 OA
HETATM   26  H           1     -24.116  -5.983 -14.755  0.00  0.00     0.223 HD
ENDBRANCH  22  25
ENDBRANCH  21  22
ENDBRANCH  18  21
ENDBRANCH  14  15
ENDBRANCH   1  14
BRANCH   1  27
HETATM   27  C           1     -32.354  -3.356 -17.286  0.00  0.00     0.197 C 
HETATM   28  O           1     -31.258  -2.918 -17.697  0.00  0.00    -0.646 OA
HETATM   29  O           1     -33.421  -2.829 -17.669  0.00  0.00    -0.646 OA
ENDBRANCH   1  27
TORSDOF 11
ENDMDL
MODEL 2
REMARK VINA RESULT:      -7.1     10.252     12.916
REMARK  11 active torsions:
REMARK  status: ('A' for Active; 'I' for Inactive)
REMARK    1  A    between atoms: N_3  and  C_6 
REMARK    2  A    between atoms: Se_4  and  C_5 
REMARK    3  A    between atoms: C_5  and  C_6 
REMARK    4  A    between atoms: C_6  and  C_7 
REMARK       I    between atoms: C_7  and  N_8 
REMARK    5  A    between atoms: N_8  and  C_21 
REMARK    6  A    between atoms: O_12  and  P_14 
REMARK    7  A    between atoms: P_14  and  O_15 
REMARK    8  A    between atoms: O_15  and  C_16 
REMARK    9  A    between atoms: C_19  and  C_20 
REMARK   10  A    between atoms: C_20  and  C_21 
REMARK   11  A    between atoms: C_21  and  C_23 
ROOT
HETATM    1  C           1     -21.559  -5.549  -6.675  0.00  0.00     0.189 C 
ENDROOT
BRANCH   1   2
HETATM    2  N           1     -22.209  -5.845  -5.413  0.00  0.00    -0.344 N 
HETATM    3  C           1     -21.598  -6.669  -4.506  0.00  0.00     0.249 C 
HETATM    4  O           1     -20.860  -6.204  -3.669  0.00  0.00    -0.271 OA
HETATM    5  H           1     -23.113  -5.442  -5.202  0.00  0.00     0.163 HD
BRANCH   3   6
HETATM    6  C           1     -21.849  -8.156  -4.548  0.00  0.00     0.274 C 
BRANCH   6   7
HETATM    7  N           1     -21.016  -8.770  -5.635  0.00  0.00    -0.067 N 
HETATM    8  H           1     -20.865  -8.070  -6.396  0.00  0.00     0.275 HD
HETATM    9  H           1     -20.093  -9.061  -5.242  0.00  0.00     0.275 HD
HETATM   10  H           1     -21.510  -9.605  -6.023  0.00  0.00     0.275 HD
ENDBRANCH   6   7
BRANCH   6  11
HETATM   11  C           1     -21.469  -8.774  -3.209  0.00  0.00     0.045 C 
BRANCH  11  12
HETATM   12 Se           1     -19.719  -9.616  -3.354  0.00  0.00     0.000 Se
HETATM   13  H           1     -20.093 -10.466  -4.497  0.00  0.00     0.000 HD
ENDBRANCH  11  12
ENDBRANCH   6  11
ENDBRANCH   3   6
ENDBRANCH   1   2
BRANCH   1  14
HETATM   14  C           1     -21.955  -4.150  -7.132  0.00  0.00     0.074 C 
BRANCH  14  15
HETATM   15  C           1     -22.417  -4.202  -8.556  0.00  0.00    -0.056 A 
HETATM   16  C           1     -21.490  -4.379  -9.583  0.00  0.00     0.010 A 
HETATM   17  C           1     -21.922  -4.428 -10.909  0.00  0.00     0.038 A 
HETATM   18  C           1     -23.278  -4.299 -11.207  0.00  0.00     0.081 A 
HETATM   19  C           1     -24.204  -4.123 -10.179  0.00  0.00     0.038 A 
HETATM   20  C           1     -23.773  -4.074  -8.853  0.00  0.00     0.010 A 
BRANCH  18  21
HETATM   21  O           1     -23.696  -4.347 -12.494  0.00  0.00    -0.247 OA
BRANCH  21  22
HETATM   22  P           1     -23.959  -2.948 -13.259  0.00  0.00     0.411 P 
HETATM   23  O           1     -23.667  -3.112 -14.700  0.00  0.00    -0.624 OA
HETATM   24  O           1     -25.373  -2.547 -13.085  0.00  0.00    -0.624 OA
BRANCH  22  25
HETATM   25  O           1     -22.996  -1.809 -12.640  0.00  0.00    -0.300 OA
HETATM   26  H           1     -22.875  -1.186 -13.337  0.00  0.00     0.223 HD
ENDBRANCH  22  25
ENDBRANCH  21  22
ENDBRANCH  18  21
ENDBRANCH  14  15
ENDBRANCH   1  14
BRANCH   1  27
HETATM   27  C           1     -20.062  -5.615  -6.496  0.00  0.00     0.197 C 
HETATM   28  O           1     -19.441  -4.626  -6.050  0.00  0.00    -0.646 OA
HETATM   29  O           1     -19.443  -6.659  -6.796  0.00  0.00    -0.646 OA
ENDBRANCH   1  27
TORSDOF 11
ENDMDL
MODEL 3
REMARK VINA RESULT:      -7.0     11.532     14.044
REMARK  11 active torsions:
REMARK  status: ('A' for Active; 'I' for Inactive)
REMARK    1  A    between atoms: N_3  and  C_6 
REMARK    2  A    between atoms: Se_4  and  C_5 
REMARK    3  A    between atoms: C_5  and  C_6 
REMARK    4  A    between atoms: C_6  and  C_7 
REMARK       I    between atoms: C_7  and  N_8 
REMARK    5  A    between atoms: N_8  and  C_21 
REMARK    6  A    between atoms: O_12  and  P_14 
REMARK    7  A    between atoms: P_14  and  O_15 
REMARK    8  A    between atoms: O_15  and  C_16 
REMARK    9  A    between atoms: C_19  and  C_20 
REMARK   10  A    between atoms: C_20  and  C_21 
REMARK   11  A    between atoms: C_21  and  C_23 
ROOT
HETATM    1  C           1     -21.608  -6.875  -5.450  0.00  0.00     0.189 C 
ENDROOT
BRANCH   1   2
HETATM    2  N           1     -22.356  -6.466  -4.277  0.00  0.00    -0.344 N 
HETATM    3  C           1     -21.724  -6.354  -3.068  0.00  0.00     0.249 C 
HETATM    4  O           1     -21.224  -5.303  -2.742  0.00  0.00    -0.271 OA
HETATM    5  H           1     -23.344  -6.263  -4.353  0.00  0.00     0.163 HD
BRANCH   3   6
HETATM    6  C           1     -21.654  -7.543  -2.141  0.00  0.00     0.274 C 
BRANCH   6   7
HETATM    7  N           1     -20.217  -7.863  -1.850  0.00  0.00    -0.067 N 
HETATM    8  H           1     -19.599  -7.229  -2.406  0.00  0.00     0.275 HD
HETATM    9  H           1     -20.029  -7.724  -0.831  0.00  0.00     0.275 HD
HETATM   10  H           1     -20.021  -8.856  -2.109  0.00  0.00     0.275 HD
ENDBRANCH   6   7
BRANCH   6  11
HETATM   11  C           1     -22.372  -7.214  -0.838  0.00  0.00     0.045 C 
BRANCH  11  12
HETATM   12 Se           1     -21.714  -8.377   0.580  0.00  0.00     0.000 Se
HETATM   13  H           1     -23.055  -8.707   1.090  0.00  0.00     0.000 HD
ENDBRANCH  11  12
ENDBRANCH   6  11
ENDBRANCH   3   6
ENDBRANCH   1   2
BRANCH   1  14
HETATM   14  C           1     -20.627  -5.775  -5.834  0.00  0.00     0.074 C 
BRANCH  14  15
HETATM   15  C           1     -21.086  -5.113  -7.096  0.00  0.00    -0.056 A 
HETATM   16  C           1     -20.268  -5.124  -8.226  0.00  0.00     0.010 A 
HETATM   17  C           1     -20.697  -4.508  -9.402  0.00  0.00     0.038 A 
HETATM   18  C           1     -21.943  -3.881  -9.448  0.00  0.00     0.081 A 
HETATM   19  C           1     -22.761  -3.872  -8.318  0.00  0.00     0.038 A 
HETATM   20  C           1     -22.331  -4.488  -7.142  0.00  0.00     0.010 A 
BRANCH  18  21
HETATM   21  O           1     -22.359  -3.284 -10.590  0.00  0.00    -0.247 OA
BRANCH  21  22
HETATM   22  P           1     -23.664  -3.884 -11.327  0.00  0.00     0.411 P 
HETATM   23  O           1     -23.562  -3.645 -12.784  0.00  0.00    -0.624 OA
HETATM   24  O           1     -23.751  -5.340 -11.072  0.00  0.00    -0.624 OA
BRANCH  22  25
HETATM   25  O           1     -24.987  -3.157 -10.754  0.00  0.00    -0.300 OA
HETATM   26  H           1     -24.718  -2.275 -10.562  0.00  0.00     0.223 HD
ENDBRANCH  22  25
ENDBRANCH  21  22
ENDBRANCH  18  21
ENDBRANCH  14  15
ENDBRANCH   1  14
BRANCH   1  27
HETATM   27  C           1     -20.848  -8.143  -5.145  0.00  0.00     0.197 C 
HETATM   28  O           1     -21.452  -9.236  -5.089  0.00  0.00    -0.646 OA
HETATM   29  O           1     -19.615  -8.099  -4.947  0.00  0.00    -0.646 OA
ENDBRANCH   1  27
TORSDOF 11
ENDMDL
MODEL 4
REMARK VINA RESULT:      -6.8      9.873     12.513
REMARK  11 active torsions:
REMARK  status: ('A' for Active; 'I' for Inactive)
REMARK    1  A    between atoms: N_3  and  C_6 
REMARK    2  A    between atoms: Se_4  and  C_5 
REMARK    3  A    between atoms: C_5  and  C_6 
REMARK    4  A    between atoms: C_6  and  C_7 
REMARK       I    between atoms: C_7  and  N_8 
REMARK    5  A    between atoms: N_8  and  C_21 
REMARK    6  A    between atoms: O_12  and  P_14 
REMARK    7  A    between atoms: P_14  and  O_15 
REMARK    8  A    between atoms: O_15  and  C_16 
REMARK    9  A    between atoms: C_19  and  C_20 
REMARK   10  A    between atoms: C_20  and  C_21 
REMARK   11  A    between atoms: C_21  and  C_23 
ROOT
HETATM    1  C           1     -21.181  -5.835  -7.566  0.00  0.00     0.189 C 
ENDROOT
BRANCH   1   2
HETATM    2  N           1     -21.805  -6.766  -6.645  0.00  0.00    -0.344 N 
HETATM    3  C           1     -22.232  -6.333  -5.419  0.00  0.00     0.249 C 
HETATM    4  O           1     -23.358  -5.916  -5.283  0.00  0.00    -0.271 OA
HETATM    5  H           1     -21.925  -7.736  -6.910  0.00  0.00     0.163 HD
BRANCH   3   6
HETATM    6  C           1     -21.297  -6.379  -4.235  0.00  0.00     0.274 C 
BRANCH   6   7
HETATM    7  N           1     -22.055  -6.030  -2.988  0.00  0.00    -0.067 N 
HETATM    8  H           1     -22.293  -5.012  -2.998  0.00  0.00     0.275 HD
HETATM    9  H           1     -22.935  -6.592  -2.948  0.00  0.00     0.275 HD
HETATM   10  H           1     -21.466  -6.242  -2.151  0.00  0.00     0.275 HD
ENDBRANCH   6   7
BRANCH   6  11
HETATM   11  C           1     -20.718  -7.781  -4.099  0.00  0.00     0.045 C 
BRANCH  11  12
HETATM   12 Se           1     -21.238  -8.537  -2.381  0.00  0.00     0.000 Se
HETATM   13  H           1     -21.354  -7.231  -1.711  0.00  0.00     0.000 HD
ENDBRANCH  11  12
ENDBRANCH   6  11
ENDBRANCH   3   6
ENDBRANCH   1   2
BRANCH   1  14
HETATM   14  C           1     -21.892  -4.490  -7.485  0.00  0.00     0.074 C 
BRANCH  14  15
HETATM   15  C           1     -22.641  -4.243  -8.759  0.00  0.00    -0.056 A 
HETATM   16  C           1     -23.901  -3.648  -8.722  0.00  0.00     0.010 A 
HETATM   17  C           1     -24.598  -3.418  -9.909  0.00  0.00     0.038 A 
HETATM   18  C           1     -24.033  -3.784 -11.131  0.00  0.00     0.081 A 
HETATM   19  C           1     -22.772  -4.378 -11.167  0.00  0.00     0.038 A 
HETATM   20  C           1     -22.076  -4.608  -9.980  0.00  0.00     0.010 A 
BRANCH  18  21
HETATM   21  O           1     -24.710  -3.559 -12.283  0.00  0.00    -0.247 OA
BRANCH  21  22
HETATM   22  P           1     -24.000  -2.649 -13.414  0.00  0.00     0.411 P 
HETATM   23  O           1     -22.766  -2.048 -12.860  0.00  0.00    -0.624 OA
HETATM   24  O           1     -23.658  -3.490 -14.583  0.00  0.00    -0.624 OA
BRANCH  22  25
HETATM   25  O           1     -25.012  -1.477 -13.872  0.00  0.00    -0.300 OA
HETATM   26  H           1     -25.233  -1.020 -13.078  0.00  0.00     0.223 HD
ENDBRANCH  22  25
ENDBRANCH  21  22
ENDBRANCH  18  21
ENDBRANCH  14  15
ENDBRANCH   1  14
BRANCH   1  27
HETATM   27  C           1     -19.729  -5.660  -7.195  0.00  0.00     0.197 C 
HETATM   28  O           1     -19.018  -6.661  -6.961  0.00  0.00    -0.646 OA
HETATM   29  O           1     -19.237  -4.513  -7.123  0.00  0.00    -0.646 OA
ENDBRANCH   1  27
TORSDOF 11
ENDMDL
MODEL 5
REMARK VINA RESULT:      -6.4     12.864     15.145
REMARK  11 active torsions:
REMARK  status: ('A' for Active; 'I' for Inactive)
REMARK    1  A    between atoms: N_3  and  C_6 
REMARK    2  A    between atoms: Se_4  and  C_5 
REMARK    3  A    between atoms: C_5  and  C_6 
REMARK    4  A    between atoms: C_6  and  C_7 
REMARK       I    between atoms: C_7  and  N_8 
REMARK    5  A    between atoms: N_8  and  C_21 
REMARK    6  A    between atoms: O_12  and  P_14 
REMARK    7  A    between atoms: P_14  and  O_15 
REMARK    8  A    between atoms: O_15  and  C_16 
REMARK    9  A    between atoms: C_19  and  C_20 
REMARK   10  A    between atoms: C_20  and  C_21 
REMARK   11  A    between atoms: C_21  and  C_23 
ROOT
HETATM    1  C           1     -20.763  -5.073  -6.171  0.00  0.00     0.189 C 
ENDROOT
BRANCH   1   2
HETATM    2  N           1     -21.606  -4.047  -6.754  0.00  0.00    -0.344 N 
HETATM    3  C           1     -22.784  -4.393  -7.360  0.00  0.00     0.249 C 
HETATM    4  O           1     -23.805  -4.439  -6.715  0.00  0.00    -0.271 OA
HETATM    5  H           1     -21.325  -3.076  -6.712  0.00  0.00     0.163 HD
BRANCH   3   6
HETATM    6  C           1     -22.808  -4.715  -8.834  0.00  0.00     0.274 C 
BRANCH   6   7
HETATM    7  N           1     -24.176  -4.430  -9.384  0.00  0.00    -0.067 N 
HETATM    8  H           1     -24.280  -4.892 -10.315  0.00  0.00     0.275 HD
HETATM    9  H           1     -24.898  -4.804  -8.728  0.00  0.00     0.275 HD
HETATM   10  H           1     -24.301  -3.398  -9.490  0.00  0.00     0.275 HD
ENDBRANCH   6   7
BRANCH   6  11
HETATM   11  C           1     -21.783  -3.853  -9.559  0.00  0.00     0.045 C 
BRANCH  11  12
HETATM   12 Se           1     -21.948  -4.122 -11.481  0.00  0.00     0.000 Se
HETATM   13  H           1     -22.160  -5.575 -11.377  0.00  0.00     0.000 HD
ENDBRANCH  11  12
ENDBRANCH   6  11
ENDBRANCH   3   6
ENDBRANCH   1   2
BRANCH   1  14
HETATM   14  C           1     -21.587  -6.332  -5.934  0.00  0.00     0.074 C 
BRANCH  14  15
HETATM   15  C           1     -21.362  -6.821  -4.537  0.00  0.00    -0.056 A 
HETATM   16  C           1     -21.995  -6.189  -3.467  0.00  0.00     0.010 A 
HETATM   17  C           1     -21.785  -6.646  -2.165  0.00  0.00     0.038 A 
HETATM   18  C           1     -20.942  -7.732  -1.935  0.00  0.00     0.081 A 
HETATM   19  C           1     -20.309  -8.365  -3.005  0.00  0.00     0.038 A 
HETATM   20  C           1     -20.520  -7.908  -4.307  0.00  0.00     0.010 A 
BRANCH  18  21
HETATM   21  O           1     -20.738  -8.176  -0.670  0.00  0.00    -0.247 OA
BRANCH  21  22
HETATM   22  P           1     -21.900  -9.061   0.019  0.00  0.00     0.411 P 
HETATM   23  O           1     -22.663  -9.776  -1.029  0.00  0.00    -0.624 OA
HETATM   24  O           1     -21.291 -10.044   0.942  0.00  0.00    -0.624 OA
BRANCH  22  25
HETATM   25  O           1     -22.895  -8.093   0.844  0.00  0.00    -0.300 OA
HETATM   26  H           1     -22.330  -7.484   1.290  0.00  0.00     0.223 HD
ENDBRANCH  22  25
ENDBRANCH  21  22
ENDBRANCH  18  21
ENDBRANCH  14  15
ENDBRANCH   1  14
BRANCH   1  27
HETATM   27  C           1     -19.627  -5.385  -7.115  0.00  0.00     0.197 C 
HETATM   28  O           1     -19.429  -6.563  -7.486  0.00  0.00    -0.646 OA
HETATM   29  O           1     -18.886  -4.467  -7.525  0.00  0.00    -0.646 OA
ENDBRANCH   1  27
TORSDOF 11
ENDMDL
MODEL 6
REMARK VINA RESULT:      -6.2      9.996     12.291
REMARK  11 active torsions:
REMARK  status: ('A' for Active; 'I' for Inactive)
REMARK    1  A    between atoms: N_3  and  C_6 
REMARK    2  A    between atoms: Se_4  and  C_5 
REMARK    3  A    between atoms: C_5  and  C_6 
REMARK    4  A    between atoms: C_6  and  C_7 
REMARK       I    between atoms: C_7  and  N_8 
REMARK    5  A    between atoms: N_8  and  C_21 
REMARK    6  A    between atoms: O_12  and  P_14 
REMARK    7  A    between atoms: P_14  and  O_15 
REMARK    8  A    between atoms: O_15  and  C_16 
REMARK    9  A    between atoms: C_19  and  C_20 
REMARK   10  A    between atoms: C_20  and  C_21 
REMARK   11  A    between atoms: C_21  and  C_23 
ROOT
HETATM    1  C           1     -22.308  -4.730  -9.865  0.00  0.00     0.189 C 
ENDROOT
BRANCH   1   2
HETATM    2  N           1     -21.708  -4.455 -11.155  0.00  0.00    -0.344 N 
HETATM    3  C           1     -22.105  -3.359 -11.875  0.00  0.00     0.249 C 
HETATM    4  O           1     -21.540  -2.301 -11.726  0.00  0.00    -0.271 OA
HETATM    5  H           1     -20.995  -5.071 -11.524  0.00  0.00     0.163 HD
BRANCH   3   6
HETATM    6  C           1     -23.245  -3.474 -12.856  0.00  0.00     0.274 C 
BRANCH   6   7
HETATM    7  N           1     -24.383  -2.608 -12.400  0.00  0.00    -0.067 N 
HETATM    8  H           1     -24.005  -1.732 -11.973  0.00  0.00     0.275 HD
HETATM    9  H           1     -24.983  -2.363 -13.220  0.00  0.00     0.275 HD
HETATM   10  H           1     -24.952  -3.124 -11.692  0.00  0.00     0.275 HD
ENDBRANCH   6   7
BRANCH   6  11
HETATM   11  C           1     -22.781  -3.015 -14.232  0.00  0.00     0.045 C 
BRANCH  11  12
HETATM   12 Se           1     -23.761  -1.414 -14.750  0.00  0.00     0.000 Se
HETATM   13  H           1     -23.086  -1.281 -16.052  0.00  0.00     0.000 HD
ENDBRANCH  11  12
ENDBRANCH   6  11
ENDBRANCH   3   6
ENDBRANCH   1   2
BRANCH   1  14
HETATM   14  C           1     -21.571  -3.947  -8.786  0.00  0.00     0.074 C 
BRANCH  14  15
HETATM   15  C           1     -21.217  -4.865  -7.657  0.00  0.00    -0.056 A 
HETATM   16  C           1     -19.963  -5.475  -7.621  0.00  0.00     0.010 A 
HETATM   17  C           1     -19.633  -6.330  -6.569  0.00  0.00     0.038 A 
HETATM   18  C           1     -20.557  -6.574  -5.553  0.00  0.00     0.081 A 
HETATM   19  C           1     -21.811  -5.963  -5.588  0.00  0.00     0.038 A 
HETATM   20  C           1     -22.140  -5.109  -6.641  0.00  0.00     0.010 A 
BRANCH  18  21
HETATM   21  O           1     -20.236  -7.404  -4.531  0.00  0.00    -0.247 OA
BRANCH  21  22
HETATM   22  P           1     -20.702  -8.947  -4.632  0.00  0.00     0.411 P 
HETATM   23  O           1     -21.850  -9.176  -3.726  0.00  0.00    -0.624 OA
HETATM   24  O           1     -21.105  -9.252  -6.023  0.00  0.00    -0.624 OA
BRANCH  22  25
HETATM   25  O           1     -19.477  -9.907  -4.204  0.00  0.00    -0.300 OA
HETATM   26  H           1     -18.888  -9.895  -4.940  0.00  0.00     0.223 HD
ENDBRANCH  22  25
ENDBRANCH  21  22
ENDBRANCH  18  21
ENDBRANCH  14  15
ENDBRANCH   1  14
BRANCH   1  27
HETATM   27  C           1     -23.759  -4.313  -9.886  0.00  0.00     0.197 C 
HETATM   28  O           1     -24.099  -3.210  -9.407  0.00  0.00    -0.646 OA
HETATM   29  O           1     -24.619  -5.072 -10.383  0.00  0.00    -0.646 OA
ENDBRANCH   1  27
TORSDOF 11
ENDMDL
MODEL 7
REMARK VINA RESULT:      -6.1     12.417     14.751
REMARK  11 active torsions:
REMARK  status: ('A' for Active; 'I' for Inactive)
REMARK    1  A    between atoms: N_3  and  C_6 
REMARK    2  A    between atoms: Se_4  and  C_5 
REMARK    3  A    between atoms: C_5  and  C_6 
REMARK    4  A    between atoms: C_6  and  C_7 
REMARK       I    between atoms: C_7  and  N_8 
REMARK    5  A    between atoms: N_8  and  C_21 
REMARK    6  A    between atoms: O_12  and  P_14 
REMARK    7  A    between atoms: P_14  and  O_15 
REMARK    8  A    between atoms: O_15  and  C_16 
REMARK    9  A    between atoms: C_19  and  C_20 
REMARK   10  A    between atoms: C_20  and  C_21 
REMARK   11  A    between atoms: C_21  and  C_23 
ROOT
HETATM    1  C           1     -20.910  -7.106  -3.896  0.00  0.00     0.189 C 
ENDROOT
BRANCH   1   2
HETATM    2  N           1     -20.352  -8.445  -3.907  0.00  0.00    -0.344 N 
HETATM    3  C           1     -21.038  -9.466  -4.509  0.00  0.00     0.249 C 
HETATM    4  O           1     -20.857  -9.708  -5.679  0.00  0.00    -0.271 OA
HETATM    5  H           1     -19.457  -8.624  -3.471  0.00  0.00     0.163 HD
BRANCH   3   6
HETATM    6  C           1     -22.016 -10.291  -3.710  0.00  0.00     0.274 C 
BRANCH   6   7
HETATM    7  N           1     -22.449 -11.476  -4.524  0.00  0.00    -0.067 N 
HETATM    8  H           1     -23.493 -11.514  -4.556  0.00  0.00     0.275 HD
HETATM    9  H           1     -22.075 -11.385  -5.495  0.00  0.00     0.275 HD
HETATM   10  H           1     -22.082 -12.351  -4.087  0.00  0.00     0.275 HD
ENDBRANCH   6   7
BRANCH   6  11
HETATM   11  C           1     -21.347 -10.775  -2.430  0.00  0.00     0.045 C 
BRANCH  11  12
HETATM   12 Se           1     -20.103 -12.214  -2.848  0.00  0.00     0.000 Se
HETATM   13  H           1     -19.264 -11.388  -3.732  0.00  0.00     0.000 HD
ENDBRANCH  11  12
ENDBRANCH   6  11
ENDBRANCH   3   6
ENDBRANCH   1   2
BRANCH   1  14
HETATM   14  C           1     -22.024  -7.013  -4.931  0.00  0.00     0.074 C 
BRANCH  14  15
HETATM   15  C           1     -21.607  -6.089  -6.032  0.00  0.00    -0.056 A 
HETATM   16  C           1     -20.343  -6.217  -6.609  0.00  0.00     0.010 A 
HETATM   17  C           1     -19.955  -5.356  -7.635  0.00  0.00     0.038 A 
HETATM   18  C           1     -20.830  -4.367  -8.084  0.00  0.00     0.081 A 
HETATM   19  C           1     -22.094  -4.239  -7.509  0.00  0.00     0.038 A 
HETATM   20  C           1     -22.482  -5.101  -6.482  0.00  0.00     0.010 A 
BRANCH  18  21
HETATM   21  O           1     -20.452  -3.531  -9.082  0.00  0.00    -0.247 OA
BRANCH  21  22
HETATM   22  P           1     -20.636  -4.037 -10.605  0.00  0.00     0.411 P 
HETATM   23  O           1     -19.616  -5.065 -10.909  0.00  0.00    -0.624 OA
HETATM   24  O           1     -21.987  -4.617 -10.774  0.00  0.00    -0.624 OA
BRANCH  22  25
HETATM   25  O           1     -20.457  -2.786 -11.611  0.00  0.00    -0.300 OA
HETATM   26  H           1     -20.198  -2.066 -11.062  0.00  0.00     0.223 HD
ENDBRANCH  22  25
ENDBRANCH  21  22
ENDBRANCH  18  21
ENDBRANCH  14  15
ENDBRANCH   1  14
BRANCH   1  27
HETATM   27  C           1     -21.469  -6.807  -2.526  0.00  0.00     0.197 C 
HETATM   28  O           1     -21.061  -7.444  -1.531  0.00  0.00    -0.646 OA
HETATM   29  O           1     -22.341  -5.922  -2.387  0.00  0.00    -0.646 OA
ENDBRANCH   1  27
TORSDOF 11
ENDMDL
MODEL 8
REMARK VINA RESULT:      -6.0      6.443      7.957
REMARK  11 active torsions:
REMARK  status: ('A' for Active; 'I' for Inactive)
REMARK    1  A    between atoms: N_3  and  C_6 
REMARK    2  A    between atoms: Se_4  and  C_5 
REMARK    3  A    between atoms: C_5  and  C_6 
REMARK    4  A    between atoms: C_6  and  C_7 
REMARK       I    between atoms: C_7  and  N_8 
REMARK    5  A    between atoms: N_8  and  C_21 
REMARK    6  A    between atoms: O_12  and  P_14 
REMARK    7  A    between atoms: P_14  and  O_15 
REMARK    8  A    between atoms: O_15  and  C_16 
REMARK    9  A    between atoms: C_19  and  C_20 
REMARK   10  A    between atoms: C_20  and  C_21 
REMARK   11  A    between atoms: C_21  and  C_23 
ROOT
HETATM    1  C           1     -35.392  -0.318 -12.099  0.00  0.00     0.189 C 
ENDROOT
BRANCH   1   2
HETATM    2  N           1     -36.458  -0.862 -11.281  0.00  0.00    -0.344 N 
HETATM    3  C           1     -37.092  -0.065 -10.366  0.00  0.00     0.249 C 
HETATM    4  O           1     -38.072   0.564 -10.690  0.00  0.00    -0.271 OA
HETATM    5  H           1     -36.733  -1.830 -11.386  0.00  0.00     0.163 HD
BRANCH   3   6
HETATM    6  C           1     -36.570   0.027  -8.954  0.00  0.00     0.274 C 
BRANCH   6   7
HETATM    7  N           1     -36.071   1.419  -8.696  0.00  0.00    -0.067 N 
HETATM    8  H           1     -35.344   1.395  -7.946  0.00  0.00     0.275 HD
HETATM    9  H           1     -35.654   1.806  -9.573  0.00  0.00     0.275 HD
HETATM   10  H           1     -36.867   2.023  -8.391  0.00  0.00     0.275 HD
ENDBRANCH   6   7
BRANCH   6  11
HETATM   11  C           1     -37.691  -0.298  -7.975  0.00  0.00     0.045 C 
BRANCH  11  12
HETATM   12 Se           1     -37.360   0.607  -6.282  0.00  0.00     0.000 Se
HETATM   13  H           1     -36.340   1.515  -6.833  0.00  0.00     0.000 HD
ENDBRANCH  11  12
ENDBRANCH   6  11
ENDBRANCH   3   6
ENDBRANCH   1   2
BRANCH   1  14
HETATM   14  C           1     -34.102  -1.081 -11.824  0.00  0.00     0.074 C 
BRANCH  14  15
HETATM   15  C           1     -34.390  -2.550 -11.784  0.00  0.00    -0.056 A 
HETATM   16  C           1     -34.105  -3.347 -12.893  0.00  0.00     0.010 A 
HETATM   17  C           1     -34.373  -4.715 -12.855  0.00  0.00     0.038 A 
HETATM   18  C           1     -34.926  -5.286 -11.709  0.00  0.00     0.081 A 
HETATM   19  C           1     -35.211  -4.490 -10.600  0.00  0.00     0.038 A 
HETATM   20  C           1     -34.942  -3.121 -10.638  0.00  0.00     0.010 A 
BRANCH  18  21
HETATM   21  O           1     -35.186  -6.616 -11.673  0.00  0.00    -0.247 OA
BRANCH  21  22
HETATM   22  P           1     -34.407  -7.510 -10.576  0.00  0.00     0.411 P 
HETATM   23  O           1     -32.963  -7.188 -10.613  0.00  0.00    -0.624 OA
HETATM   24  O           1     -34.944  -7.218  -9.228  0.00  0.00    -0.624 OA
BRANCH  22  25
HETATM   25  O           1     -34.619  -9.076 -10.912  0.00  0.00    -0.300 OA
HETATM   26  H           1     -35.458  -9.294 -10.540  0.00  0.00     0.223 HD
ENDBRANCH  22  25
ENDBRANCH  21  22
ENDBRANCH  18  21
ENDBRANCH  14  15
ENDBRANCH   1  14
BRANCH   1  27
HETATM   27  C           1     -35.757  -0.457 -13.557  0.00  0.00     0.197 C 
HETATM   28  O           1     -36.884  -0.891 -13.881  0.00  0.00    -0.646 OA
HETATM   29  O           1     -34.932  -0.139 -14.441  0.00  0.00    -0.646 OA
ENDBRANCH   1  27
TORSDOF 11
ENDMDL
MODEL 9
REMARK VINA RESULT:      -5.9     11.955     14.545
REMARK  11 active torsions:
REMARK  status: ('A' for Active; 'I' for Inactive)
REMARK    1  A    between atoms: N_3  and  C_6 
REMARK    2  A    between atoms: Se_4  and  C_5 
REMARK    3  A    between atoms: C_5  and  C_6 
REMARK    4  A    between atoms: C_6  and  C_7 
REMARK       I    between atoms: C_7  and  N_8 
REMARK    5  A    between atoms: N_8  and  C_21 
REMARK    6  A    between atoms: O_12  and  P_14 
REMARK    7  A    between atoms: P_14  and  O_15 
REMARK    8  A    between atoms: O_15  and  C_16 
REMARK    9  A    between atoms: C_19  and  C_20 
REMARK   10  A    between atoms: C_20  and  C_21 
REMARK   11  A    between atoms: C_21  and  C_23 
ROOT
HETATM    1  C           1     -21.443  -7.966  -5.269  0.00  0.00     0.189 C 
ENDROOT
BRANCH   1   2
HETATM    2  N           1     -22.055  -7.766  -3.969  0.00  0.00    -0.344 N 
HETATM    3  C           1     -21.291  -7.353  -2.910  0.00  0.00     0.249 C 
HETATM    4  O           1     -21.153  -6.174  -2.689  0.00  0.00    -0.271 OA
HETATM    5  H           1     -23.045  -7.932  -3.845  0.00  0.00     0.163 HD
BRANCH   3   6
HETATM    6  C           1     -20.625  -8.372  -2.018  0.00  0.00     0.274 C 
BRANCH   6   7
HETATM    7  N           1     -21.424  -9.642  -2.029  0.00  0.00    -0.067 N 
HETATM    8  H           1     -21.246 -10.173  -1.146  0.00  0.00     0.275 HD
HETATM    9  H           1     -22.441  -9.412  -2.096  0.00  0.00     0.275 HD
HETATM   10  H           1     -21.142 -10.224  -2.849  0.00  0.00     0.275 HD
ENDBRANCH   6   7
BRANCH   6  11
HETATM   11  C           1     -19.219  -8.655  -2.531  0.00  0.00     0.045 C 
BRANCH  11  12
HETATM   12 Se           1     -18.798 -10.539  -2.272  0.00  0.00     0.000 Se
HETATM   13  H           1     -19.929 -11.023  -3.081  0.00  0.00     0.000 HD
ENDBRANCH  11  12
ENDBRANCH   6  11
ENDBRANCH   3   6
ENDBRANCH   1   2
BRANCH   1  14
HETATM   14  C           1     -20.395  -6.885  -5.506  0.00  0.00     0.074 C 
BRANCH  14  15
HETATM   15  C           1     -20.883  -5.939  -6.560  0.00  0.00    -0.056 A 
HETATM   16  C           1     -22.111  -5.295  -6.404  0.00  0.00     0.010 A 
HETATM   17  C           1     -22.564  -4.414  -7.386  0.00  0.00     0.038 A 
HETATM   18  C           1     -21.791  -4.178  -8.522  0.00  0.00     0.081 A 
HETATM   19  C           1     -20.563  -4.821  -8.677  0.00  0.00     0.038 A 
HETATM   20  C           1     -20.110  -5.703  -7.696  0.00  0.00     0.010 A 
BRANCH  18  21
HETATM   21  O           1     -22.232  -3.321  -9.475  0.00  0.00    -0.247 OA
BRANCH  21  22
HETATM   22  P           1     -23.011  -3.938 -10.748  0.00  0.00     0.411 P 
HETATM   23  O           1     -22.042  -4.216 -11.832  0.00  0.00    -0.624 OA
HETATM   24  O           1     -23.683  -5.197 -10.354  0.00  0.00    -0.624 OA
BRANCH  22  25
HETATM   25  O           1     -24.113  -2.880 -11.268  0.00  0.00    -0.300 OA
HETATM   26  H           1     -24.834  -2.962 -10.667  0.00  0.00     0.223 HD
ENDBRANCH  22  25
ENDBRANCH  21  22
ENDBRANCH  18  21
ENDBRANCH  14  15
ENDBRANCH   1  14
BRANCH   1  27
HETATM   27  C           1     -20.785  -9.323  -5.311  0.00  0.00     0.197 C 
HETATM   28  O           1     -19.621  -9.440  -5.754  0.00  0.00    -0.646 OA
HETATM   29  O           1     -21.403 -10.330  -4.904  0.00  0.00    -0.646 OA
ENDBRANCH   1  27
TORSDOF 11
ENDMDL
