MODEL 1
REMARK VINA RESULT:      -7.4      0.000      0.000
REMARK  9 active torsions:
REMARK  status: ('A' for Active; 'I' for Inactive)
REMARK    1  A    between atoms: O_1  and  C_20 
REMARK    2  A    between atoms: C_8  and  C_16 
REMARK    3  A    between atoms: C_8  and  C_13 
REMARK    4  A    between atoms: N_9  and  C_25 
REMARK       I    between atoms: N_9  and  C_15 
REMARK    5  A    between atoms: C_14  and  C_22 
REMARK    6  A    between atoms: C_14  and  C_25 
REMARK    7  A    between atoms: C_15  and  C_16 
REMARK    8  A    between atoms: C_16  and  N_17 
REMARK    9  A    between atoms: C_23  and  C_25 
ROOT
HETATM    1  C           1     -22.164  -5.154  -6.821  0.00  0.00     0.278 C 
ENDROOT
BRANCH   1   2
HETATM    2  C           1     -21.599  -3.838  -7.340  0.00  0.00     0.081 C 
BRANCH   2   3
HETATM    3  C           1     -21.637  -3.834  -8.836  0.00  0.00    -0.056 A 
HETATM    4  C           1     -22.832  -3.564  -9.502  0.00  0.00     0.010 A 
HETATM    5  C           1     -22.867  -3.560 -10.897  0.00  0.00     0.037 A 
HETATM    6  C           1     -21.709  -3.826 -11.625  0.00  0.00     0.065 A 
HETATM    7  C           1     -20.513  -4.096 -10.959  0.00  0.00     0.037 A 
HETATM    8  C           1     -20.477  -4.100  -9.564  0.00  0.00     0.010 A 
BRANCH   6   9
HETATM    9  O           1     -21.743  -3.822 -12.980  0.00  0.00    -0.361 OA
HETATM   10  H           1     -22.672  -3.895 -13.256  0.00  0.00     0.217 HD
ENDBRANCH   6   9
ENDBRANCH   2   3
ENDBRANCH   1   2
BRANCH   1  11
HETATM   11  C           1     -21.313  -5.652  -5.678  0.00  0.00     0.249 C 
HETATM   12  N           1     -21.573  -6.871  -5.112  0.00  0.00    -0.344 N 
HETATM   13  H           1     -22.336  -7.438  -5.459  0.00  0.00     0.163 HD
HETATM   14  O           1     -20.402  -4.976  -5.264  0.00  0.00    -0.271 OA
BRANCH  12  15
HETATM   15  C           1     -20.756  -7.349  -4.014  0.00  0.00     0.195 C 
BRANCH  15  16
HETATM   16  C           1     -21.653  -7.903  -2.916  0.00  0.00     0.149 C 
BRANCH  16  17
HETATM   17  C           1     -21.997  -6.803  -1.943  0.00  0.00     0.175 C 
HETATM   18  O           1     -21.964  -5.609  -2.311  0.00  0.00    -0.648 OA
HETATM   19  O           1     -22.315  -7.085  -0.767  0.00  0.00    -0.648 OA
ENDBRANCH  16  17
ENDBRANCH  15  16
BRANCH  15  20
HETATM   20  C           1     -19.836  -8.438  -4.510  0.00  0.00     0.197 C 
HETATM   21  O           1     -18.962  -8.912  -3.751  0.00  0.00    -0.646 OA
HETATM   22  O           1     -19.948  -8.867  -5.678  0.00  0.00    -0.646 OA
ENDBRANCH  15  20
ENDBRANCH  12  15
ENDBRANCH   1  11
BRANCH   1  23
HETATM   23  N           1     -23.569  -4.939  -6.340  0.00  0.00    -0.066 N 
HETATM   24  H           1     -24.036  -5.863  -6.204  0.00  0.00     0.275 HD
HETATM   25  H           1     -24.098  -4.382  -7.049  0.00  0.00     0.275 HD
HETATM   26  H           1     -23.549  -4.421  -5.432  0.00  0.00     0.275 HD
ENDBRANCH   1  23
TORSDOF 9
ENDMDL
MODEL 2
REMARK VINA RESULT:      -7.2      2.215      7.755
REMARK  9 active torsions:
REMARK  status: ('A' for Active; 'I' for Inactive)
REMARK    1  A    between atoms: O_1  and  C_20 
REMARK    2  A    between atoms: C_8  and  C_16 
REMARK    3  A    between atoms: C_8  and  C_13 
REMARK    4  A    between atoms: N_9  and  C_25 
REMARK       I    between atoms: N_9  and  C_15 
REMARK    5  A    between atoms: C_14  and  C_22 
REMARK    6  A    between atoms: C_14  and  C_25 
REMARK    7  A    between atoms: C_15  and  C_16 
REMARK    8  A    between atoms: C_16  and  N_17 
REMARK    9  A    between atoms: C_23  and  C_25 
ROOT
HETATM    1  C           1     -21.130  -5.720  -6.833  0.00  0.00     0.278 C 
ENDROOT
BRANCH   1   2
HETATM    2  C           1     -20.856  -5.233  -5.416  0.00  0.00     0.081 C 
BRANCH   2   3
HETATM    3  C           1     -21.137  -6.338  -4.446  0.00  0.00    -0.056 A 
HETATM    4  C           1     -21.234  -7.654  -4.898  0.00  0.00     0.010 A 
HETATM    5  C           1     -21.494  -8.684  -3.994  0.00  0.00     0.037 A 
HETATM    6  C           1     -21.658  -8.398  -2.639  0.00  0.00     0.065 A 
HETATM    7  C           1     -21.561  -7.082  -2.187  0.00  0.00     0.037 A 
HETATM    8  C           1     -21.300  -6.052  -3.090  0.00  0.00     0.010 A 
BRANCH   6   9
HETATM    9  O           1     -21.911  -9.399  -1.761  0.00  0.00    -0.361 OA
HETATM   10  H           1     -21.112  -9.538  -1.227  0.00  0.00     0.217 HD
ENDBRANCH   6   9
ENDBRANCH   2   3
ENDBRANCH   1   2
BRANCH   1  11
HETATM   11  C           1     -21.680  -4.583  -7.659  0.00  0.00     0.249 C 
HETATM   12  N           1     -22.263  -4.836  -8.873  0.00  0.00    -0.344 N 
HETATM   13  H           1     -22.324  -5.787  -9.215  0.00  0.00     0.163 HD
HETATM   14  O           1     -21.607  -3.449  -7.250  0.00  0.00    -0.271 OA
BRANCH  12  15
HETATM   15  C           1     -22.791  -3.745  -9.666  0.00  0.00     0.195 C 
BRANCH  15  16
HETATM   16  C           1     -22.255  -3.844 -11.088  0.00  0.00     0.149 C 
BRANCH  16  17
HETATM   17  C           1     -20.753  -3.709 -11.071  0.00  0.00     0.175 C 
HETATM   18  O           1     -20.037  -4.709 -10.846  0.00  0.00    -0.648 OA
HETATM   19  O           1     -20.222  -2.597 -11.282  0.00  0.00    -0.648 OA
ENDBRANCH  16  17
ENDBRANCH  15  16
BRANCH  15  20
HETATM   20  C           1     -24.297  -3.823  -9.689  0.00  0.00     0.197 C 
HETATM   21  O           1     -24.862  -4.923  -9.880  0.00  0.00    -0.646 OA
HETATM   22  O           1     -24.980  -2.791  -9.517  0.00  0.00    -0.646 OA
ENDBRANCH  15  20
ENDBRANCH  12  15
ENDBRANCH   1  11
BRANCH   1  23
HETATM   23  N           1     -19.853  -6.211  -7.448  0.00  0.00    -0.066 N 
HETATM   24  H           1     -19.181  -5.416  -7.537  0.00  0.00     0.275 HD
HETATM   25  H           1     -20.051  -6.607  -8.394  0.00  0.00     0.275 HD
HETATM   26  H           1     -19.437  -6.951  -6.838  0.00  0.00     0.275 HD
ENDBRANCH   1  23
TORSDOF 9
ENDMDL
MODEL 3
REMARK VINA RESULT:      -7.0      1.396      2.859
REMARK  9 active torsions:
REMARK  status: ('A' for Active; 'I' for Inactive)
REMARK    1  A    between atoms: O_1  and  C_20 
REMARK    2  A    between atoms: C_8  and  C_16 
REMARK    3  A    between atoms: C_8  and  C_13 
REMARK    4  A    between atoms: N_9  and  C_25 
REMARK       I    between atoms: N_9  and  C_15 
REMARK    5  A    between atoms: C_14  and  C_22 
REMARK    6  A    between atoms: C_14  and  C_25 
REMARK    7  A    between atoms: C_15  and  C_16 
REMARK    8  A    between atoms: C_16  and  N_17 
REMARK    9  A    between atoms: C_23  and  C_25 
ROOT
HETATM    1  C           1     -20.897  -4.888  -6.480  0.00  0.00     0.278 C 
ENDROOT
BRANCH   1   2
HETATM    2  C           1     -20.616  -5.604  -7.795  0.00  0.00     0.081 C 
BRANCH   2   3
HETATM    3  C           1     -21.140  -4.782  -8.931  0.00  0.00    -0.056 A 
HETATM    4  C           1     -22.466  -4.350  -8.925  0.00  0.00     0.010 A 
HETATM    5  C           1     -22.954  -3.584  -9.984  0.00  0.00     0.037 A 
HETATM    6  C           1     -22.117  -3.250 -11.048  0.00  0.00     0.065 A 
HETATM    7  C           1     -20.791  -3.683 -11.054  0.00  0.00     0.037 A 
HETATM    8  C           1     -20.301  -4.448  -9.995  0.00  0.00     0.010 A 
BRANCH   6   9
HETATM    9  O           1     -22.591  -2.507 -12.077  0.00  0.00    -0.361 OA
HETATM   10  H           1     -21.838  -2.050 -12.488  0.00  0.00     0.217 HD
ENDBRANCH   6   9
ENDBRANCH   2   3
ENDBRANCH   1   2
BRANCH   1  11
HETATM   11  C           1     -21.617  -5.825  -5.541  0.00  0.00     0.249 C 
HETATM   12  N           1     -20.901  -6.626  -4.690  0.00  0.00    -0.344 N 
HETATM   13  H           1     -19.890  -6.589  -4.692  0.00  0.00     0.163 HD
HETATM   14  O           1     -22.824  -5.869  -5.538  0.00  0.00    -0.271 OA
BRANCH  12  15
HETATM   15  C           1     -21.592  -7.526  -3.789  0.00  0.00     0.195 C 
BRANCH  15  16
HETATM   16  C           1     -20.876  -8.870  -3.765  0.00  0.00     0.149 C 
BRANCH  16  17
HETATM   17  C           1     -20.390  -9.206  -5.152  0.00  0.00     0.175 C 
HETATM   18  O           1     -19.174  -9.123  -5.427  0.00  0.00    -0.648 OA
HETATM   19  O           1     -21.204  -9.569  -6.029  0.00  0.00    -0.648 OA
ENDBRANCH  16  17
ENDBRANCH  15  16
BRANCH  15  20
HETATM   20  C           1     -21.602  -6.936  -2.400  0.00  0.00     0.197 C 
HETATM   21  O           1     -20.897  -7.444  -1.500  0.00  0.00    -0.646 OA
HETATM   22  O           1     -22.313  -5.940  -2.149  0.00  0.00    -0.646 OA
ENDBRANCH  15  20
ENDBRANCH  12  15
ENDBRANCH   1  11
BRANCH   1  23
HETATM   23  N           1     -19.601  -4.457  -5.859  0.00  0.00    -0.066 N 
HETATM   24  H           1     -19.584  -3.416  -5.774  0.00  0.00     0.275 HD
HETATM   25  H           1     -18.806  -4.771  -6.460  0.00  0.00     0.275 HD
HETATM   26  H           1     -19.512  -4.886  -4.910  0.00  0.00     0.275 HD
ENDBRANCH   1  23
TORSDOF 9
ENDMDL
MODEL 4
REMARK VINA RESULT:      -6.7      1.418      2.081
REMARK  9 active torsions:
REMARK  status: ('A' for Active; 'I' for Inactive)
REMARK    1  A    between atoms: O_1  and  C_20 
REMARK    2  A    between atoms: C_8  and  C_16 
REMARK    3  A    between atoms: C_8  and  C_13 
REMARK    4  A    between atoms: N_9  and  C_25 
REMARK       I    between atoms: N_9  and  C_15 
REMARK    5  A    between atoms: C_14  and  C_22 
REMARK    6  A    between atoms: C_14  and  C_25 
REMARK    7  A    between atoms: C_15  and  C_16 
REMARK    8  A    between atoms: C_16  and  N_17 
REMARK    9  A    between atoms: C_23  and  C_25 
ROOT
HETATM    1  C           1     -21.574  -5.944  -6.574  0.00  0.00     0.278 C 
ENDROOT
BRANCH   1   2
HETATM    2  C           1     -20.965  -4.611  -6.987  0.00  0.00     0.081 C 
BRANCH   2   3
HETATM    3  C           1     -21.154  -4.409  -8.458  0.00  0.00    -0.056 A 
HETATM    4  C           1     -20.090  -4.626  -9.333  0.00  0.00     0.010 A 
HETATM    5  C           1     -20.267  -4.439 -10.705  0.00  0.00     0.037 A 
HETATM    6  C           1     -21.506  -4.036 -11.200  0.00  0.00     0.065 A 
HETATM    7  C           1     -22.571  -3.820 -10.325  0.00  0.00     0.037 A 
HETATM    8  C           1     -22.395  -4.007  -8.953  0.00  0.00     0.010 A 
BRANCH   6   9
HETATM    9  O           1     -21.678  -3.854 -12.532  0.00  0.00    -0.361 OA
HETATM   10  H           1     -20.943  -3.307 -12.856  0.00  0.00     0.217 HD
ENDBRANCH   6   9
ENDBRANCH   2   3
ENDBRANCH   1   2
BRANCH   1  11
HETATM   11  C           1     -20.476  -6.894  -6.162  0.00  0.00     0.249 C 
HETATM   12  N           1     -20.697  -7.805  -5.164  0.00  0.00    -0.344 N 
HETATM   13  H           1     -21.596  -7.842  -4.703  0.00  0.00     0.163 HD
HETATM   14  O           1     -19.402  -6.851  -6.713  0.00  0.00    -0.271 OA
BRANCH  12  15
HETATM   15  C           1     -19.642  -8.717  -4.768  0.00  0.00     0.195 C 
BRANCH  15  16
HETATM   16  C           1     -19.544  -8.752  -3.249  0.00  0.00     0.149 C 
BRANCH  16  17
HETATM   17  C           1     -20.838  -8.260  -2.649  0.00  0.00     0.175 C 
HETATM   18  O           1     -21.783  -9.056  -2.463  0.00  0.00    -0.648 OA
HETATM   19  O           1     -20.965  -7.055  -2.338  0.00  0.00    -0.648 OA
ENDBRANCH  16  17
ENDBRANCH  15  16
BRANCH  15  20
HETATM   20  C           1     -19.953 -10.100  -5.285  0.00  0.00     0.197 C 
HETATM   21  O           1     -20.970 -10.290  -5.988  0.00  0.00    -0.646 OA
HETATM   22  O           1     -19.196 -11.055  -5.011  0.00  0.00    -0.646 OA
ENDBRANCH  15  20
ENDBRANCH  12  15
ENDBRANCH   1  11
BRANCH   1  23
HETATM   23  N           1     -22.508  -5.731  -5.420  0.00  0.00    -0.066 N 
HETATM   24  H           1     -22.207  -6.323  -4.614  0.00  0.00     0.275 HD
HETATM   25  H           1     -23.478  -5.995  -5.703  0.00  0.00     0.275 HD
HETATM   26  H           1     -22.488  -4.724  -5.139  0.00  0.00     0.275 HD
ENDBRANCH   1  23
TORSDOF 9
ENDMDL
MODEL 5
REMARK VINA RESULT:      -6.5      2.213      7.756
REMARK  9 active torsions:
REMARK  status: ('A' for Active; 'I' for Inactive)
REMARK    1  A    between atoms: O_1  and  C_20 
REMARK    2  A    between atoms: C_8  and  C_16 
REMARK    3  A    between atoms: C_8  and  C_13 
REMARK    4  A    between atoms: N_9  and  C_25 
REMARK       I    between atoms: N_9  and  C_15 
REMARK    5  A    between atoms: C_14  and  C_22 
REMARK    6  A    between atoms: C_14  and  C_25 
REMARK    7  A    between atoms: C_15  and  C_16 
REMARK    8  A    between atoms: C_16  and  N_17 
REMARK    9  A    between atoms: C_23  and  C_25 
ROOT
HETATM    1  C           1     -20.821  -5.894  -5.246  0.00  0.00     0.278 C 
ENDROOT
BRANCH   1   2
HETATM    2  C           1     -22.105  -6.110  -4.455  0.00  0.00     0.081 C 
BRANCH   2   3
HETATM    3  C           1     -21.784  -6.784  -3.157  0.00  0.00    -0.056 A 
HETATM    4  C           1     -20.877  -7.843  -3.129  0.00  0.00     0.010 A 
HETATM    5  C           1     -20.578  -8.472  -1.920  0.00  0.00     0.037 A 
HETATM    6  C           1     -21.184  -8.041  -0.741  0.00  0.00     0.065 A 
HETATM    7  C           1     -22.091  -6.982  -0.769  0.00  0.00     0.037 A 
HETATM    8  C           1     -22.391  -6.353  -1.978  0.00  0.00     0.010 A 
BRANCH   6   9
HETATM    9  O           1     -20.893  -8.652   0.434  0.00  0.00    -0.361 OA
HETATM   10  H           1     -19.936  -8.572   0.584  0.00  0.00     0.217 HD
ENDBRANCH   6   9
ENDBRANCH   2   3
ENDBRANCH   1   2
BRANCH   1  11
HETATM   11  C           1     -21.144  -5.810  -6.717  0.00  0.00     0.249 C 
HETATM   12  N           1     -21.748  -4.689  -7.223  0.00  0.00    -0.344 N 
HETATM   13  H           1     -21.978  -3.918  -6.610  0.00  0.00     0.163 HD
HETATM   14  O           1     -20.871  -6.730  -7.450  0.00  0.00    -0.271 OA
BRANCH  12  15
HETATM   15  C           1     -22.059  -4.608  -8.636  0.00  0.00     0.195 C 
BRANCH  15  16
HETATM   16  C           1     -23.129  -3.548  -8.862  0.00  0.00     0.149 C 
BRANCH  16  17
HETATM   17  C           1     -24.153  -4.066  -9.841  0.00  0.00     0.175 C 
HETATM   18  O           1     -25.139  -3.362 -10.145  0.00  0.00    -0.648 OA
HETATM   19  O           1     -24.014  -5.200 -10.350  0.00  0.00    -0.648 OA
ENDBRANCH  16  17
ENDBRANCH  15  16
BRANCH  15  20
HETATM   20  C           1     -20.814  -4.238  -9.404  0.00  0.00     0.197 C 
HETATM   21  O           1     -19.863  -3.677  -8.818  0.00  0.00    -0.646 OA
HETATM   22  O           1     -20.734  -4.492 -10.625  0.00  0.00    -0.646 OA
ENDBRANCH  15  20
ENDBRANCH  12  15
ENDBRANCH   1  11
BRANCH   1  23
HETATM   23  N           1     -20.172  -4.615  -4.804  0.00  0.00    -0.066 N 
HETATM   24  H           1     -19.181  -4.595  -5.134  0.00  0.00     0.275 HD
HETATM   25  H           1     -20.193  -4.557  -3.761  0.00  0.00     0.275 HD
HETATM   26  H           1     -20.691  -3.804  -5.210  0.00  0.00     0.275 HD
ENDBRANCH   1  23
TORSDOF 9
ENDMDL
MODEL 6
REMARK VINA RESULT:      -6.4      2.245      3.527
REMARK  9 active torsions:
REMARK  status: ('A' for Active; 'I' for Inactive)
REMARK    1  A    between atoms: O_1  and  C_20 
REMARK    2  A    between atoms: C_8  and  C_16 
REMARK    3  A    between atoms: C_8  and  C_13 
REMARK    4  A    between atoms: N_9  and  C_25 
REMARK       I    between atoms: N_9  and  C_15 
REMARK    5  A    between atoms: C_14  and  C_22 
REMARK    6  A    between atoms: C_14  and  C_25 
REMARK    7  A    between atoms: C_15  and  C_16 
REMARK    8  A    between atoms: C_16  and  N_17 
REMARK    9  A    between atoms: C_23  and  C_25 
ROOT
HETATM    1  C           1     -20.312  -7.830  -4.927  0.00  0.00     0.278 C 
ENDROOT
BRANCH   1   2
HETATM    2  C           1     -20.941  -6.453  -4.751  0.00  0.00     0.081 C 
BRANCH   2   3
HETATM    3  C           1     -20.984  -5.752  -6.073  0.00  0.00    -0.056 A 
HETATM    4  C           1     -22.163  -5.139  -6.497  0.00  0.00     0.010 A 
HETATM    5  C           1     -22.204  -4.486  -7.729  0.00  0.00     0.037 A 
HETATM    6  C           1     -21.067  -4.444  -8.535  0.00  0.00     0.065 A 
HETATM    7  C           1     -19.888  -5.057  -8.110  0.00  0.00     0.037 A 
HETATM    8  C           1     -19.846  -5.711  -6.878  0.00  0.00     0.010 A 
BRANCH   6   9
HETATM    9  O           1     -21.107  -3.809  -9.732  0.00  0.00    -0.361 OA
HETATM   10  H           1     -20.809  -2.894  -9.595  0.00  0.00     0.217 HD
ENDBRANCH   6   9
ENDBRANCH   2   3
ENDBRANCH   1   2
BRANCH   1  11
HETATM   11  C           1     -20.134  -8.478  -3.576  0.00  0.00     0.249 C 
HETATM   12  N           1     -21.197  -8.573  -2.716  0.00  0.00    -0.344 N 
HETATM   13  H           1     -22.100  -8.208  -2.988  0.00  0.00     0.163 HD
HETATM   14  O           1     -19.055  -8.914  -3.252  0.00  0.00    -0.271 OA
BRANCH  12  15
HETATM   15  C           1     -21.026  -9.196  -1.419  0.00  0.00     0.195 C 
BRANCH  15  16
HETATM   16  C           1     -21.138  -8.138  -0.329  0.00  0.00     0.149 C 
BRANCH  16  17
HETATM   17  C           1     -22.348  -7.275  -0.587  0.00  0.00     0.175 C 
HETATM   18  O           1     -22.290  -6.350  -1.424  0.00  0.00    -0.648 OA
HETATM   19  O           1     -23.410  -7.486   0.039  0.00  0.00    -0.648 OA
ENDBRANCH  16  17
ENDBRANCH  15  16
BRANCH  15  20
HETATM   20  C           1     -22.096 -10.240  -1.218  0.00  0.00     0.197 C 
HETATM   21  O           1     -22.294 -10.722  -0.081  0.00  0.00    -0.646 OA
HETATM   22  O           1     -22.785 -10.624  -2.188  0.00  0.00    -0.646 OA
ENDBRANCH  15  20
ENDBRANCH  12  15
ENDBRANCH   1  11
BRANCH   1  23
HETATM   23  N           1     -21.208  -8.682  -5.776  0.00  0.00    -0.066 N 
HETATM   24  H           1     -21.022  -8.487  -6.785  0.00  0.00     0.275 HD
HETATM   25  H           1     -22.206  -8.464  -5.557  0.00  0.00     0.275 HD
HETATM   26  H           1     -21.019  -9.691  -5.576  0.00  0.00     0.275 HD
ENDBRANCH   1  23
TORSDOF 9
ENDMDL
MODEL 7
REMARK VINA RESULT:      -6.2      1.306      2.100
REMARK  9 active torsions:
REMARK  status: ('A' for Active; 'I' for Inactive)
REMARK    1  A    between atoms: O_1  and  C_20 
REMARK    2  A    between atoms: C_8  and  C_16 
REMARK    3  A    between atoms: C_8  and  C_13 
REMARK    4  A    between atoms: N_9  and  C_25 
REMARK       I    between atoms: N_9  and  C_15 
REMARK    5  A    between atoms: C_14  and  C_22 
REMARK    6  A    between atoms: C_14  and  C_25 
REMARK    7  A    between atoms: C_15  and  C_16 
REMARK    8  A    between atoms: C_16  and  N_17 
REMARK    9  A    between atoms: C_23  and  C_25 
ROOT
HETATM    1  C           1     -21.747  -5.969  -5.610  0.00  0.00     0.278 C 
ENDROOT
BRANCH   1   2
HETATM    2  C           1     -21.179  -4.620  -6.032  0.00  0.00     0.081 C 
BRANCH   2   3
HETATM    3  C           1     -21.214  -4.509  -7.524  0.00  0.00    -0.056 A 
HETATM    4  C           1     -20.098  -4.875  -8.276  0.00  0.00     0.010 A 
HETATM    5  C           1     -20.131  -4.771  -9.668  0.00  0.00     0.037 A 
HETATM    6  C           1     -21.278  -4.303 -10.305  0.00  0.00     0.065 A 
HETATM    7  C           1     -22.394  -3.936  -9.553  0.00  0.00     0.037 A 
HETATM    8  C           1     -22.363  -4.040  -8.162  0.00  0.00     0.010 A 
BRANCH   6   9
HETATM    9  O           1     -21.310  -4.202 -11.657  0.00  0.00    -0.361 OA
HETATM   10  H           1     -21.950  -4.852 -11.990  0.00  0.00     0.217 HD
ENDBRANCH   6   9
ENDBRANCH   2   3
ENDBRANCH   1   2
BRANCH   1  11
HETATM   11  C           1     -21.174  -6.359  -4.269  0.00  0.00     0.249 C 
HETATM   12  N           1     -21.181  -7.672  -3.878  0.00  0.00    -0.344 N 
HETATM   13  H           1     -21.570  -8.379  -4.487  0.00  0.00     0.163 HD
HETATM   14  O           1     -20.708  -5.515  -3.542  0.00  0.00    -0.271 OA
BRANCH  12  15
HETATM   15  C           1     -20.631  -8.047  -2.590  0.00  0.00     0.195 C 
BRANCH  15  16
HETATM   16  C           1     -21.730  -8.642  -1.722  0.00  0.00     0.149 C 
BRANCH  16  17
HETATM   17  C           1     -22.196  -7.612  -0.722  0.00  0.00     0.175 C 
HETATM   18  O           1     -22.130  -7.854   0.502  0.00  0.00    -0.648 OA
HETATM   19  O           1     -22.648  -6.516  -1.119  0.00  0.00    -0.648 OA
ENDBRANCH  16  17
ENDBRANCH  15  16
BRANCH  15  20
HETATM   20  C           1     -19.538  -9.069  -2.789  0.00  0.00     0.197 C 
HETATM   21  O           1     -18.780  -8.987  -3.781  0.00  0.00    -0.646 OA
HETATM   22  O           1     -19.391  -9.995  -1.964  0.00  0.00    -0.646 OA
ENDBRANCH  15  20
ENDBRANCH  12  15
ENDBRANCH   1  11
BRANCH   1  23
HETATM   23  N           1     -23.240  -5.871  -5.505  0.00  0.00    -0.066 N 
HETATM   24  H           1     -23.634  -6.804  -5.249  0.00  0.00     0.275 HD
HETATM   25  H           1     -23.634  -5.567  -6.424  0.00  0.00     0.275 HD
HETATM   26  H           1     -23.491  -5.173  -4.769  0.00  0.00     0.275 HD
ENDBRANCH   1  23
TORSDOF 9
ENDMDL
MODEL 8
REMARK VINA RESULT:      -6.0      6.658      8.923
REMARK  9 active torsions:
REMARK  status: ('A' for Active; 'I' for Inactive)
REMARK    1  A    between atoms: O_1  and  C_20 
REMARK    2  A    between atoms: C_8  and  C_16 
REMARK    3  A    between atoms: C_8  and  C_13 
REMARK    4  A    between atoms: N_9  and  C_25 
REMARK       I    between atoms: N_9  and  C_15 
REMARK    5  A    between atoms: C_14  and  C_22 
REMARK    6  A    between atoms: C_14  and  C_25 
REMARK    7  A    between atoms: C_15  and  C_16 
REMARK    8  A    between atoms: C_16  and  N_17 
REMARK    9  A    between atoms: C_23  and  C_25 
ROOT
HETATM    1  C           1     -20.799 -11.676  -0.801  0.00  0.00     0.278 C 
ENDROOT
BRANCH   1   2
HETATM    2  C           1     -20.757 -10.601   0.278  0.00  0.00     0.081 C 
BRANCH   2   3
HETATM    3  C           1     -21.226  -9.300  -0.295  0.00  0.00    -0.056 A 
HETATM    4  C           1     -20.607  -8.777  -1.431  0.00  0.00     0.010 A 
HETATM    5  C           1     -21.044  -7.564  -1.965  0.00  0.00     0.037 A 
HETATM    6  C           1     -22.097  -6.876  -1.365  0.00  0.00     0.065 A 
HETATM    7  C           1     -22.716  -7.399  -0.230  0.00  0.00     0.037 A 
HETATM    8  C           1     -22.280  -8.612   0.306  0.00  0.00     0.010 A 
BRANCH   6   9
HETATM    9  O           1     -22.521  -5.698  -1.884  0.00  0.00    -0.361 OA
HETATM   10  H           1     -22.964  -5.885  -2.729  0.00  0.00     0.217 HD
ENDBRANCH   6   9
ENDBRANCH   2   3
ENDBRANCH   1   2
BRANCH   1  11
HETATM   11  C           1     -19.433 -12.301  -0.941  0.00  0.00     0.249 C 
HETATM   12  N           1     -18.309 -11.534  -0.786  0.00  0.00    -0.344 N 
HETATM   13  H           1     -18.395 -10.548  -0.577  0.00  0.00     0.163 HD
HETATM   14  O           1     -19.330 -13.479  -1.189  0.00  0.00    -0.271 OA
BRANCH  12  15
HETATM   15  C           1     -16.997 -12.135  -0.920  0.00  0.00     0.195 C 
BRANCH  15  16
HETATM   16  C           1     -16.105 -11.226  -1.756  0.00  0.00     0.149 C 
BRANCH  16  17
HETATM   17  C           1     -16.943 -10.502  -2.780  0.00  0.00     0.175 C 
HETATM   18  O           1     -17.151  -9.275  -2.664  0.00  0.00    -0.648 OA
HETATM   19  O           1     -17.430 -11.129  -3.746  0.00  0.00    -0.648 OA
ENDBRANCH  16  17
ENDBRANCH  15  16
BRANCH  15  20
HETATM   20  C           1     -16.386 -12.318   0.448  0.00  0.00     0.197 C 
HETATM   21  O           1     -15.416 -11.611   0.799  0.00  0.00    -0.646 OA
HETATM   22  O           1     -16.849 -13.177   1.229  0.00  0.00    -0.646 OA
ENDBRANCH  15  20
ENDBRANCH  12  15
ENDBRANCH   1  11
BRANCH   1  23
HETATM   23  N           1     -21.794 -12.730  -0.417  0.00  0.00    -0.066 N 
HETATM   24  H           1     -21.734 -12.908   0.610  0.00  0.00     0.275 HD
HETATM   25  H           1     -21.585 -13.612  -0.936  0.00  0.00     0.275 HD
HETATM   26  H           1     -22.757 -12.403  -0.658  0.00  0.00     0.275 HD
ENDBRANCH   1  23
TORSDOF 9
ENDMDL
MODEL 9
REMARK VINA RESULT:      -5.9      5.645      8.085
REMARK  9 active torsions:
REMARK  status: ('A' for Active; 'I' for Inactive)
REMARK    1  A    between atoms: O_1  and  C_20 
REMARK    2  A    between atoms: C_8  and  C_16 
REMARK    3  A    between atoms: C_8  and  C_13 
REMARK    4  A    between atoms: N_9  and  C_25 
REMARK       I    between atoms: N_9  and  C_15 
REMARK    5  A    between atoms: C_14  and  C_22 
REMARK    6  A    between atoms: C_14  and  C_25 
REMARK    7  A    between atoms: C_15  and  C_16 
REMARK    8  A    between atoms: C_16  and  N_17 
REMARK    9  A    between atoms: C_23  and  C_25 
ROOT
HETATM    1  C           1     -20.164  -9.205  -3.998  0.00  0.00     0.278 C 
ENDROOT
BRANCH   1   2
HETATM    2  C           1     -19.592  -8.946  -2.610  0.00  0.00     0.081 C 
BRANCH   2   3
HETATM    3  C           1     -20.699  -8.561  -1.678  0.00  0.00    -0.056 A 
HETATM    4  C           1     -21.355  -7.340  -1.843  0.00  0.00     0.010 A 
HETATM    5  C           1     -22.387  -6.982  -0.975  0.00  0.00     0.037 A 
HETATM    6  C           1     -22.763  -7.842   0.056  0.00  0.00     0.065 A 
HETATM    7  C           1     -22.107  -9.062   0.220  0.00  0.00     0.037 A 
HETATM    8  C           1     -21.075  -9.422  -0.648  0.00  0.00     0.010 A 
BRANCH   6   9
HETATM    9  O           1     -23.765  -7.493   0.899  0.00  0.00    -0.361 OA
HETATM   10  H           1     -23.503  -6.675   1.353  0.00  0.00     0.217 HD
ENDBRANCH   6   9
ENDBRANCH   2   3
ENDBRANCH   1   2
BRANCH   1  11
HETATM   11  C           1     -19.039  -9.270  -5.002  0.00  0.00     0.249 C 
HETATM   12  N           1     -18.010 -10.156  -4.821  0.00  0.00    -0.344 N 
HETATM   13  H           1     -18.005 -10.767  -4.014  0.00  0.00     0.163 HD
HETATM   14  O           1     -19.045  -8.541  -5.965  0.00  0.00    -0.271 OA
BRANCH  12  15
HETATM   15  C           1     -16.930 -10.219  -5.785  0.00  0.00     0.195 C 
BRANCH  15  16
HETATM   16  C           1     -15.600 -10.016  -5.071  0.00  0.00     0.149 C 
BRANCH  16  17
HETATM   17  C           1     -15.786 -10.229  -3.589  0.00  0.00     0.175 C 
HETATM   18  O           1     -15.982  -9.252  -2.836  0.00  0.00    -0.648 OA
HETATM   19  O           1     -15.743 -11.385  -3.114  0.00  0.00    -0.648 OA
ENDBRANCH  16  17
ENDBRANCH  15  16
BRANCH  15  20
HETATM   20  C           1     -16.937 -11.568  -6.461  0.00  0.00     0.197 C 
HETATM   21  O           1     -15.892 -12.254  -6.497  0.00  0.00    -0.646 OA
HETATM   22  O           1     -17.987 -11.999  -6.984  0.00  0.00    -0.646 OA
ENDBRANCH  15  20
ENDBRANCH  12  15
ENDBRANCH   1  11
BRANCH   1  23
HETATM   23  N           1     -20.907 -10.509  -3.995  0.00  0.00    -0.066 N 
HETATM   24  H           1     -20.334 -11.235  -3.509  0.00  0.00     0.275 HD
HETATM   25  H           1     -21.087 -10.809  -4.980  0.00  0.00     0.275 HD
HETATM   26  H           1     -21.816 -10.389  -3.495  0.00  0.00     0.275 HD
ENDBRANCH   1  23
TORSDOF 9
ENDMDL
