MODEL 1
REMARK VINA RESULT:      -7.9      0.000      0.000
REMARK  8 active torsions:
REMARK  status: ('A' for Active; 'I' for Inactive)
REMARK    1  A    between atoms: N_4  and  C_10 
REMARK       I    between atoms: N_4  and  C_5 
REMARK    2  A    between atoms: C_5  and  C_22 
REMARK    3  A    between atoms: C_9  and  C_10 
REMARK    4  A    between atoms: C_9  and  C_17 
REMARK    5  A    between atoms: C_10  and  C_26 
REMARK    6  A    between atoms: C_13  and  C_22 
REMARK    7  A    between atoms: C_13  and  C_16 
REMARK    8  A    between atoms: N_21  and  C_22 
ROOT
HETATM    1  N           1     -20.797  -7.596  -6.026  0.00  0.00    -0.344 N 
HETATM    2  C           1     -20.205  -6.486  -6.568  0.00  0.00     0.249 C 
HETATM    3  O           1     -19.247  -6.605  -7.292  0.00  0.00    -0.271 OA
HETATM    4  H           1     -21.547  -8.062  -6.520  0.00  0.00     0.163 HD
ENDROOT
BRANCH   2   5
HETATM    5  C           1     -20.753  -5.114  -6.259  0.00  0.00     0.278 C 
BRANCH   5   6
HETATM    6  C           1     -20.345  -4.144  -7.361  0.00  0.00     0.081 C 
BRANCH   6   7
HETATM    7  C           1     -21.355  -4.188  -8.465  0.00  0.00    -0.056 A 
HETATM    8  C           1     -20.934  -4.241  -9.794  0.00  0.00     0.007 A 
HETATM    9  C           1     -21.875  -4.281 -10.822  0.00  0.00     0.001 A 
HETATM   10  C           1     -23.237  -4.270 -10.522  0.00  0.00     0.000 A 
HETATM   11  C           1     -23.658  -4.216  -9.194  0.00  0.00     0.001 A 
HETATM   12  C           1     -22.716  -4.176  -8.165  0.00  0.00     0.007 A 
ENDBRANCH   6   7
ENDBRANCH   5   6
BRANCH   5  13
HETATM   13  N           1     -20.201  -4.639  -4.947  0.00  0.00    -0.066 N 
HETATM   14  H           1     -19.878  -3.650  -5.043  0.00  0.00     0.275 HD
HETATM   15  H           1     -19.397  -5.244  -4.668  0.00  0.00     0.275 HD
HETATM   16  H           1     -20.947  -4.693  -4.217  0.00  0.00     0.275 HD
ENDBRANCH   5  13
ENDBRANCH   2   5
BRANCH   1  17
HETATM   17  C           1     -20.348  -8.103  -4.744  0.00  0.00     0.189 C 
BRANCH  17  18
HETATM   18  C           1     -21.482  -8.868  -4.076  0.00  0.00     0.074 C 
BRANCH  18  19
HETATM   19  C           1     -21.771  -8.264  -2.736  0.00  0.00    -0.056 A 
HETATM   20  C           1     -21.889  -6.880  -2.606  0.00  0.00     0.007 A 
HETATM   21  C           1     -22.159  -6.318  -1.358  0.00  0.00     0.001 A 
HETATM   22  C           1     -22.311  -7.139  -0.241  0.00  0.00     0.000 A 
HETATM   23  C           1     -22.194  -8.523  -0.372  0.00  0.00     0.001 A 
HETATM   24  C           1     -21.924  -9.086  -1.619  0.00  0.00     0.007 A 
ENDBRANCH  18  19
ENDBRANCH  17  18
BRANCH  17  25
HETATM   25  C           1     -19.172  -9.025  -4.952  0.00  0.00     0.197 C 
HETATM   26  O           1     -19.099  -9.721  -5.989  0.00  0.00    -0.646 OA
HETATM   27  O           1     -18.271  -9.095  -4.089  0.00  0.00    -0.646 OA
ENDBRANCH  17  25
ENDBRANCH   1  17
TORSDOF 8
ENDMDL
MODEL 2
REMARK VINA RESULT:      -7.9      1.563      7.661
REMARK  8 active torsions:
REMARK  status: ('A' for Active; 'I' for Inactive)
REMARK    1  A    between atoms: N_4  and  C_10 
REMARK       I    between atoms: N_4  and  C_5 
REMARK    2  A    between atoms: C_5  and  C_22 
REMARK    3  A    between atoms: C_9  and  C_10 
REMARK    4  A    between atoms: C_9  and  C_17 
REMARK    5  A    between atoms: C_10  and  C_26 
REMARK    6  A    between atoms: C_13  and  C_22 
REMARK    7  A    between atoms: C_13  and  C_16 
REMARK    8  A    between atoms: N_21  and  C_22 
ROOT
HETATM    1  N           1     -22.197  -5.568  -5.637  0.00  0.00    -0.344 N 
HETATM    2  C           1     -21.526  -6.194  -4.621  0.00  0.00     0.249 C 
HETATM    3  O           1     -20.820  -5.554  -3.879  0.00  0.00    -0.271 OA
HETATM    4  H           1     -23.127  -5.203  -5.480  0.00  0.00     0.163 HD
ENDROOT
BRANCH   2   5
HETATM    5  C           1     -21.669  -7.684  -4.428  0.00  0.00     0.278 C 
BRANCH   5   6
HETATM    6  C           1     -20.754  -8.140  -3.299  0.00  0.00     0.081 C 
BRANCH   6   7
HETATM    7  C           1     -21.572  -8.434  -2.080  0.00  0.00    -0.056 A 
HETATM    8  C           1     -22.037  -9.729  -1.849  0.00  0.00     0.007 A 
HETATM    9  C           1     -22.799 -10.003  -0.714  0.00  0.00     0.001 A 
HETATM   10  C           1     -23.096  -8.983   0.191  0.00  0.00     0.000 A 
HETATM   11  C           1     -22.631  -7.689  -0.041  0.00  0.00     0.001 A 
HETATM   12  C           1     -21.868  -7.415  -1.177  0.00  0.00     0.007 A 
ENDBRANCH   6   7
ENDBRANCH   5   6
BRANCH   5  13
HETATM   13  N           1     -21.288  -8.390  -5.695  0.00  0.00    -0.066 N 
HETATM   14  H           1     -20.465  -7.913  -6.127  0.00  0.00     0.275 HD
HETATM   15  H           1     -22.093  -8.369  -6.362  0.00  0.00     0.275 HD
HETATM   16  H           1     -21.042  -9.383  -5.480  0.00  0.00     0.275 HD
ENDBRANCH   5  13
ENDBRANCH   2   5
BRANCH   1  17
HETATM   17  C           1     -21.574  -5.430  -6.940  0.00  0.00     0.189 C 
BRANCH  17  18
HETATM   18  C           1     -21.916  -4.067  -7.523  0.00  0.00     0.074 C 
BRANCH  18  19
HETATM   19  C           1     -22.166  -4.201  -8.994  0.00  0.00    -0.056 A 
HETATM   20  C           1     -21.108  -4.085  -9.894  0.00  0.00     0.007 A 
HETATM   21  C           1     -21.342  -4.210 -11.264  0.00  0.00     0.001 A 
HETATM   22  C           1     -22.633  -4.452 -11.732  0.00  0.00     0.000 A 
HETATM   23  C           1     -23.691  -4.569 -10.831  0.00  0.00     0.001 A 
HETATM   24  C           1     -23.458  -4.443  -9.461  0.00  0.00     0.007 A 
ENDBRANCH  18  19
ENDBRANCH  17  18
BRANCH  17  25
HETATM   25  C           1     -20.077  -5.557  -6.797  0.00  0.00     0.197 C 
HETATM   26  O           1     -19.396  -4.565  -6.452  0.00  0.00    -0.646 OA
HETATM   27  O           1     -19.518  -6.651  -7.022  0.00  0.00    -0.646 OA
ENDBRANCH  17  25
ENDBRANCH   1  17
TORSDOF 8
ENDMDL
MODEL 3
REMARK VINA RESULT:      -7.8      3.360      6.974
REMARK  8 active torsions:
REMARK  status: ('A' for Active; 'I' for Inactive)
REMARK    1  A    between atoms: N_4  and  C_10 
REMARK       I    between atoms: N_4  and  C_5 
REMARK    2  A    between atoms: C_5  and  C_22 
REMARK    3  A    between atoms: C_9  and  C_10 
REMARK    4  A    between atoms: C_9  and  C_17 
REMARK    5  A    between atoms: C_10  and  C_26 
REMARK    6  A    between atoms: C_13  and  C_22 
REMARK    7  A    between atoms: C_13  and  C_16 
REMARK    8  A    between atoms: N_21  and  C_22 
ROOT
HETATM    1  N           1     -20.732  -8.631  -4.083  0.00  0.00    -0.344 N 
HETATM    2  C           1     -21.203  -9.657  -4.858  0.00  0.00     0.249 C 
HETATM    3  O           1     -21.118  -9.592  -6.061  0.00  0.00    -0.271 OA
HETATM    4  H           1     -19.772  -8.638  -3.763  0.00  0.00     0.163 HD
ENDROOT
BRANCH   2   5
HETATM    5  C           1     -21.827 -10.867  -4.208  0.00  0.00     0.278 C 
BRANCH   5   6
HETATM    6  C           1     -21.005 -11.271  -2.991  0.00  0.00     0.081 C 
BRANCH   6   7
HETATM    7  C           1     -21.919 -11.524  -1.832  0.00  0.00    -0.056 A 
HETATM    8  C           1     -23.217 -11.013  -1.843  0.00  0.00     0.007 A 
HETATM    9  C           1     -24.067 -11.248  -0.764  0.00  0.00     0.001 A 
HETATM   10  C           1     -23.621 -11.997   0.326  0.00  0.00     0.000 A 
HETATM   11  C           1     -22.324 -12.507   0.337  0.00  0.00     0.001 A 
HETATM   12  C           1     -21.472 -12.271  -0.743  0.00  0.00     0.007 A 
ENDBRANCH   6   7
ENDBRANCH   5   6
BRANCH   5  13
HETATM   13  N           1     -21.856 -12.001  -5.189  0.00  0.00    -0.066 N 
HETATM   14  H           1     -22.791 -12.034  -5.656  0.00  0.00     0.275 HD
HETATM   15  H           1     -21.686 -12.902  -4.687  0.00  0.00     0.275 HD
HETATM   16  H           1     -21.112 -11.859  -5.908  0.00  0.00     0.275 HD
ENDBRANCH   5  13
ENDBRANCH   2   5
BRANCH   1  17
HETATM   17  C           1     -21.609  -7.534  -3.722  0.00  0.00     0.189 C 
BRANCH  17  18
HETATM   18  C           1     -21.018  -6.780  -2.539  0.00  0.00     0.074 C 
BRANCH  18  19
HETATM   19  C           1     -21.436  -7.444  -1.264  0.00  0.00    -0.056 A 
HETATM   20  C           1     -22.696  -7.185  -0.724  0.00  0.00     0.007 A 
HETATM   21  C           1     -23.085  -7.804   0.464  0.00  0.00     0.001 A 
HETATM   22  C           1     -22.216  -8.682   1.112  0.00  0.00     0.000 A 
HETATM   23  C           1     -20.957  -8.941   0.570  0.00  0.00     0.001 A 
HETATM   24  C           1     -20.567  -8.323  -0.617  0.00  0.00     0.007 A 
ENDBRANCH  18  19
ENDBRANCH  17  18
BRANCH  17  25
HETATM   25  C           1     -21.752  -6.597  -4.896  0.00  0.00     0.197 C 
HETATM   26  O           1     -20.745  -6.274  -5.564  0.00  0.00    -0.646 OA
HETATM   27  O           1     -22.875  -6.143  -5.202  0.00  0.00    -0.646 OA
ENDBRANCH  17  25
ENDBRANCH   1  17
TORSDOF 8
ENDMDL
MODEL 4
REMARK VINA RESULT:      -7.6      5.067      6.599
REMARK  8 active torsions:
REMARK  status: ('A' for Active; 'I' for Inactive)
REMARK    1  A    between atoms: N_4  and  C_10 
REMARK       I    between atoms: N_4  and  C_5 
REMARK    2  A    between atoms: C_5  and  C_22 
REMARK    3  A    between atoms: C_9  and  C_10 
REMARK    4  A    between atoms: C_9  and  C_17 
REMARK    5  A    between atoms: C_10  and  C_26 
REMARK    6  A    between atoms: C_13  and  C_22 
REMARK    7  A    between atoms: C_13  and  C_16 
REMARK    8  A    between atoms: N_21  and  C_22 
ROOT
HETATM    1  N           1     -20.690 -10.553  -4.655  0.00  0.00    -0.344 N 
HETATM    2  C           1     -19.438 -10.520  -4.101  0.00  0.00     0.249 C 
HETATM    3  O           1     -18.532 -11.126  -4.621  0.00  0.00    -0.271 OA
HETATM    4  H           1     -20.958  -9.860  -5.342  0.00  0.00     0.163 HD
ENDROOT
BRANCH   2   5
HETATM    5  C           1     -19.192  -9.726  -2.841  0.00  0.00     0.278 C 
BRANCH   5   6
HETATM    6  C           1     -20.012  -8.444  -2.880  0.00  0.00     0.081 C 
BRANCH   6   7
HETATM    7  C           1     -20.824  -8.330  -1.627  0.00  0.00    -0.056 A 
HETATM    8  C           1     -20.516  -9.125  -0.523  0.00  0.00     0.007 A 
HETATM    9  C           1     -21.272  -9.019   0.644  0.00  0.00     0.001 A 
HETATM   10  C           1     -22.335  -8.119   0.707  0.00  0.00     0.000 A 
HETATM   11  C           1     -22.644  -7.325  -0.397  0.00  0.00     0.001 A 
HETATM   12  C           1     -21.887  -7.431  -1.565  0.00  0.00     0.007 A 
ENDBRANCH   6   7
ENDBRANCH   5   6
BRANCH   5  13
HETATM   13  N           1     -17.735  -9.385  -2.743  0.00  0.00    -0.066 N 
HETATM   14  H           1     -17.530  -9.005  -1.791  0.00  0.00     0.275 HD
HETATM   15  H           1     -17.495  -8.668  -3.464  0.00  0.00     0.275 HD
HETATM   16  H           1     -17.165 -10.245  -2.905  0.00  0.00     0.275 HD
ENDBRANCH   5  13
ENDBRANCH   2   5
BRANCH   1  17
HETATM   17  C           1     -21.632 -11.581  -4.256  0.00  0.00     0.189 C 
BRANCH  17  18
HETATM   18  C           1     -22.791 -10.942  -3.504  0.00  0.00     0.074 C 
BRANCH  18  19
HETATM   19  C           1     -22.816 -11.453  -2.097  0.00  0.00    -0.056 A 
HETATM   20  C           1     -23.843 -11.071  -1.235  0.00  0.00     0.007 A 
HETATM   21  C           1     -23.866 -11.547   0.076  0.00  0.00     0.001 A 
HETATM   22  C           1     -22.863 -12.406   0.525  0.00  0.00     0.000 A 
HETATM   23  C           1     -21.837 -12.789  -0.339  0.00  0.00     0.001 A 
HETATM   24  C           1     -21.813 -12.313  -1.649  0.00  0.00     0.007 A 
ENDBRANCH  18  19
ENDBRANCH  17  18
BRANCH  17  25
HETATM   25  C           1     -22.155 -12.286  -5.483  0.00  0.00     0.197 C 
HETATM   26  O           1     -22.974 -13.224  -5.364  0.00  0.00    -0.646 OA
HETATM   27  O           1     -21.770 -11.934  -6.619  0.00  0.00    -0.646 OA
ENDBRANCH  17  25
ENDBRANCH   1  17
TORSDOF 8
ENDMDL
MODEL 5
REMARK VINA RESULT:      -7.5     13.995     17.497
REMARK  8 active torsions:
REMARK  status: ('A' for Active; 'I' for Inactive)
REMARK    1  A    between atoms: N_4  and  C_10 
REMARK       I    between atoms: N_4  and  C_5 
REMARK    2  A    between atoms: C_5  and  C_22 
REMARK    3  A    between atoms: C_9  and  C_10 
REMARK    4  A    between atoms: C_9  and  C_17 
REMARK    5  A    between atoms: C_10  and  C_26 
REMARK    6  A    between atoms: C_13  and  C_22 
REMARK    7  A    between atoms: C_13  and  C_16 
REMARK    8  A    between atoms: N_21  and  C_22 
ROOT
HETATM    1  N           1     -35.412  -1.439 -10.234  0.00  0.00    -0.344 N 
HETATM    2  C           1     -34.279  -1.993 -10.768  0.00  0.00     0.249 C 
HETATM    3  O           1     -33.193  -1.592 -10.427  0.00  0.00    -0.271 OA
HETATM    4  H           1     -35.815  -1.824  -9.390  0.00  0.00     0.163 HD
ENDROOT
BRANCH   2   5
HETATM    5  C           1     -34.390  -3.107 -11.781  0.00  0.00     0.278 C 
BRANCH   5   6
HETATM    6  C           1     -33.218  -4.064 -11.614  0.00  0.00     0.081 C 
BRANCH   6   7
HETATM    7  C           1     -33.697  -5.338 -10.990  0.00  0.00    -0.056 A 
HETATM    8  C           1     -32.907  -6.486 -11.054  0.00  0.00     0.007 A 
HETATM    9  C           1     -33.354  -7.673 -10.473  0.00  0.00     0.001 A 
HETATM   10  C           1     -34.590  -7.711  -9.827  0.00  0.00     0.000 A 
HETATM   11  C           1     -35.379  -6.564  -9.764  0.00  0.00     0.001 A 
HETATM   12  C           1     -34.932  -5.377 -10.345  0.00  0.00     0.007 A 
ENDBRANCH   6   7
ENDBRANCH   5   6
BRANCH   5  13
HETATM   13  N           1     -34.369  -2.528 -13.164  0.00  0.00    -0.066 N 
HETATM   14  H           1     -34.960  -1.667 -13.190  0.00  0.00     0.275 HD
HETATM   15  H           1     -34.744  -3.229 -13.842  0.00  0.00     0.275 HD
HETATM   16  H           1     -33.387  -2.284 -13.424  0.00  0.00     0.275 HD
ENDBRANCH   5  13
ENDBRANCH   2   5
BRANCH   1  17
HETATM   17  C           1     -36.034  -0.299 -10.880  0.00  0.00     0.189 C 
BRANCH  17  18
HETATM   18  C           1     -36.990  -0.787 -11.959  0.00  0.00     0.074 C 
BRANCH  18  19
HETATM   19  C           1     -36.653  -0.128 -13.261  0.00  0.00    -0.056 A 
HETATM   20  C           1     -35.433   0.530 -13.414  0.00  0.00     0.007 A 
HETATM   21  C           1     -35.119   1.142 -14.627  0.00  0.00     0.001 A 
HETATM   22  C           1     -36.024   1.097 -15.687  0.00  0.00     0.000 A 
HETATM   23  C           1     -37.243   0.437 -15.534  0.00  0.00     0.001 A 
HETATM   24  C           1     -37.558  -0.175 -14.321  0.00  0.00     0.007 A 
ENDBRANCH  18  19
ENDBRANCH  17  18
BRANCH  17  25
HETATM   25  C           1     -36.797   0.504  -9.856  0.00  0.00     0.197 C 
HETATM   26  O           1     -37.879   1.049 -10.168  0.00  0.00    -0.646 OA
HETATM   27  O           1     -36.349   0.625  -8.696  0.00  0.00    -0.646 OA
ENDBRANCH  17  25
ENDBRANCH   1  17
TORSDOF 8
ENDMDL
MODEL 6
REMARK VINA RESULT:      -7.5      1.613      7.509
REMARK  8 active torsions:
REMARK  status: ('A' for Active; 'I' for Inactive)
REMARK    1  A    between atoms: N_4  and  C_10 
REMARK       I    between atoms: N_4  and  C_5 
REMARK    2  A    between atoms: C_5  and  C_22 
REMARK    3  A    between atoms: C_9  and  C_10 
REMARK    4  A    between atoms: C_9  and  C_17 
REMARK    5  A    between atoms: C_10  and  C_26 
REMARK    6  A    between atoms: C_13  and  C_22 
REMARK    7  A    between atoms: C_13  and  C_16 
REMARK    8  A    between atoms: N_21  and  C_22 
ROOT
HETATM    1  N           1     -21.803  -6.847  -6.440  0.00  0.00    -0.344 N 
HETATM    2  C           1     -22.268  -6.371  -5.244  0.00  0.00     0.249 C 
HETATM    3  O           1     -23.402  -5.968  -5.155  0.00  0.00    -0.271 OA
HETATM    4  H           1     -21.901  -7.828  -6.667  0.00  0.00     0.163 HD
ENDROOT
BRANCH   2   5
HETATM    5  C           1     -21.362  -6.352  -4.037  0.00  0.00     0.278 C 
BRANCH   5   6
HETATM    6  C           1     -22.197  -6.159  -2.778  0.00  0.00     0.081 C 
BRANCH   6   7
HETATM    7  C           1     -21.838  -7.209  -1.773  0.00  0.00    -0.056 A 
HETATM    8  C           1     -22.353  -7.140  -0.478  0.00  0.00     0.007 A 
HETATM    9  C           1     -22.018  -8.117   0.458  0.00  0.00     0.001 A 
HETATM   10  C           1     -21.169  -9.165   0.099  0.00  0.00     0.000 A 
HETATM   11  C           1     -20.654  -9.234  -1.194  0.00  0.00     0.001 A 
HETATM   12  C           1     -20.989  -8.255  -2.131  0.00  0.00     0.007 A 
ENDBRANCH   6   7
ENDBRANCH   5   6
BRANCH   5  13
HETATM   13  N           1     -20.383  -5.223  -4.165  0.00  0.00    -0.066 N 
HETATM   14  H           1     -19.703  -5.437  -4.929  0.00  0.00     0.275 HD
HETATM   15  H           1     -19.869  -5.103  -3.263  0.00  0.00     0.275 HD
HETATM   16  H           1     -20.897  -4.341  -4.392  0.00  0.00     0.275 HD
ENDBRANCH   5  13
ENDBRANCH   2   5
BRANCH   1  17
HETATM   17  C           1     -21.170  -5.944  -7.382  0.00  0.00     0.189 C 
BRANCH  17  18
HETATM   18  C           1     -21.810  -4.567  -7.274  0.00  0.00     0.074 C 
BRANCH  18  19
HETATM   19  C           1     -22.373  -4.172  -8.604  0.00  0.00    -0.056 A 
HETATM   20  C           1     -23.750  -4.016  -8.759  0.00  0.00     0.007 A 
HETATM   21  C           1     -24.274  -3.647  -9.998  0.00  0.00     0.001 A 
HETATM   22  C           1     -23.422  -3.433 -11.081  0.00  0.00     0.000 A 
HETATM   23  C           1     -22.044  -3.588 -10.925  0.00  0.00     0.001 A 
HETATM   24  C           1     -21.520  -3.957  -9.686  0.00  0.00     0.007 A 
ENDBRANCH  18  19
ENDBRANCH  17  18
BRANCH  17  25
HETATM   25  C           1     -19.698  -5.841  -7.067  0.00  0.00     0.197 C 
HETATM   26  O           1     -19.121  -4.733  -7.131  0.00  0.00    -0.646 OA
HETATM   27  O           1     -19.054  -6.862  -6.744  0.00  0.00    -0.646 OA
ENDBRANCH  17  25
ENDBRANCH   1  17
TORSDOF 8
ENDMDL
MODEL 7
REMARK VINA RESULT:      -7.4      2.325      7.767
REMARK  8 active torsions:
REMARK  status: ('A' for Active; 'I' for Inactive)
REMARK    1  A    between atoms: N_4  and  C_10 
REMARK       I    between atoms: N_4  and  C_5 
REMARK    2  A    between atoms: C_5  and  C_22 
REMARK    3  A    between atoms: C_9  and  C_10 
REMARK    4  A    between atoms: C_9  and  C_17 
REMARK    5  A    between atoms: C_10  and  C_26 
REMARK    6  A    between atoms: C_13  and  C_22 
REMARK    7  A    between atoms: C_13  and  C_16 
REMARK    8  A    between atoms: N_21  and  C_22 
ROOT
HETATM    1  N           1     -22.551  -7.277  -4.014  0.00  0.00    -0.344 N 
HETATM    2  C           1     -22.098  -7.021  -2.747  0.00  0.00     0.249 C 
HETATM    3  O           1     -22.198  -5.911  -2.283  0.00  0.00    -0.271 OA
HETATM    4  H           1     -23.507  -7.578  -4.158  0.00  0.00     0.163 HD
ENDROOT
BRANCH   2   5
HETATM    5  C           1     -21.473  -8.127  -1.932  0.00  0.00     0.278 C 
BRANCH   5   6
HETATM    6  C           1     -22.142  -8.191  -0.565  0.00  0.00     0.081 C 
BRANCH   6   7
HETATM    7  C           1     -22.342  -9.621  -0.172  0.00  0.00    -0.056 A 
HETATM    8  C           1     -23.597 -10.215  -0.317  0.00  0.00     0.007 A 
HETATM    9  C           1     -23.784 -11.547   0.050  0.00  0.00     0.001 A 
HETATM   10  C           1     -22.716 -12.287   0.559  0.00  0.00     0.000 A 
HETATM   11  C           1     -21.463 -11.694   0.704  0.00  0.00     0.001 A 
HETATM   12  C           1     -21.276 -10.360   0.338  0.00  0.00     0.007 A 
ENDBRANCH   6   7
ENDBRANCH   5   6
BRANCH   5  13
HETATM   13  N           1     -20.009  -7.855  -1.760  0.00  0.00    -0.066 N 
HETATM   14  H           1     -19.476  -8.751  -1.838  0.00  0.00     0.275 HD
HETATM   15  H           1     -19.841  -7.430  -0.820  0.00  0.00     0.275 HD
HETATM   16  H           1     -19.688  -7.193  -2.503  0.00  0.00     0.275 HD
ENDBRANCH   5  13
ENDBRANCH   2   5
BRANCH   1  17
HETATM   17  C           1     -21.662  -7.117  -5.148  0.00  0.00     0.189 C 
BRANCH  17  18
HETATM   18  C           1     -20.861  -5.833  -4.987  0.00  0.00     0.074 C 
BRANCH  18  19
HETATM   19  C           1     -20.751  -5.143  -6.311  0.00  0.00    -0.056 A 
HETATM   20  C           1     -19.495  -4.848  -6.841  0.00  0.00     0.007 A 
HETATM   21  C           1     -19.392  -4.206  -8.075  0.00  0.00     0.001 A 
HETATM   22  C           1     -20.545  -3.859  -8.780  0.00  0.00     0.000 A 
HETATM   23  C           1     -21.801  -4.155  -8.250  0.00  0.00     0.001 A 
HETATM   24  C           1     -21.904  -4.797  -7.016  0.00  0.00     0.007 A 
ENDBRANCH  18  19
ENDBRANCH  17  18
BRANCH  17  25
HETATM   25  C           1     -20.720  -8.293  -5.217  0.00  0.00     0.197 C 
HETATM   26  O           1     -21.119  -9.389  -5.670  0.00  0.00    -0.646 OA
HETATM   27  O           1     -19.540  -8.174  -4.822  0.00  0.00    -0.646 OA
ENDBRANCH  17  25
ENDBRANCH   1  17
TORSDOF 8
ENDMDL
MODEL 8
REMARK VINA RESULT:      -7.4      3.970      7.408
REMARK  8 active torsions:
REMARK  status: ('A' for Active; 'I' for Inactive)
REMARK    1  A    between atoms: N_4  and  C_10 
REMARK       I    between atoms: N_4  and  C_5 
REMARK    2  A    between atoms: C_5  and  C_22 
REMARK    3  A    between atoms: C_9  and  C_10 
REMARK    4  A    between atoms: C_9  and  C_17 
REMARK    5  A    between atoms: C_10  and  C_26 
REMARK    6  A    between atoms: C_13  and  C_22 
REMARK    7  A    between atoms: C_13  and  C_16 
REMARK    8  A    between atoms: N_21  and  C_22 
ROOT
HETATM    1  N           1     -19.279 -11.381  -2.264  0.00  0.00    -0.344 N 
HETATM    2  C           1     -20.375 -12.091  -2.675  0.00  0.00     0.249 C 
HETATM    3  O           1     -20.250 -12.982  -3.481  0.00  0.00    -0.271 OA
HETATM    4  H           1     -18.747 -11.691  -1.460  0.00  0.00     0.163 HD
ENDROOT
BRANCH   2   5
HETATM    5  C           1     -21.739 -11.760  -2.120  0.00  0.00     0.278 C 
BRANCH   5   6
HETATM    6  C           1     -21.705 -11.850  -0.600  0.00  0.00     0.081 C 
BRANCH   6   7
HETATM    7  C           1     -21.873 -10.483  -0.014  0.00  0.00    -0.056 A 
HETATM    8  C           1     -20.908  -9.974   0.856  0.00  0.00     0.007 A 
HETATM    9  C           1     -21.065  -8.701   1.402  0.00  0.00     0.001 A 
HETATM   10  C           1     -22.185  -7.935   1.077  0.00  0.00     0.000 A 
HETATM   11  C           1     -23.149  -8.444   0.208  0.00  0.00     0.001 A 
HETATM   12  C           1     -22.993  -9.718  -0.338  0.00  0.00     0.007 A 
ENDBRANCH   6   7
ENDBRANCH   5   6
BRANCH   5  13
HETATM   13  N           1     -22.745 -12.734  -2.656  0.00  0.00    -0.066 N 
HETATM   14  H           1     -22.265 -13.428  -3.272  0.00  0.00     0.275 HD
HETATM   15  H           1     -23.469 -12.221  -3.208  0.00  0.00     0.275 HD
HETATM   16  H           1     -23.204 -13.233  -1.860  0.00  0.00     0.275 HD
ENDBRANCH   5  13
ENDBRANCH   2   5
BRANCH   1  17
HETATM   17  C           1     -18.880 -10.185  -2.980  0.00  0.00     0.189 C 
BRANCH  17  18
HETATM   18  C           1     -19.322  -8.955  -2.200  0.00  0.00     0.074 C 
BRANCH  18  19
HETATM   19  C           1     -20.311  -8.177  -3.011  0.00  0.00    -0.056 A 
HETATM   20  C           1     -21.044  -7.149  -2.418  0.00  0.00     0.007 A 
HETATM   21  C           1     -21.965  -6.424  -3.174  0.00  0.00     0.001 A 
HETATM   22  C           1     -22.153  -6.726  -4.523  0.00  0.00     0.000 A 
HETATM   23  C           1     -21.419  -7.754  -5.115  0.00  0.00     0.001 A 
HETATM   24  C           1     -20.498  -8.479  -4.360  0.00  0.00     0.007 A 
ENDBRANCH  18  19
ENDBRANCH  17  18
BRANCH  17  25
HETATM   25  C           1     -17.379 -10.170  -3.136  0.00  0.00     0.197 C 
HETATM   26  O           1     -16.652 -10.654  -2.240  0.00  0.00    -0.646 OA
HETATM   27  O           1     -16.861  -9.674  -4.159  0.00  0.00    -0.646 OA
ENDBRANCH  17  25
ENDBRANCH   1  17
TORSDOF 8
ENDMDL
MODEL 9
REMARK VINA RESULT:      -7.3      4.203      6.919
REMARK  8 active torsions:
REMARK  status: ('A' for Active; 'I' for Inactive)
REMARK    1  A    between atoms: N_4  and  C_10 
REMARK       I    between atoms: N_4  and  C_5 
REMARK    2  A    between atoms: C_5  and  C_22 
REMARK    3  A    between atoms: C_9  and  C_10 
REMARK    4  A    between atoms: C_9  and  C_17 
REMARK    5  A    between atoms: C_10  and  C_26 
REMARK    6  A    between atoms: C_13  and  C_22 
REMARK    7  A    between atoms: C_13  and  C_16 
REMARK    8  A    between atoms: N_21  and  C_22 
ROOT
HETATM    1  N           1     -20.669  -7.787  -3.028  0.00  0.00    -0.344 N 
HETATM    2  C           1     -20.799  -8.357  -4.266  0.00  0.00     0.249 C 
HETATM    3  O           1     -21.460  -7.810  -5.115  0.00  0.00    -0.271 OA
HETATM    4  H           1     -19.910  -7.143  -2.844  0.00  0.00     0.163 HD
ENDROOT
BRANCH   2   5
HETATM    5  C           1     -20.116  -9.669  -4.568  0.00  0.00     0.278 C 
BRANCH   5   6
HETATM    6  C           1     -18.626  -9.430  -4.770  0.00  0.00     0.081 C 
BRANCH   6   7
HETATM    7  C           1     -17.863 -10.043  -3.637  0.00  0.00    -0.056 A 
HETATM    8  C           1     -18.502 -10.920  -2.760  0.00  0.00     0.007 A 
HETATM    9  C           1     -17.792 -11.491  -1.705  0.00  0.00     0.001 A 
HETATM   10  C           1     -16.442 -11.186  -1.526  0.00  0.00     0.000 A 
HETATM   11  C           1     -15.804 -10.309  -2.402  0.00  0.00     0.001 A 
HETATM   12  C           1     -16.515  -9.738  -3.459  0.00  0.00     0.007 A 
ENDBRANCH   6   7
ENDBRANCH   5   6
BRANCH   5  13
HETATM   13  N           1     -20.701 -10.261  -5.816  0.00  0.00    -0.066 N 
HETATM   14  H           1     -21.563 -10.800  -5.574  0.00  0.00     0.275 HD
HETATM   15  H           1     -20.003 -10.899  -6.259  0.00  0.00     0.275 HD
HETATM   16  H           1     -20.945  -9.495  -6.483  0.00  0.00     0.275 HD
ENDBRANCH   5  13
ENDBRANCH   2   5
BRANCH   1  17
HETATM   17  C           1     -21.619  -8.107  -1.980  0.00  0.00     0.189 C 
BRANCH  17  18
HETATM   18  C           1     -20.889  -8.766  -0.818  0.00  0.00     0.074 C 
BRANCH  18  19
HETATM   19  C           1     -21.639  -9.987  -0.383  0.00  0.00    -0.056 A 
HETATM   20  C           1     -20.977 -11.005   0.302  0.00  0.00     0.007 A 
HETATM   21  C           1     -21.677 -12.142   0.707  0.00  0.00     0.001 A 
HETATM   22  C           1     -23.038 -12.260   0.428  0.00  0.00     0.000 A 
HETATM   23  C           1     -23.700 -11.241  -0.257  0.00  0.00     0.001 A 
HETATM   24  C           1     -23.001 -10.104  -0.662  0.00  0.00     0.007 A 
ENDBRANCH  18  19
ENDBRANCH  17  18
BRANCH  17  25
HETATM   25  C           1     -22.286  -6.841  -1.502  0.00  0.00     0.197 C 
HETATM   26  O           1     -22.689  -6.753  -0.322  0.00  0.00    -0.646 OA
HETATM   27  O           1     -22.436  -5.879  -2.287  0.00  0.00    -0.646 OA
ENDBRANCH  17  25
ENDBRANCH   1  17
TORSDOF 8
ENDMDL
