MODEL 1
REMARK VINA RESULT:      -8.1      0.000      0.000
REMARK  8 active torsions:
REMARK  status: ('A' for Active; 'I' for Inactive)
REMARK    1  A    between atoms: N_4  and  C_23 
REMARK       I    between atoms: N_4  and  C_5 
REMARK    2  A    between atoms: C_5  and  C_6 
REMARK    3  A    between atoms: C_6  and  C_7 
REMARK    4  A    between atoms: C_6  and  N_9 
REMARK    5  A    between atoms: C_7  and  O_8 
REMARK    6  A    between atoms: C_11  and  C_20 
REMARK    7  A    between atoms: C_17  and  C_23 
REMARK    8  A    between atoms: C_20  and  C_23 
ROOT
HETATM    1  H           1     -33.909  -1.284 -13.880  0.00  0.00     0.163 HD
HETATM    2  N           1     -34.738  -0.831 -13.519  0.00  0.00    -0.344 N 
HETATM    3  C           1     -35.212   0.306 -14.116  0.00  0.00     0.251 C 
HETATM    4  O           1     -34.828   1.388 -13.745  0.00  0.00    -0.271 OA
ENDROOT
BRANCH   2   5
HETATM    5  C           1     -35.424  -1.387 -12.368  0.00  0.00     0.189 C 
BRANCH   5   6
HETATM    6  C           1     -36.458  -0.404 -11.877  0.00  0.00     0.197 C 
HETATM    7  O           1     -36.142   0.472 -11.043  0.00  0.00    -0.646 OA
HETATM    8  O           1     -37.632  -0.466 -12.303  0.00  0.00    -0.646 OA
ENDBRANCH   5   6
BRANCH   5   9
HETATM    9  C           1     -34.415  -1.660 -11.261  0.00  0.00     0.074 C 
BRANCH   9  10
HETATM   10  C           1     -34.100  -3.123 -11.222  0.00  0.00    -0.056 A 
HETATM   11  C           1     -32.882  -3.587 -11.719  0.00  0.00     0.007 A 
HETATM   12  C           1     -32.588  -4.950 -11.684  0.00  0.00     0.001 A 
HETATM   13  C           1     -33.513  -5.849 -11.154  0.00  0.00     0.000 A 
HETATM   14  C           1     -34.731  -5.385 -10.658  0.00  0.00     0.001 A 
HETATM   15  C           1     -35.025  -4.023 -10.693  0.00  0.00     0.007 A 
ENDBRANCH   9  10
ENDBRANCH   5   9
ENDBRANCH   2   5
BRANCH   3  16
HETATM   16  C           1     -36.216   0.205 -15.238  0.00  0.00     0.297 C 
BRANCH  16  17
HETATM   17  C           1     -35.758  -0.851 -16.237  0.00  0.00     0.206 C 
BRANCH  17  18
HETATM   18  O           1     -36.520  -0.746 -17.410  0.00  0.00    -0.398 OA
HETATM   19  H           1     -36.303   0.080 -17.805  0.00  0.00     0.209 HD
ENDBRANCH  17  18
ENDBRANCH  16  17
BRANCH  16  20
HETATM   20  N           1     -36.327   1.531 -15.931  0.00  0.00    -0.064 N 
HETATM   21  H           1     -36.128   2.297 -15.249  0.00  0.00     0.275 HD
HETATM   22  H           1     -35.637   1.575 -16.714  0.00  0.00     0.275 HD
HETATM   23  H           1     -37.294   1.645 -16.311  0.00  0.00     0.275 HD
ENDBRANCH  16  20
ENDBRANCH   3  16
TORSDOF 8
ENDMDL
MODEL 2
REMARK VINA RESULT:      -7.8     11.071     12.669
REMARK  8 active torsions:
REMARK  status: ('A' for Active; 'I' for Inactive)
REMARK    1  A    between atoms: N_4  and  C_23 
REMARK       I    between atoms: N_4  and  C_5 
REMARK    2  A    between atoms: C_5  and  C_6 
REMARK    3  A    between atoms: C_6  and  C_7 
REMARK    4  A    between atoms: C_6  and  N_9 
REMARK    5  A    between atoms: C_7  and  O_8 
REMARK    6  A    between atoms: C_11  and  C_20 
REMARK    7  A    between atoms: C_17  and  C_23 
REMARK    8  A    between atoms: C_20  and  C_23 
ROOT
HETATM    1  H           1     -25.297  -2.502 -12.192  0.00  0.00     0.163 HD
HETATM    2  N           1     -24.493  -3.100 -12.335  0.00  0.00    -0.344 N 
HETATM    3  C           1     -24.039  -3.344 -13.603  0.00  0.00     0.251 C 
HETATM    4  O           1     -24.468  -4.282 -14.229  0.00  0.00    -0.271 OA
ENDROOT
BRANCH   2   5
HETATM    5  C           1     -23.824  -3.700 -11.197  0.00  0.00     0.189 C 
BRANCH   5   6
HETATM    6  C           1     -24.791  -3.805 -10.043  0.00  0.00     0.197 C 
HETATM    7  O           1     -25.093  -4.927  -9.581  0.00  0.00    -0.646 OA
HETATM    8  O           1     -25.291  -2.771  -9.550  0.00  0.00    -0.646 OA
ENDBRANCH   5   6
BRANCH   5   9
HETATM    9  C           1     -22.640  -2.832 -10.791  0.00  0.00     0.074 C 
BRANCH   9  10
HETATM   10  C           1     -21.740  -3.610  -9.883  0.00  0.00    -0.056 A 
HETATM   11  C           1     -21.968  -3.608  -8.507  0.00  0.00     0.007 A 
HETATM   12  C           1     -21.128  -4.332  -7.659  0.00  0.00     0.001 A 
HETATM   13  C           1     -20.061  -5.058  -8.189  0.00  0.00     0.000 A 
HETATM   14  C           1     -19.833  -5.059  -9.565  0.00  0.00     0.001 A 
HETATM   15  C           1     -20.672  -4.335 -10.411  0.00  0.00     0.007 A 
ENDBRANCH   9  10
ENDBRANCH   5   9
ENDBRANCH   2   5
BRANCH   3  16
HETATM   16  C           1     -23.000  -2.438 -14.218  0.00  0.00     0.297 C 
BRANCH  16  17
HETATM   17  C           1     -23.689  -1.273 -14.917  0.00  0.00     0.206 C 
BRANCH  17  18
HETATM   18  O           1     -24.956  -1.072 -14.351  0.00  0.00    -0.398 OA
HETATM   19  H           1     -24.824  -0.907 -13.434  0.00  0.00     0.209 HD
ENDBRANCH  17  18
ENDBRANCH  16  17
BRANCH  16  20
HETATM   20  N           1     -22.191  -3.211 -15.217  0.00  0.00    -0.064 N 
HETATM   21  H           1     -22.743  -3.327 -16.097  0.00  0.00     0.275 HD
HETATM   22  H           1     -21.307  -2.694 -15.427  0.00  0.00     0.275 HD
HETATM   23  H           1     -21.959  -4.151 -14.825  0.00  0.00     0.275 HD
ENDBRANCH  16  20
ENDBRANCH   3  16
TORSDOF 8
ENDMDL
MODEL 3
REMARK VINA RESULT:      -7.4     11.731     13.374
REMARK  8 active torsions:
REMARK  status: ('A' for Active; 'I' for Inactive)
REMARK    1  A    between atoms: N_4  and  C_23 
REMARK       I    between atoms: N_4  and  C_5 
REMARK    2  A    between atoms: C_5  and  C_6 
REMARK    3  A    between atoms: C_6  and  C_7 
REMARK    4  A    between atoms: C_6  and  N_9 
REMARK    5  A    between atoms: C_7  and  O_8 
REMARK    6  A    between atoms: C_11  and  C_20 
REMARK    7  A    between atoms: C_17  and  C_23 
REMARK    8  A    between atoms: C_20  and  C_23 
ROOT
HETATM    1  H           1     -23.506  -1.854 -10.153  0.00  0.00     0.163 HD
HETATM    2  N           1     -23.477  -2.735 -10.650  0.00  0.00    -0.344 N 
HETATM    3  C           1     -23.787  -2.779 -11.982  0.00  0.00     0.251 C 
HETATM    4  O           1     -24.928  -2.967 -12.331  0.00  0.00    -0.271 OA
ENDROOT
BRANCH   2   5
HETATM    5  C           1     -23.107  -3.950  -9.950  0.00  0.00     0.189 C 
BRANCH   5   6
HETATM    6  C           1     -24.132  -5.022 -10.228  0.00  0.00     0.197 C 
HETATM    7  O           1     -25.238  -4.994  -9.647  0.00  0.00    -0.646 OA
HETATM    8  O           1     -23.874  -5.937 -11.040  0.00  0.00    -0.646 OA
ENDBRANCH   5   6
BRANCH   5   9
HETATM    9  C           1     -23.051  -3.676  -8.453  0.00  0.00     0.074 C 
BRANCH   9  10
HETATM   10  C           1     -21.709  -4.072  -7.922  0.00  0.00    -0.056 A 
HETATM   11  C           1     -21.573  -4.458  -6.589  0.00  0.00     0.007 A 
HETATM   12  C           1     -20.323  -4.827  -6.093  0.00  0.00     0.001 A 
HETATM   13  C           1     -19.208  -4.810  -6.932  0.00  0.00     0.000 A 
HETATM   14  C           1     -19.344  -4.424  -8.265  0.00  0.00     0.001 A 
HETATM   15  C           1     -20.595  -4.055  -8.760  0.00  0.00     0.007 A 
ENDBRANCH   9  10
ENDBRANCH   5   9
ENDBRANCH   2   5
BRANCH   3  16
HETATM   16  C           1     -22.703  -2.594 -13.015  0.00  0.00     0.297 C 
BRANCH  16  17
HETATM   17  C           1     -23.329  -2.523 -14.402  0.00  0.00     0.206 C 
BRANCH  17  18
HETATM   18  O           1     -23.777  -3.796 -14.780  0.00  0.00    -0.398 OA
HETATM   19  H           1     -24.671  -3.869 -14.493  0.00  0.00     0.209 HD
ENDBRANCH  17  18
ENDBRANCH  16  17
BRANCH  16  20
HETATM   20  N           1     -21.753  -3.754 -12.956  0.00  0.00    -0.064 N 
HETATM   21  H           1     -22.275  -4.641 -13.137  0.00  0.00     0.275 HD
HETATM   22  H           1     -21.010  -3.634 -13.681  0.00  0.00     0.275 HD
HETATM   23  H           1     -21.313  -3.795 -12.009  0.00  0.00     0.275 HD
ENDBRANCH  16  20
ENDBRANCH   3  16
TORSDOF 8
ENDMDL
MODEL 4
REMARK VINA RESULT:      -7.3     11.968     13.579
REMARK  8 active torsions:
REMARK  status: ('A' for Active; 'I' for Inactive)
REMARK    1  A    between atoms: N_4  and  C_23 
REMARK       I    between atoms: N_4  and  C_5 
REMARK    2  A    between atoms: C_5  and  C_6 
REMARK    3  A    between atoms: C_6  and  C_7 
REMARK    4  A    between atoms: C_6  and  N_9 
REMARK    5  A    between atoms: C_7  and  O_8 
REMARK    6  A    between atoms: C_11  and  C_20 
REMARK    7  A    between atoms: C_17  and  C_23 
REMARK    8  A    between atoms: C_20  and  C_23 
ROOT
HETATM    1  H           1     -20.909  -4.464 -12.099  0.00  0.00     0.163 HD
HETATM    2  N           1     -21.735  -4.061 -11.676  0.00  0.00    -0.344 N 
HETATM    3  C           1     -22.341  -2.979 -12.255  0.00  0.00     0.251 C 
HETATM    4  O           1     -22.006  -1.862 -11.943  0.00  0.00    -0.271 OA
ENDROOT
BRANCH   2   5
HETATM    5  C           1     -22.277  -4.631 -10.458  0.00  0.00     0.189 C 
BRANCH   5   6
HETATM    6  C           1     -23.709  -5.045 -10.690  0.00  0.00     0.197 C 
HETATM    7  O           1     -23.968  -5.994 -11.461  0.00  0.00    -0.646 OA
HETATM    8  O           1     -24.637  -4.438 -10.112  0.00  0.00    -0.646 OA
ENDBRANCH   5   6
BRANCH   5   9
HETATM    9  C           1     -22.222  -3.593  -9.345  0.00  0.00     0.074 C 
BRANCH   9  10
HETATM   10  C           1     -21.391  -4.115  -8.215  0.00  0.00    -0.056 A 
HETATM   11  C           1     -19.999  -4.071  -8.295  0.00  0.00     0.007 A 
HETATM   12  C           1     -19.224  -4.559  -7.243  0.00  0.00     0.001 A 
HETATM   13  C           1     -19.841  -5.091  -6.111  0.00  0.00     0.000 A 
HETATM   14  C           1     -21.233  -5.136  -6.032  0.00  0.00     0.001 A 
HETATM   15  C           1     -22.007  -4.649  -7.084  0.00  0.00     0.007 A 
ENDBRANCH   9  10
ENDBRANCH   5   9
ENDBRANCH   2   5
BRANCH   3  16
HETATM   16  C           1     -23.427  -3.183 -13.282  0.00  0.00     0.297 C 
BRANCH  16  17
HETATM   17  C           1     -23.062  -2.441 -14.562  0.00  0.00     0.206 C 
BRANCH  17  18
HETATM   18  O           1     -22.233  -3.250 -15.352  0.00  0.00    -0.398 OA
HETATM   19  H           1     -22.646  -3.326 -16.194  0.00  0.00     0.209 HD
ENDBRANCH  17  18
ENDBRANCH  16  17
BRANCH  16  20
HETATM   20  N           1     -24.725  -2.651 -12.751  0.00  0.00    -0.064 N 
HETATM   21  H           1     -25.519  -3.092 -13.266  0.00  0.00     0.275 HD
HETATM   22  H           1     -24.803  -2.874 -11.733  0.00  0.00     0.275 HD
HETATM   23  H           1     -24.756  -1.614 -12.883  0.00  0.00     0.275 HD
ENDBRANCH  16  20
ENDBRANCH   3  16
TORSDOF 8
ENDMDL
MODEL 5
REMARK VINA RESULT:      -6.6     15.157     17.443
REMARK  8 active torsions:
REMARK  status: ('A' for Active; 'I' for Inactive)
REMARK    1  A    between atoms: N_4  and  C_23 
REMARK       I    between atoms: N_4  and  C_5 
REMARK    2  A    between atoms: C_5  and  C_6 
REMARK    3  A    between atoms: C_6  and  C_7 
REMARK    4  A    between atoms: C_6  and  N_9 
REMARK    5  A    between atoms: C_7  and  O_8 
REMARK    6  A    between atoms: C_11  and  C_20 
REMARK    7  A    between atoms: C_17  and  C_23 
REMARK    8  A    between atoms: C_20  and  C_23 
ROOT
HETATM    1  H           1     -23.341  -6.065  -4.201  0.00  0.00     0.163 HD
HETATM    2  N           1     -22.362  -6.301  -4.309  0.00  0.00    -0.344 N 
HETATM    3  C           1     -21.582  -6.507  -3.204  0.00  0.00     0.251 C 
HETATM    4  O           1     -20.990  -5.583  -2.701  0.00  0.00    -0.271 OA
ENDROOT
BRANCH   2   5
HETATM    5  C           1     -21.789  -6.420  -5.635  0.00  0.00     0.189 C 
BRANCH   5   6
HETATM    6  C           1     -20.926  -7.656  -5.701  0.00  0.00     0.197 C 
HETATM    7  O           1     -19.681  -7.548  -5.725  0.00  0.00    -0.646 OA
HETATM    8  O           1     -21.456  -8.787  -5.732  0.00  0.00    -0.646 OA
ENDBRANCH   5   6
BRANCH   5   9
HETATM    9  C           1     -20.940  -5.190  -5.933  0.00  0.00     0.074 C 
BRANCH   9  10
HETATM   10  C           1     -21.176  -4.750  -7.343  0.00  0.00    -0.056 A 
HETATM   11  C           1     -22.440  -4.304  -7.732  0.00  0.00     0.007 A 
HETATM   12  C           1     -22.661  -3.893  -9.047  0.00  0.00     0.001 A 
HETATM   13  C           1     -21.618  -3.929  -9.973  0.00  0.00     0.000 A 
HETATM   14  C           1     -20.356  -4.376  -9.584  0.00  0.00     0.001 A 
HETATM   15  C           1     -20.135  -4.786  -8.270  0.00  0.00     0.007 A 
ENDBRANCH   9  10
ENDBRANCH   5   9
ENDBRANCH   2   5
BRANCH   3  16
HETATM   16  C           1     -21.460  -7.892  -2.615  0.00  0.00     0.297 C 
BRANCH  16  17
HETATM   17  C           1     -21.901  -7.864  -1.157  0.00  0.00     0.206 C 
BRANCH  17  18
HETATM   18  O           1     -22.745  -6.766  -0.944  0.00  0.00    -0.398 OA
HETATM   19  H           1     -22.654  -6.201  -1.691  0.00  0.00     0.209 HD
ENDBRANCH  17  18
ENDBRANCH  16  17
BRANCH  16  20
HETATM   20  N           1     -20.033  -8.346  -2.696  0.00  0.00    -0.064 N 
HETATM   21  H           1     -20.005  -9.359  -2.954  0.00  0.00     0.275 HD
HETATM   22  H           1     -19.529  -7.789  -3.422  0.00  0.00     0.275 HD
HETATM   23  H           1     -19.571  -8.210  -1.769  0.00  0.00     0.275 HD
ENDBRANCH  16  20
ENDBRANCH   3  16
TORSDOF 8
ENDMDL
MODEL 6
REMARK VINA RESULT:      -6.6     13.927     16.380
REMARK  8 active torsions:
REMARK  status: ('A' for Active; 'I' for Inactive)
REMARK    1  A    between atoms: N_4  and  C_23 
REMARK       I    between atoms: N_4  and  C_5 
REMARK    2  A    between atoms: C_5  and  C_6 
REMARK    3  A    between atoms: C_6  and  C_7 
REMARK    4  A    between atoms: C_6  and  N_9 
REMARK    5  A    between atoms: C_7  and  O_8 
REMARK    6  A    between atoms: C_11  and  C_20 
REMARK    7  A    between atoms: C_17  and  C_23 
REMARK    8  A    between atoms: C_20  and  C_23 
ROOT
HETATM    1  H           1     -21.974  -7.799  -6.799  0.00  0.00     0.163 HD
HETATM    2  N           1     -21.829  -6.840  -6.510  0.00  0.00    -0.344 N 
HETATM    3  C           1     -22.242  -6.428  -5.272  0.00  0.00     0.251 C 
HETATM    4  O           1     -23.355  -5.986  -5.123  0.00  0.00    -0.271 OA
ENDROOT
BRANCH   2   5
HETATM    5  C           1     -21.184  -5.902  -7.409  0.00  0.00     0.189 C 
BRANCH   5   6
HETATM    6  C           1     -19.724  -5.783  -7.048  0.00  0.00     0.197 C 
HETATM    7  O           1     -19.204  -4.655  -6.912  0.00  0.00    -0.646 OA
HETATM    8  O           1     -19.035  -6.813  -6.885  0.00  0.00    -0.646 OA
ENDBRANCH   5   6
BRANCH   5   9
HETATM    9  C           1     -21.852  -4.539  -7.284  0.00  0.00     0.074 C 
BRANCH   9  10
HETATM   10  C           1     -22.398  -4.127  -8.616  0.00  0.00    -0.056 A 
HETATM   11  C           1     -23.760  -3.864  -8.759  0.00  0.00     0.007 A 
HETATM   12  C           1     -24.269  -3.480 -10.000  0.00  0.00     0.001 A 
HETATM   13  C           1     -23.416  -3.359 -11.097  0.00  0.00     0.000 A 
HETATM   14  C           1     -22.054  -3.623 -10.953  0.00  0.00     0.001 A 
HETATM   15  C           1     -21.545  -4.007  -9.712  0.00  0.00     0.007 A 
ENDBRANCH   9  10
ENDBRANCH   5   9
ENDBRANCH   2   5
BRANCH   3  16
HETATM   16  C           1     -21.305  -6.527  -4.094  0.00  0.00     0.297 C 
BRANCH  16  17
HETATM   17  C           1     -20.905  -7.981  -3.882  0.00  0.00     0.206 C 
BRANCH  17  18
HETATM   18  O           1     -19.720  -8.248  -4.583  0.00  0.00    -0.398 OA
HETATM   19  H           1     -19.058  -7.680  -4.228  0.00  0.00     0.209 HD
ENDBRANCH  17  18
ENDBRANCH  16  17
BRANCH  16  20
HETATM   20  N           1     -21.993  -6.015  -2.863  0.00  0.00    -0.064 N 
HETATM   21  H           1     -21.282  -5.823  -2.121  0.00  0.00     0.275 HD
HETATM   22  H           1     -22.505  -5.133  -3.090  0.00  0.00     0.275 HD
HETATM   23  H           1     -22.670  -6.732  -2.519  0.00  0.00     0.275 HD
ENDBRANCH  16  20
ENDBRANCH   3  16
TORSDOF 8
ENDMDL
MODEL 7
REMARK VINA RESULT:      -6.6     17.667     18.634
REMARK  8 active torsions:
REMARK  status: ('A' for Active; 'I' for Inactive)
REMARK    1  A    between atoms: N_4  and  C_23 
REMARK       I    between atoms: N_4  and  C_5 
REMARK    2  A    between atoms: C_5  and  C_6 
REMARK    3  A    between atoms: C_6  and  C_7 
REMARK    4  A    between atoms: C_6  and  N_9 
REMARK    5  A    between atoms: C_7  and  O_8 
REMARK    6  A    between atoms: C_11  and  C_20 
REMARK    7  A    between atoms: C_17  and  C_23 
REMARK    8  A    between atoms: C_20  and  C_23 
ROOT
HETATM    1  H           1     -19.305  -7.724  -3.517  0.00  0.00     0.163 HD
HETATM    2  N           1     -20.198  -8.053  -3.859  0.00  0.00    -0.344 N 
HETATM    3  C           1     -20.279  -8.663  -5.082  0.00  0.00     0.251 C 
HETATM    4  O           1     -20.484  -8.005  -6.073  0.00  0.00    -0.271 OA
ENDROOT
BRANCH   2   5
HETATM    5  C           1     -21.392  -7.878  -3.056  0.00  0.00     0.189 C 
BRANCH   5   6
HETATM    6  C           1     -21.726  -6.409  -2.965  0.00  0.00     0.197 C 
HETATM    7  O           1     -22.434  -5.986  -2.026  0.00  0.00    -0.646 OA
HETATM    8  O           1     -21.295  -5.616  -3.830  0.00  0.00    -0.646 OA
ENDBRANCH   5   6
BRANCH   5   9
HETATM    9  C           1     -21.148  -8.431  -1.658  0.00  0.00     0.074 C 
BRANCH   9  10
HETATM   10  C           1     -22.160  -9.492  -1.356  0.00  0.00    -0.056 A 
HETATM   11  C           1     -22.336 -10.558  -2.238  0.00  0.00     0.007 A 
HETATM   12  C           1     -23.280 -11.546  -1.959  0.00  0.00     0.001 A 
HETATM   13  C           1     -24.048 -11.468  -0.796  0.00  0.00     0.000 A 
HETATM   14  C           1     -23.872 -10.401   0.085  0.00  0.00     0.001 A 
HETATM   15  C           1     -22.928  -9.413  -0.195  0.00  0.00     0.007 A 
ENDBRANCH   9  10
ENDBRANCH   5   9
ENDBRANCH   2   5
BRANCH   3  16
HETATM   16  C           1     -20.114 -10.160  -5.190  0.00  0.00     0.297 C 
BRANCH  16  17
HETATM   17  C           1     -18.704 -10.482  -5.669  0.00  0.00     0.206 C 
BRANCH  17  18
HETATM   18  O           1     -18.093  -9.314  -6.146  0.00  0.00    -0.398 OA
HETATM   19  H           1     -17.605  -9.554  -6.915  0.00  0.00     0.209 HD
ENDBRANCH  17  18
ENDBRANCH  16  17
BRANCH  16  20
HETATM   20  N           1     -21.110 -10.703  -6.171  0.00  0.00    -0.064 N 
HETATM   21  H           1     -22.036 -10.818  -5.700  0.00  0.00     0.275 HD
HETATM   22  H           1     -21.208 -10.041  -6.973  0.00  0.00     0.275 HD
HETATM   23  H           1     -20.781 -11.631  -6.523  0.00  0.00     0.275 HD
ENDBRANCH  16  20
ENDBRANCH   3  16
TORSDOF 8
ENDMDL
MODEL 8
REMARK VINA RESULT:      -6.5      1.950      2.449
REMARK  8 active torsions:
REMARK  status: ('A' for Active; 'I' for Inactive)
REMARK    1  A    between atoms: N_4  and  C_23 
REMARK       I    between atoms: N_4  and  C_5 
REMARK    2  A    between atoms: C_5  and  C_6 
REMARK    3  A    between atoms: C_6  and  C_7 
REMARK    4  A    between atoms: C_6  and  N_9 
REMARK    5  A    between atoms: C_7  and  O_8 
REMARK    6  A    between atoms: C_11  and  C_20 
REMARK    7  A    between atoms: C_17  and  C_23 
REMARK    8  A    between atoms: C_20  and  C_23 
ROOT
HETATM    1  H           1     -34.035  -0.609 -14.396  0.00  0.00     0.163 HD
HETATM    2  N           1     -34.862  -1.191 -14.412  0.00  0.00    -0.344 N 
HETATM    3  C           1     -35.404  -1.578 -15.608  0.00  0.00     0.251 C 
HETATM    4  O           1     -36.244  -0.893 -16.140  0.00  0.00    -0.271 OA
ENDROOT
BRANCH   2   5
HETATM    5  C           1     -35.475  -1.615 -13.167  0.00  0.00     0.189 C 
BRANCH   5   6
HETATM    6  C           1     -36.543  -0.626 -12.770  0.00  0.00     0.197 C 
HETATM    7  O           1     -37.705  -0.751 -13.211  0.00  0.00    -0.646 OA
HETATM    8  O           1     -36.264   0.319 -12.000  0.00  0.00    -0.646 OA
ENDBRANCH   5   6
BRANCH   5   9
HETATM    9  C           1     -34.413  -1.682 -12.077  0.00  0.00     0.074 C 
BRANCH   9  10
HETATM   10  C           1     -34.199  -3.108 -11.675  0.00  0.00    -0.056 A 
HETATM   11  C           1     -32.965  -3.718 -11.899  0.00  0.00     0.007 A 
HETATM   12  C           1     -32.765  -5.047 -11.526  0.00  0.00     0.001 A 
HETATM   13  C           1     -33.801  -5.766 -10.928  0.00  0.00     0.000 A 
HETATM   14  C           1     -35.035  -5.156 -10.705  0.00  0.00     0.001 A 
HETATM   15  C           1     -35.234  -3.827 -11.079  0.00  0.00     0.007 A 
ENDBRANCH   9  10
ENDBRANCH   5   9
ENDBRANCH   2   5
BRANCH   3  16
HETATM   16  C           1     -34.951  -2.860 -16.261  0.00  0.00     0.297 C 
BRANCH  16  17
HETATM   17  C           1     -34.411  -3.809 -15.198  0.00  0.00     0.206 C 
BRANCH  17  18
HETATM   18  O           1     -34.792  -5.123 -15.506  0.00  0.00    -0.398 OA
HETATM   19  H           1     -35.093  -5.119 -16.398  0.00  0.00     0.209 HD
ENDBRANCH  17  18
ENDBRANCH  16  17
BRANCH  16  20
HETATM   20  N           1     -33.870  -2.560 -17.257  0.00  0.00    -0.064 N 
HETATM   21  H           1     -32.944  -2.553 -16.773  0.00  0.00     0.275 HD
HETATM   22  H           1     -33.868  -3.292 -18.002  0.00  0.00     0.275 HD
HETATM   23  H           1     -34.045  -1.624 -17.688  0.00  0.00     0.275 HD
ENDBRANCH  16  20
ENDBRANCH   3  16
TORSDOF 8
ENDMDL
MODEL 9
REMARK VINA RESULT:      -6.4     17.253     19.567
REMARK  8 active torsions:
REMARK  status: ('A' for Active; 'I' for Inactive)
REMARK    1  A    between atoms: N_4  and  C_23 
REMARK       I    between atoms: N_4  and  C_5 
REMARK    2  A    between atoms: C_5  and  C_6 
REMARK    3  A    between atoms: C_6  and  C_7 
REMARK    4  A    between atoms: C_6  and  N_9 
REMARK    5  A    between atoms: C_7  and  O_8 
REMARK    6  A    between atoms: C_11  and  C_20 
REMARK    7  A    between atoms: C_17  and  C_23 
REMARK    8  A    between atoms: C_20  and  C_23 
ROOT
HETATM    1  H           1     -19.115  -7.768  -4.942  0.00  0.00     0.163 HD
HETATM    2  N           1     -19.644  -8.403  -4.358  0.00  0.00    -0.344 N 
HETATM    3  C           1     -19.087  -9.585  -3.952  0.00  0.00     0.251 C 
HETATM    4  O           1     -19.217 -10.578  -4.626  0.00  0.00    -0.271 OA
ENDROOT
BRANCH   2   5
HETATM    5  C           1     -20.994  -8.061  -3.953  0.00  0.00     0.189 C 
BRANCH   5   6
HETATM    6  C           1     -21.643  -7.220  -5.025  0.00  0.00     0.197 C 
HETATM    7  O           1     -22.508  -6.373  -4.716  0.00  0.00    -0.646 OA
HETATM    8  O           1     -21.315  -7.371  -6.222  0.00  0.00    -0.646 OA
ENDBRANCH   5   6
BRANCH   5   9
HETATM    9  C           1     -20.947  -7.275  -2.649  0.00  0.00     0.074 C 
BRANCH   9  10
HETATM   10  C           1     -21.770  -7.977  -1.614  0.00  0.00    -0.056 A 
HETATM   11  C           1     -21.978  -9.353  -1.705  0.00  0.00     0.007 A 
HETATM   12  C           1     -22.746 -10.008  -0.741  0.00  0.00     0.001 A 
HETATM   13  C           1     -23.304  -9.285   0.314  0.00  0.00     0.000 A 
HETATM   14  C           1     -23.096  -7.909   0.404  0.00  0.00     0.001 A 
HETATM   15  C           1     -22.329  -7.255  -0.560  0.00  0.00     0.007 A 
ENDBRANCH   9  10
ENDBRANCH   5   9
ENDBRANCH   2   5
BRANCH   3  16
HETATM   16  C           1     -18.309  -9.647  -2.660  0.00  0.00     0.297 C 
BRANCH  16  17
HETATM   17  C           1     -16.816  -9.656  -2.965  0.00  0.00     0.206 C 
BRANCH  17  18
HETATM   18  O           1     -16.621  -9.589  -4.352  0.00  0.00    -0.398 OA
HETATM   19  H           1     -16.545 -10.475  -4.661  0.00  0.00     0.209 HD
ENDBRANCH  17  18
ENDBRANCH  16  17
BRANCH  16  20
HETATM   20  N           1     -18.673 -10.897  -1.916  0.00  0.00    -0.064 N 
HETATM   21  H           1     -19.712 -10.955  -1.820  0.00  0.00     0.275 HD
HETATM   22  H           1     -18.326 -11.730  -2.442  0.00  0.00     0.275 HD
HETATM   23  H           1     -18.236 -10.877  -0.967  0.00  0.00     0.275 HD
ENDBRANCH  16  20
ENDBRANCH   3  16
TORSDOF 8
ENDMDL
