MODEL 1
REMARK VINA RESULT:      -6.7      0.000      0.000
REMARK  12 active torsions:
REMARK  status: ('A' for Active; 'I' for Inactive)
REMARK    1  A    between atoms: N_1  and  C_15 
REMARK    2  A    between atoms: C_2  and  C_14 
REMARK    3  A    between atoms: C_2  and  C_3 
REMARK    4  A    between atoms: C_2  and  N_8 
REMARK    5  A    between atoms: C_3  and  C_4 
REMARK    6  A    between atoms: C_4  and  C_5 
REMARK       I    between atoms: C_5  and  N_6 
REMARK    7  A    between atoms: N_10  and  C_22 
REMARK       I    between atoms: N_10  and  C_14 
REMARK    8  A    between atoms: C_15  and  C_16 
REMARK    9  A    between atoms: C_16  and  C_28 
REMARK   10  A    between atoms: C_17  and  C_22 
REMARK   11  A    between atoms: C_18  and  C_28 
REMARK   12  A    between atoms: C_18  and  C_22 
ROOT
HETATM    1  N           1     -35.226  -2.070 -12.341  0.00  0.00    -0.345 N 
HETATM    2  C           1     -34.101  -2.740 -11.945  0.00  0.00     0.249 C 
HETATM    3  H           1     -35.865  -2.498 -13.000  0.00  0.00     0.163 HD
HETATM    4  O           1     -33.339  -2.229 -11.159  0.00  0.00    -0.271 OA
ENDROOT
BRANCH   1   5
HETATM    5  C           1     -35.504  -0.746 -11.818  0.00  0.00     0.185 C 
BRANCH   5   6
HETATM    6  C           1     -36.535  -0.846 -10.721  0.00  0.00     0.196 C 
HETATM    7  O           1     -37.716  -1.148 -10.998  0.00  0.00    -0.646 OA
HETATM    8  O           1     -36.207  -0.628  -9.534  0.00  0.00    -0.646 OA
ENDBRANCH   5   6
BRANCH   5   9
HETATM    9  C           1     -36.037   0.139 -12.938  0.00  0.00     0.036 C 
BRANCH   9  10
HETATM   10  C           1     -34.868   0.756 -13.695  0.00  0.00     0.004 C 
BRANCH  10  11
HETATM   11  C           1     -35.159   0.727 -15.190  0.00  0.00     0.027 C 
BRANCH  11  12
HETATM   12  C           1     -36.122  -0.412 -15.499  0.00  0.00     0.229 C 
BRANCH  12  13
HETATM   13  N           1     -36.308  -0.522 -16.983  0.00  0.00    -0.079 N 
HETATM   14  H           1     -37.312  -0.722 -17.195  0.00  0.00     0.274 HD
HETATM   15  H           1     -36.028   0.378 -17.436  0.00  0.00     0.274 HD
HETATM   16  H           1     -35.713  -1.298 -17.352  0.00  0.00     0.274 HD
ENDBRANCH  12  13
ENDBRANCH  11  12
ENDBRANCH  10  11
ENDBRANCH   9  10
ENDBRANCH   5   9
ENDBRANCH   1   5
BRANCH   2  17
HETATM   17  C           1     -33.811  -4.117 -12.489  0.00  0.00     0.275 C 
BRANCH  17  18
HETATM   18  C           1     -34.763  -5.124 -11.856  0.00  0.00     0.052 C 
BRANCH  18  19
HETATM   19  C           1     -34.215  -5.561 -10.504  0.00  0.00     0.105 C 
BRANCH  19  20
HETATM   20  C           1     -34.640  -6.981 -10.223  0.00  0.00     0.215 C 
HETATM   21  N           1     -34.995  -7.806 -11.257  0.00  0.00    -0.370 N 
HETATM   22  H           1     -35.281  -8.759 -11.069  0.00  0.00     0.159 HD
HETATM   23  H           1     -34.971  -7.463 -12.209  0.00  0.00     0.159 HD
HETATM   24  O           1     -34.669  -7.391  -9.087  0.00  0.00    -0.274 OA
ENDBRANCH  19  20
ENDBRANCH  18  19
ENDBRANCH  17  18
BRANCH  17  25
HETATM   25  N           1     -32.397  -4.495 -12.165  0.00  0.00    -0.066 N 
HETATM   26  H           1     -31.821  -4.473 -13.037  0.00  0.00     0.275 HD
HETATM   27  H           1     -32.005  -3.817 -11.473  0.00  0.00     0.275 HD
HETATM   28  H           1     -32.377  -5.458 -11.759  0.00  0.00     0.275 HD
ENDBRANCH  17  25
ENDBRANCH   2  17
TORSDOF 12
ENDMDL
MODEL 2
REMARK VINA RESULT:      -6.6      3.932      6.393
REMARK  12 active torsions:
REMARK  status: ('A' for Active; 'I' for Inactive)
REMARK    1  A    between atoms: N_1  and  C_15 
REMARK    2  A    between atoms: C_2  and  C_14 
REMARK    3  A    between atoms: C_2  and  C_3 
REMARK    4  A    between atoms: C_2  and  N_8 
REMARK    5  A    between atoms: C_3  and  C_4 
REMARK    6  A    between atoms: C_4  and  C_5 
REMARK       I    between atoms: C_5  and  N_6 
REMARK    7  A    between atoms: N_10  and  C_22 
REMARK       I    between atoms: N_10  and  C_14 
REMARK    8  A    between atoms: C_15  and  C_16 
REMARK    9  A    between atoms: C_16  and  C_28 
REMARK   10  A    between atoms: C_17  and  C_22 
REMARK   11  A    between atoms: C_18  and  C_28 
REMARK   12  A    between atoms: C_18  and  C_22 
ROOT
HETATM    1  N           1     -33.257  -4.033 -14.311  0.00  0.00    -0.345 N 
HETATM    2  C           1     -33.859  -4.523 -15.439  0.00  0.00     0.249 C 
HETATM    3  H           1     -32.312  -3.674 -14.357  0.00  0.00     0.163 HD
HETATM    4  O           1     -34.987  -4.951 -15.383  0.00  0.00    -0.271 OA
ENDROOT
BRANCH   1   5
HETATM    5  C           1     -33.974  -4.028 -13.050  0.00  0.00     0.185 C 
BRANCH   5   6
HETATM    6  C           1     -34.648  -2.692 -12.861  0.00  0.00     0.196 C 
HETATM    7  O           1     -34.959  -2.306 -11.713  0.00  0.00    -0.646 OA
HETATM    8  O           1     -34.895  -1.971 -13.852  0.00  0.00    -0.646 OA
ENDBRANCH   5   6
BRANCH   5   9
HETATM    9  C           1     -32.993  -4.270 -11.910  0.00  0.00     0.036 C 
BRANCH   9  10
HETATM   10  C           1     -33.248  -5.644 -11.305  0.00  0.00     0.004 C 
BRANCH  10  11
HETATM   11  C           1     -34.565  -5.626 -10.539  0.00  0.00     0.027 C 
BRANCH  11  12
HETATM   12  C           1     -34.780  -6.974  -9.863  0.00  0.00     0.229 C 
BRANCH  12  13
HETATM   13  N           1     -34.800  -8.056 -10.901  0.00  0.00    -0.079 N 
HETATM   14  H           1     -35.050  -7.645 -11.829  0.00  0.00     0.274 HD
HETATM   15  H           1     -33.855  -8.500 -10.959  0.00  0.00     0.274 HD
HETATM   16  H           1     -35.509  -8.778 -10.637  0.00  0.00     0.274 HD
ENDBRANCH  12  13
ENDBRANCH  11  12
ENDBRANCH  10  11
ENDBRANCH   9  10
ENDBRANCH   5   9
ENDBRANCH   1   5
BRANCH   2  17
HETATM   17  C           1     -33.114  -4.528 -16.751  0.00  0.00     0.275 C 
BRANCH  17  18
HETATM   18  C           1     -31.659  -4.907 -16.507  0.00  0.00     0.052 C 
BRANCH  18  19
HETATM   19  C           1     -31.316  -6.155 -17.310  0.00  0.00     0.105 C 
BRANCH  19  20
HETATM   20  C           1     -29.956  -6.662 -16.896  0.00  0.00     0.215 C 
HETATM   21  N           1     -29.504  -7.866 -17.364  0.00  0.00    -0.370 N 
HETATM   22  H           1     -28.591  -8.207 -17.086  0.00  0.00     0.159 HD
HETATM   23  H           1     -30.081  -8.416 -17.987  0.00  0.00     0.159 HD
HETATM   24  O           1     -29.267  -6.006 -16.152  0.00  0.00    -0.274 OA
ENDBRANCH  19  20
ENDBRANCH  18  19
ENDBRANCH  17  18
BRANCH  17  25
HETATM   25  N           1     -33.178  -3.163 -17.366  0.00  0.00    -0.066 N 
HETATM   26  H           1     -34.151  -2.974 -17.698  0.00  0.00     0.275 HD
HETATM   27  H           1     -32.909  -2.447 -16.654  0.00  0.00     0.275 HD
HETATM   28  H           1     -32.519  -3.114 -18.176  0.00  0.00     0.275 HD
ENDBRANCH  17  25
ENDBRANCH   2  17
TORSDOF 12
ENDMDL
MODEL 3
REMARK VINA RESULT:      -6.6      2.452      3.750
REMARK  12 active torsions:
REMARK  status: ('A' for Active; 'I' for Inactive)
REMARK    1  A    between atoms: N_1  and  C_15 
REMARK    2  A    between atoms: C_2  and  C_14 
REMARK    3  A    between atoms: C_2  and  C_3 
REMARK    4  A    between atoms: C_2  and  N_8 
REMARK    5  A    between atoms: C_3  and  C_4 
REMARK    6  A    between atoms: C_4  and  C_5 
REMARK       I    between atoms: C_5  and  N_6 
REMARK    7  A    between atoms: N_10  and  C_22 
REMARK       I    between atoms: N_10  and  C_14 
REMARK    8  A    between atoms: C_15  and  C_16 
REMARK    9  A    between atoms: C_16  and  C_28 
REMARK   10  A    between atoms: C_17  and  C_22 
REMARK   11  A    between atoms: C_18  and  C_28 
REMARK   12  A    between atoms: C_18  and  C_22 
ROOT
HETATM    1  N           1     -34.900  -1.194 -12.448  0.00  0.00    -0.345 N 
HETATM    2  C           1     -34.320  -2.432 -12.520  0.00  0.00     0.249 C 
HETATM    3  H           1     -34.637  -0.554 -11.710  0.00  0.00     0.163 HD
HETATM    4  O           1     -34.635  -3.196 -13.401  0.00  0.00    -0.271 OA
ENDROOT
BRANCH   1   5
HETATM    5  C           1     -35.892  -0.800 -13.430  0.00  0.00     0.185 C 
BRANCH   5   6
HETATM    6  C           1     -35.264   0.136 -14.432  0.00  0.00     0.196 C 
HETATM    7  O           1     -35.193   1.359 -14.186  0.00  0.00    -0.646 OA
HETATM    8  O           1     -34.813  -0.313 -15.509  0.00  0.00    -0.646 OA
ENDBRANCH   5   6
BRANCH   5   9
HETATM    9  C           1     -37.046  -0.095 -12.728  0.00  0.00     0.036 C 
BRANCH   9  10
HETATM   10  C           1     -36.710   0.082 -11.253  0.00  0.00     0.004 C 
BRANCH  10  11
HETATM   11  C           1     -37.989   0.017 -10.428  0.00  0.00     0.027 C 
BRANCH  11  12
HETATM   12  C           1     -37.966   1.108  -9.366  0.00  0.00     0.229 C 
BRANCH  12  13
HETATM   13  N           1     -36.547   1.384  -8.964  0.00  0.00    -0.079 N 
HETATM   14  H           1     -36.481   1.423  -7.922  0.00  0.00     0.274 HD
HETATM   15  H           1     -35.929   0.622  -9.325  0.00  0.00     0.274 HD
HETATM   16  H           1     -36.243   2.299  -9.366  0.00  0.00     0.274 HD
ENDBRANCH  12  13
ENDBRANCH  11  12
ENDBRANCH  10  11
ENDBRANCH   9  10
ENDBRANCH   5   9
ENDBRANCH   1   5
BRANCH   2  17
HETATM   17  C           1     -33.287  -2.842 -11.499  0.00  0.00     0.275 C 
BRANCH  17  18
HETATM   18  C           1     -33.026  -4.338 -11.613  0.00  0.00     0.052 C 
BRANCH  18  19
HETATM   19  C           1     -33.848  -5.079 -10.566  0.00  0.00     0.105 C 
BRANCH  19  20
HETATM   20  C           1     -34.565  -6.237 -11.216  0.00  0.00     0.215 C 
HETATM   21  N           1     -34.951  -6.153 -12.527  0.00  0.00    -0.370 N 
HETATM   22  H           1     -35.432  -6.931 -12.963  0.00  0.00     0.159 HD
HETATM   23  H           1     -34.756  -5.316 -13.060  0.00  0.00     0.159 HD
HETATM   24  O           1     -34.797  -7.237 -10.581  0.00  0.00    -0.274 OA
ENDBRANCH  19  20
ENDBRANCH  18  19
ENDBRANCH  17  18
BRANCH  17  25
HETATM   25  N           1     -33.793  -2.527 -10.123  0.00  0.00    -0.066 N 
HETATM   26  H           1     -33.375  -1.627  -9.795  0.00  0.00     0.275 HD
HETATM   27  H           1     -34.834  -2.438 -10.147  0.00  0.00     0.275 HD
HETATM   28  H           1     -33.524  -3.294  -9.468  0.00  0.00     0.275 HD
ENDBRANCH  17  25
ENDBRANCH   2  17
TORSDOF 12
ENDMDL
MODEL 4
REMARK VINA RESULT:      -6.3     12.049     13.503
REMARK  12 active torsions:
REMARK  status: ('A' for Active; 'I' for Inactive)
REMARK    1  A    between atoms: N_1  and  C_15 
REMARK    2  A    between atoms: C_2  and  C_14 
REMARK    3  A    between atoms: C_2  and  C_3 
REMARK    4  A    between atoms: C_2  and  N_8 
REMARK    5  A    between atoms: C_3  and  C_4 
REMARK    6  A    between atoms: C_4  and  C_5 
REMARK       I    between atoms: C_5  and  N_6 
REMARK    7  A    between atoms: N_10  and  C_22 
REMARK       I    between atoms: N_10  and  C_14 
REMARK    8  A    between atoms: C_15  and  C_16 
REMARK    9  A    between atoms: C_16  and  C_28 
REMARK   10  A    between atoms: C_17  and  C_22 
REMARK   11  A    between atoms: C_18  and  C_28 
REMARK   12  A    between atoms: C_18  and  C_22 
ROOT
HETATM    1  N           1     -22.061  -4.686  -9.213  0.00  0.00    -0.345 N 
HETATM    2  C           1     -21.542  -4.392  -7.981  0.00  0.00     0.249 C 
HETATM    3  H           1     -21.983  -5.624  -9.584  0.00  0.00     0.163 HD
HETATM    4  O           1     -21.635  -3.273  -7.538  0.00  0.00    -0.271 OA
ENDROOT
BRANCH   1   5
HETATM    5  C           1     -22.722  -3.653  -9.987  0.00  0.00     0.185 C 
BRANCH   5   6
HETATM    6  C           1     -24.216  -3.800  -9.848  0.00  0.00     0.196 C 
HETATM    7  O           1     -24.758  -4.906 -10.065  0.00  0.00    -0.646 OA
HETATM    8  O           1     -24.914  -2.817  -9.516  0.00  0.00    -0.646 OA
ENDBRANCH   5   6
BRANCH   5   9
HETATM    9  C           1     -22.330  -3.789 -11.452  0.00  0.00     0.036 C 
BRANCH   9  10
HETATM   10  C           1     -22.868  -2.598 -12.234  0.00  0.00     0.004 C 
BRANCH  10  11
HETATM   11  C           1     -23.533  -3.089 -13.514  0.00  0.00     0.027 C 
BRANCH  11  12
HETATM   12  C           1     -23.268  -2.097 -14.638  0.00  0.00     0.229 C 
BRANCH  12  13
HETATM   13  N           1     -24.124  -0.880 -14.444  0.00  0.00    -0.079 N 
HETATM   14  H           1     -24.631  -0.952 -13.533  0.00  0.00     0.274 HD
HETATM   15  H           1     -23.520  -0.027 -14.441  0.00  0.00     0.274 HD
HETATM   16  H           1     -24.816  -0.814 -15.224  0.00  0.00     0.274 HD
ENDBRANCH  12  13
ENDBRANCH  11  12
ENDBRANCH  10  11
ENDBRANCH   9  10
ENDBRANCH   5   9
ENDBRANCH   1   5
BRANCH   2  17
HETATM   17  C           1     -20.855  -5.467  -7.175  0.00  0.00     0.275 C 
BRANCH  17  18
HETATM   18  C           1     -21.762  -5.906  -6.033  0.00  0.00     0.052 C 
BRANCH  18  19
HETATM   19  C           1     -21.054  -5.678  -4.705  0.00  0.00     0.105 C 
BRANCH  19  20
HETATM   20  C           1     -21.657  -6.577  -3.653  0.00  0.00     0.215 C 
HETATM   21  N           1     -22.193  -6.035  -2.516  0.00  0.00    -0.370 N 
HETATM   22  H           1     -22.598  -6.638  -1.810  0.00  0.00     0.159 HD
HETATM   23  H           1     -22.186  -5.032  -2.381  0.00  0.00     0.159 HD
HETATM   24  O           1     -21.666  -7.774  -3.814  0.00  0.00    -0.274 OA
ENDBRANCH  19  20
ENDBRANCH  18  19
ENDBRANCH  17  18
BRANCH  17  25
HETATM   25  N           1     -19.573  -4.928  -6.615  0.00  0.00    -0.066 N 
HETATM   26  H           1     -19.597  -4.983  -5.572  0.00  0.00     0.275 HD
HETATM   27  H           1     -18.771  -5.494  -6.974  0.00  0.00     0.275 HD
HETATM   28  H           1     -19.455  -3.932  -6.908  0.00  0.00     0.275 HD
ENDBRANCH  17  25
ENDBRANCH   2  17
TORSDOF 12
ENDMDL
MODEL 5
REMARK VINA RESULT:      -6.3      2.759      5.272
REMARK  12 active torsions:
REMARK  status: ('A' for Active; 'I' for Inactive)
REMARK    1  A    between atoms: N_1  and  C_15 
REMARK    2  A    between atoms: C_2  and  C_14 
REMARK    3  A    between atoms: C_2  and  C_3 
REMARK    4  A    between atoms: C_2  and  N_8 
REMARK    5  A    between atoms: C_3  and  C_4 
REMARK    6  A    between atoms: C_4  and  C_5 
REMARK       I    between atoms: C_5  and  N_6 
REMARK    7  A    between atoms: N_10  and  C_22 
REMARK       I    between atoms: N_10  and  C_14 
REMARK    8  A    between atoms: C_15  and  C_16 
REMARK    9  A    between atoms: C_16  and  C_28 
REMARK   10  A    between atoms: C_17  and  C_22 
REMARK   11  A    between atoms: C_18  and  C_28 
REMARK   12  A    between atoms: C_18  and  C_22 
ROOT
HETATM    1  N           1     -35.967  -0.479 -12.295  0.00  0.00    -0.345 N 
HETATM    2  C           1     -36.760  -0.350 -13.404  0.00  0.00     0.249 C 
HETATM    3  H           1     -35.011  -0.146 -12.315  0.00  0.00     0.163 HD
HETATM    4  O           1     -37.900  -0.748 -13.379  0.00  0.00    -0.271 OA
ENDROOT
BRANCH   1   5
HETATM    5  C           1     -36.496  -1.093 -11.093  0.00  0.00     0.185 C 
BRANCH   5   6
HETATM    6  C           1     -36.809  -0.021 -10.078  0.00  0.00     0.196 C 
HETATM    7  O           1     -37.705   0.819 -10.312  0.00  0.00    -0.646 OA
HETATM    8  O           1     -36.172   0.027  -9.003  0.00  0.00    -0.646 OA
ENDBRANCH   5   6
BRANCH   5   9
HETATM    9  C           1     -35.461  -2.053 -10.518  0.00  0.00     0.036 C 
BRANCH   9  10
HETATM   10  C           1     -34.107  -1.782 -11.159  0.00  0.00     0.004 C 
BRANCH  10  11
HETATM   11  C           1     -33.348  -3.093 -11.319  0.00  0.00     0.027 C 
BRANCH  11  12
HETATM   12  C           1     -34.142  -4.034 -12.217  0.00  0.00     0.229 C 
BRANCH  12  13
HETATM   13  N           1     -33.401  -4.238 -13.505  0.00  0.00    -0.079 N 
HETATM   14  H           1     -33.928  -3.786 -14.286  0.00  0.00     0.274 HD
HETATM   15  H           1     -32.450  -3.809 -13.432  0.00  0.00     0.274 HD
HETATM   16  H           1     -33.308  -5.261 -13.694  0.00  0.00     0.274 HD
ENDBRANCH  12  13
ENDBRANCH  11  12
ENDBRANCH  10  11
ENDBRANCH   9  10
ENDBRANCH   5   9
ENDBRANCH   1   5
BRANCH   2  17
HETATM   17  C           1     -36.210   0.288 -14.655  0.00  0.00     0.275 C 
BRANCH  17  18
HETATM   18  C           1     -36.544  -0.583 -15.859  0.00  0.00     0.052 C 
BRANCH  18  19
HETATM   19  C           1     -35.292  -0.788 -16.702  0.00  0.00     0.105 C 
BRANCH  19  20
HETATM   20  C           1     -34.738  -2.170 -16.453  0.00  0.00     0.215 C 
HETATM   21  N           1     -34.075  -2.831 -17.451  0.00  0.00    -0.370 N 
HETATM   22  H           1     -33.703  -3.758 -17.284  0.00  0.00     0.159 HD
HETATM   23  H           1     -33.955  -2.393 -18.355  0.00  0.00     0.159 HD
HETATM   24  O           1     -34.881  -2.692 -15.374  0.00  0.00    -0.274 OA
ENDBRANCH  19  20
ENDBRANCH  18  19
ENDBRANCH  17  18
BRANCH  17  25
HETATM   25  N           1     -34.721   0.423 -14.534  0.00  0.00    -0.066 N 
HETATM   26  H           1     -34.377  -0.192 -13.763  0.00  0.00     0.275 HD
HETATM   27  H           1     -34.272   0.138 -15.433  0.00  0.00     0.275 HD
HETATM   28  H           1     -34.477   1.417 -14.322  0.00  0.00     0.275 HD
ENDBRANCH  17  25
ENDBRANCH   2  17
TORSDOF 12
ENDMDL
MODEL 6
REMARK VINA RESULT:      -6.3     12.386     15.208
REMARK  12 active torsions:
REMARK  status: ('A' for Active; 'I' for Inactive)
REMARK    1  A    between atoms: N_1  and  C_15 
REMARK    2  A    between atoms: C_2  and  C_14 
REMARK    3  A    between atoms: C_2  and  C_3 
REMARK    4  A    between atoms: C_2  and  N_8 
REMARK    5  A    between atoms: C_3  and  C_4 
REMARK    6  A    between atoms: C_4  and  C_5 
REMARK       I    between atoms: C_5  and  N_6 
REMARK    7  A    between atoms: N_10  and  C_22 
REMARK       I    between atoms: N_10  and  C_14 
REMARK    8  A    between atoms: C_15  and  C_16 
REMARK    9  A    between atoms: C_16  and  C_28 
REMARK   10  A    between atoms: C_17  and  C_22 
REMARK   11  A    between atoms: C_18  and  C_28 
REMARK   12  A    between atoms: C_18  and  C_22 
ROOT
HETATM    1  N           1     -22.209  -5.270  -8.496  0.00  0.00    -0.345 N 
HETATM    2  C           1     -23.090  -4.314  -8.922  0.00  0.00     0.249 C 
HETATM    3  H           1     -22.328  -6.233  -8.786  0.00  0.00     0.163 HD
HETATM    4  O           1     -22.948  -3.165  -8.576  0.00  0.00    -0.271 OA
ENDROOT
BRANCH   1   5
HETATM    5  C           1     -21.105  -4.906  -7.629  0.00  0.00     0.185 C 
BRANCH   5   6
HETATM    6  C           1     -19.891  -4.591  -8.468  0.00  0.00     0.196 C 
HETATM    7  O           1     -19.915  -4.790  -9.702  0.00  0.00    -0.646 OA
HETATM    8  O           1     -18.861  -4.131  -7.929  0.00  0.00    -0.646 OA
ENDBRANCH   5   6
BRANCH   5   9
HETATM    9  C           1     -20.791  -6.067  -6.694  0.00  0.00     0.036 C 
BRANCH   9  10
HETATM   10  C           1     -20.769  -5.567  -5.256  0.00  0.00     0.004 C 
BRANCH  10  11
HETATM   11  C           1     -21.733  -6.396  -4.415  0.00  0.00     0.027 C 
BRANCH  11  12
HETATM   12  C           1     -21.295  -6.360  -2.957  0.00  0.00     0.229 C 
BRANCH  12  13
HETATM   13  N           1     -22.437  -5.892  -2.103  0.00  0.00    -0.079 N 
HETATM   14  H           1     -22.180  -4.991  -1.641  0.00  0.00     0.274 HD
HETATM   15  H           1     -23.282  -5.748  -2.702  0.00  0.00     0.274 HD
HETATM   16  H           1     -22.644  -6.611  -1.374  0.00  0.00     0.274 HD
ENDBRANCH  12  13
ENDBRANCH  11  12
ENDBRANCH  10  11
ENDBRANCH   9  10
ENDBRANCH   5   9
ENDBRANCH   1   5
BRANCH   2  17
HETATM   17  C           1     -24.239  -4.693  -9.824  0.00  0.00     0.275 C 
BRANCH  17  18
HETATM   18  C           1     -23.742  -4.807 -11.260  0.00  0.00     0.052 C 
BRANCH  18  19
HETATM   19  C           1     -23.906  -3.465 -11.962  0.00  0.00     0.105 C 
BRANCH  19  20
HETATM   20  C           1     -22.581  -3.036 -12.542  0.00  0.00     0.215 C 
HETATM   21  N           1     -22.365  -3.120 -13.892  0.00  0.00    -0.370 N 
HETATM   22  H           1     -21.475  -2.832 -14.281  0.00  0.00     0.159 HD
HETATM   23  H           1     -23.094  -3.470 -14.499  0.00  0.00     0.159 HD
HETATM   24  O           1     -21.710  -2.618 -11.816  0.00  0.00    -0.274 OA
ENDBRANCH  19  20
ENDBRANCH  18  19
ENDBRANCH  17  18
BRANCH  17  25
HETATM   25  N           1     -25.303  -3.640  -9.746  0.00  0.00    -0.066 N 
HETATM   26  H           1     -25.365  -3.278  -8.768  0.00  0.00     0.275 HD
HETATM   27  H           1     -25.064  -2.855 -10.392  0.00  0.00     0.275 HD
HETATM   28  H           1     -26.223  -4.052 -10.023  0.00  0.00     0.275 HD
ENDBRANCH  17  25
ENDBRANCH   2  17
TORSDOF 12
ENDMDL
MODEL 7
REMARK VINA RESULT:      -5.9     13.532     16.429
REMARK  12 active torsions:
REMARK  status: ('A' for Active; 'I' for Inactive)
REMARK    1  A    between atoms: N_1  and  C_15 
REMARK    2  A    between atoms: C_2  and  C_14 
REMARK    3  A    between atoms: C_2  and  C_3 
REMARK    4  A    between atoms: C_2  and  N_8 
REMARK    5  A    between atoms: C_3  and  C_4 
REMARK    6  A    between atoms: C_4  and  C_5 
REMARK       I    between atoms: C_5  and  N_6 
REMARK    7  A    between atoms: N_10  and  C_22 
REMARK       I    between atoms: N_10  and  C_14 
REMARK    8  A    between atoms: C_15  and  C_16 
REMARK    9  A    between atoms: C_16  and  C_28 
REMARK   10  A    between atoms: C_17  and  C_22 
REMARK   11  A    between atoms: C_18  and  C_28 
REMARK   12  A    between atoms: C_18  and  C_22 
ROOT
HETATM    1  N           1     -21.520  -5.714  -5.703  0.00  0.00    -0.345 N 
HETATM    2  C           1     -20.707  -4.722  -6.178  0.00  0.00     0.249 C 
HETATM    3  H           1     -22.424  -5.876  -6.130  0.00  0.00     0.163 HD
HETATM    4  O           1     -19.628  -4.530  -5.669  0.00  0.00    -0.271 OA
ENDROOT
BRANCH   1   5
HETATM    5  C           1     -21.088  -6.536  -4.589  0.00  0.00     0.185 C 
BRANCH   5   6
HETATM    6  C           1     -20.694  -7.901  -5.095  0.00  0.00     0.196 C 
HETATM    7  O           1     -19.659  -8.039  -5.782  0.00  0.00    -0.646 OA
HETATM    8  O           1     -21.404  -8.896  -4.827  0.00  0.00    -0.646 OA
ENDBRANCH   5   6
BRANCH   5   9
HETATM    9  C           1     -22.229  -6.672  -3.588  0.00  0.00     0.036 C 
BRANCH   9  10
HETATM   10  C           1     -21.833  -6.009  -2.276  0.00  0.00     0.004 C 
BRANCH  10  11
HETATM   11  C           1     -22.276  -6.885  -1.110  0.00  0.00     0.027 C 
BRANCH  11  12
HETATM   12  C           1     -21.599  -8.246  -1.211  0.00  0.00     0.229 C 
BRANCH  12  13
HETATM   13  N           1     -22.554  -9.313  -0.766  0.00  0.00    -0.079 N 
HETATM   14  H           1     -23.359  -9.361  -1.431  0.00  0.00     0.274 HD
HETATM   15  H           1     -22.061 -10.235  -0.748  0.00  0.00     0.274 HD
HETATM   16  H           1     -22.906  -9.088   0.192  0.00  0.00     0.274 HD
ENDBRANCH  12  13
ENDBRANCH  11  12
ENDBRANCH  10  11
ENDBRANCH   9  10
ENDBRANCH   5   9
ENDBRANCH   1   5
BRANCH   2  17
HETATM   17  C           1     -21.156  -3.867  -7.338  0.00  0.00     0.275 C 
BRANCH  17  18
HETATM   18  C           1     -22.470  -4.408  -7.888  0.00  0.00     0.052 C 
BRANCH  18  19
HETATM   19  C           1     -22.859  -3.627  -9.136  0.00  0.00     0.105 C 
BRANCH  19  20
HETATM   20  C           1     -24.066  -4.268  -9.775  0.00  0.00     0.215 C 
HETATM   21  N           1     -25.306  -3.716  -9.601  0.00  0.00    -0.370 N 
HETATM   22  H           1     -26.117  -4.146 -10.030  0.00  0.00     0.159 HD
HETATM   23  H           1     -25.413  -2.877  -9.045  0.00  0.00     0.159 HD
HETATM   24  O           1     -23.938  -5.269 -10.439  0.00  0.00    -0.274 OA
ENDBRANCH  19  20
ENDBRANCH  18  19
ENDBRANCH  17  18
BRANCH  17  25
HETATM   25  N           1     -20.114  -3.899  -8.415  0.00  0.00    -0.066 N 
HETATM   26  H           1     -19.180  -3.674  -8.003  0.00  0.00     0.275 HD
HETATM   27  H           1     -20.084  -4.851  -8.843  0.00  0.00     0.275 HD
HETATM   28  H           1     -20.349  -3.193  -9.149  0.00  0.00     0.275 HD
ENDBRANCH  17  25
ENDBRANCH   2  17
TORSDOF 12
ENDMDL
MODEL 8
REMARK VINA RESULT:      -5.8     14.379     17.086
REMARK  12 active torsions:
REMARK  status: ('A' for Active; 'I' for Inactive)
REMARK    1  A    between atoms: N_1  and  C_15 
REMARK    2  A    between atoms: C_2  and  C_14 
REMARK    3  A    between atoms: C_2  and  C_3 
REMARK    4  A    between atoms: C_2  and  N_8 
REMARK    5  A    between atoms: C_3  and  C_4 
REMARK    6  A    between atoms: C_4  and  C_5 
REMARK       I    between atoms: C_5  and  N_6 
REMARK    7  A    between atoms: N_10  and  C_22 
REMARK       I    between atoms: N_10  and  C_14 
REMARK    8  A    between atoms: C_15  and  C_16 
REMARK    9  A    between atoms: C_16  and  C_28 
REMARK   10  A    between atoms: C_17  and  C_22 
REMARK   11  A    between atoms: C_18  and  C_28 
REMARK   12  A    between atoms: C_18  and  C_22 
ROOT
HETATM    1  N           1     -21.492  -6.074  -5.966  0.00  0.00    -0.345 N 
HETATM    2  C           1     -20.781  -5.118  -6.642  0.00  0.00     0.249 C 
HETATM    3  H           1     -22.360  -6.424  -6.351  0.00  0.00     0.163 HD
HETATM    4  O           1     -19.745  -4.701  -6.183  0.00  0.00    -0.271 OA
ENDROOT
BRANCH   1   5
HETATM    5  C           1     -21.001  -6.584  -4.701  0.00  0.00     0.185 C 
BRANCH   5   6
HETATM    6  C           1     -20.499  -7.994  -4.889  0.00  0.00     0.196 C 
HETATM    7  O           1     -19.629  -8.457  -4.119  0.00  0.00    -0.646 OA
HETATM    8  O           1     -20.953  -8.701  -5.816  0.00  0.00    -0.646 OA
ENDBRANCH   5   6
BRANCH   5   9
HETATM    9  C           1     -22.132  -6.577  -3.680  0.00  0.00     0.036 C 
BRANCH   9  10
HETATM   10  C           1     -21.601  -6.086  -2.340  0.00  0.00     0.004 C 
BRANCH  10  11
HETATM   11  C           1     -22.335  -6.798  -1.210  0.00  0.00     0.027 C 
BRANCH  11  12
HETATM   12  C           1     -21.459  -7.915  -0.658  0.00  0.00     0.229 C 
BRANCH  12  13
HETATM   13  N           1     -21.762  -8.116   0.797  0.00  0.00    -0.079 N 
HETATM   14  H           1     -20.957  -8.596   1.258  0.00  0.00     0.274 HD
HETATM   15  H           1     -21.922  -7.188   1.251  0.00  0.00     0.274 HD
HETATM   16  H           1     -22.621  -8.705   0.895  0.00  0.00     0.274 HD
ENDBRANCH  12  13
ENDBRANCH  11  12
ENDBRANCH  10  11
ENDBRANCH   9  10
ENDBRANCH   5   9
ENDBRANCH   1   5
BRANCH   2  17
HETATM   17  C           1     -21.292  -4.587  -7.958  0.00  0.00     0.275 C 
BRANCH  17  18
HETATM   18  C           1     -20.121  -4.078  -8.789  0.00  0.00     0.052 C 
BRANCH  18  19
HETATM   19  C           1     -20.087  -4.812 -10.123  0.00  0.00     0.105 C 
BRANCH  19  20
HETATM   20  C           1     -20.969  -4.095 -11.115  0.00  0.00     0.215 C 
HETATM   21  N           1     -20.601  -2.866 -11.594  0.00  0.00    -0.370 N 
HETATM   22  H           1     -21.194  -2.384 -12.260  0.00  0.00     0.159 HD
HETATM   23  H           1     -19.738  -2.440 -11.284  0.00  0.00     0.159 HD
HETATM   24  O           1     -22.000  -4.603 -11.486  0.00  0.00    -0.274 OA
ENDBRANCH  19  20
ENDBRANCH  18  19
ENDBRANCH  17  18
BRANCH  17  25
HETATM   25  N           1     -22.250  -3.462  -7.705  0.00  0.00    -0.066 N 
HETATM   26  H           1     -21.832  -2.796  -7.016  0.00  0.00     0.275 HD
HETATM   27  H           1     -22.442  -2.960  -8.601  0.00  0.00     0.275 HD
HETATM   28  H           1     -23.143  -3.844  -7.320  0.00  0.00     0.275 HD
ENDBRANCH  17  25
ENDBRANCH   2  17
TORSDOF 12
ENDMDL
MODEL 9
REMARK VINA RESULT:      -5.7     14.161     17.015
REMARK  12 active torsions:
REMARK  status: ('A' for Active; 'I' for Inactive)
REMARK    1  A    between atoms: N_1  and  C_15 
REMARK    2  A    between atoms: C_2  and  C_14 
REMARK    3  A    between atoms: C_2  and  C_3 
REMARK    4  A    between atoms: C_2  and  N_8 
REMARK    5  A    between atoms: C_3  and  C_4 
REMARK    6  A    between atoms: C_4  and  C_5 
REMARK       I    between atoms: C_5  and  N_6 
REMARK    7  A    between atoms: N_10  and  C_22 
REMARK       I    between atoms: N_10  and  C_14 
REMARK    8  A    between atoms: C_15  and  C_16 
REMARK    9  A    between atoms: C_16  and  C_28 
REMARK   10  A    between atoms: C_17  and  C_22 
REMARK   11  A    between atoms: C_18  and  C_28 
REMARK   12  A    between atoms: C_18  and  C_22 
ROOT
HETATM    1  N           1     -20.840  -6.618  -4.871  0.00  0.00    -0.345 N 
HETATM    2  C           1     -21.398  -5.708  -5.728  0.00  0.00     0.249 C 
HETATM    3  H           1     -19.836  -6.744  -4.850  0.00  0.00     0.163 HD
HETATM    4  O           1     -22.596  -5.558  -5.752  0.00  0.00    -0.271 OA
ENDROOT
BRANCH   1   5
HETATM    5  C           1     -21.687  -7.401  -3.992  0.00  0.00     0.185 C 
BRANCH   5   6
HETATM    6  C           1     -21.613  -6.842  -2.593  0.00  0.00     0.196 C 
HETATM    7  O           1     -20.837  -7.352  -1.756  0.00  0.00    -0.646 OA
HETATM    8  O           1     -22.328  -5.868  -2.271  0.00  0.00    -0.646 OA
ENDBRANCH   5   6
BRANCH   5   9
HETATM    9  C           1     -21.210  -8.849  -3.988  0.00  0.00     0.036 C 
BRANCH   9  10
HETATM   10  C           1     -19.945  -8.968  -4.827  0.00  0.00     0.004 C 
BRANCH  10  11
HETATM   11  C           1     -18.793  -9.436  -3.946  0.00  0.00     0.027 C 
BRANCH  11  12
HETATM   12  C           1     -17.620  -9.855  -4.823  0.00  0.00     0.229 C 
BRANCH  12  13
HETATM   13  N           1     -18.002  -9.721  -6.268  0.00  0.00    -0.079 N 
HETATM   14  H           1     -18.003  -8.711  -6.536  0.00  0.00     0.274 HD
HETATM   15  H           1     -17.312 -10.238  -6.859  0.00  0.00     0.274 HD
HETATM   16  H           1     -18.956 -10.121  -6.414  0.00  0.00     0.274 HD
ENDBRANCH  12  13
ENDBRANCH  11  12
ENDBRANCH  10  11
ENDBRANCH   9  10
ENDBRANCH   5   9
ENDBRANCH   1   5
BRANCH   2  17
HETATM   17  C           1     -20.517  -4.893  -6.642  0.00  0.00     0.275 C 
BRANCH  17  18
HETATM   18  C           1     -21.317  -3.730  -7.215  0.00  0.00     0.052 C 
BRANCH  18  19
HETATM   19  C           1     -21.523  -3.942  -8.709  0.00  0.00     0.105 C 
BRANCH  19  20
HETATM   20  C           1     -22.989  -3.807  -9.038  0.00  0.00     0.215 C 
HETATM   21  N           1     -23.932  -4.066  -8.080  0.00  0.00    -0.370 N 
HETATM   22  H           1     -24.917  -3.975  -8.302  0.00  0.00     0.159 HD
HETATM   23  H           1     -23.646  -4.347  -7.152  0.00  0.00     0.159 HD
HETATM   24  O           1     -23.331  -3.471 -10.147  0.00  0.00    -0.274 OA
ENDBRANCH  19  20
ENDBRANCH  18  19
ENDBRANCH  17  18
BRANCH  17  25
HETATM   25  N           1     -20.023  -5.759  -7.762  0.00  0.00    -0.066 N 
HETATM   26  H           1     -19.724  -6.685  -7.381  0.00  0.00     0.275 HD
HETATM   27  H           1     -20.790  -5.901  -8.457  0.00  0.00     0.275 HD
HETATM   28  H           1     -19.211  -5.296  -8.229  0.00  0.00     0.275 HD
ENDBRANCH  17  25
ENDBRANCH   2  17
TORSDOF 12
ENDMDL
