MODEL 1
REMARK VINA RESULT:      -5.7      0.000      0.000
REMARK  5 active torsions:
REMARK  status: ('A' for Active; 'I' for Inactive)
REMARK    1  A    between atoms: C_2  and  C_7 
REMARK    2  A    between atoms: C_7  and  C_8 
REMARK    3  A    between atoms: C_7  and  N_15 
REMARK    4  A    between atoms: C_8  and  Se_12 
REMARK       I    between atoms: C_9  and  N_15 
REMARK    5  A    between atoms: C_9  and  C_10 
ROOT
HETATM    1  C           1     -22.041  -4.464  -8.081  0.00  0.00     0.251 C 
HETATM    2  H           1     -22.218  -5.441  -9.896  0.00  0.00     0.163 HD
HETATM    3  N           1     -22.377  -4.572  -9.403  0.00  0.00    -0.345 N 
HETATM    4  O           1     -22.229  -3.426  -7.492  0.00  0.00    -0.271 OA
ENDROOT
BRANCH   3   5
HETATM    5  C           1     -22.960  -3.442 -10.098  0.00  0.00     0.185 C 
BRANCH   5   6
HETATM    6  C           1     -24.389  -3.760 -10.464  0.00  0.00     0.196 C 
HETATM    7  O           1     -25.013  -4.644  -9.837  0.00  0.00    -0.646 OA
HETATM    8  O           1     -24.949  -3.139 -11.394  0.00  0.00    -0.646 OA
ENDBRANCH   5   6
BRANCH   5   9
HETATM    9  C           1     -22.164  -3.157 -11.365  0.00  0.00     0.039 C 
BRANCH   9  10
HETATM   10 Se           1     -20.408  -3.996 -11.232  0.00  0.00     0.000 Se
HETATM   11  H           1     -20.749  -4.786 -10.037  0.00  0.00     0.000 HD
ENDBRANCH   9  10
ENDBRANCH   5   9
ENDBRANCH   3   5
BRANCH   1  12
HETATM   12  C           1     -21.432  -5.641  -7.358  0.00  0.00     0.311 C 
HETATM   13  C           1     -21.301  -5.354  -5.872  0.00  0.00     0.047 C 
HETATM   14  C           1     -19.880  -4.832  -5.693  0.00  0.00     0.033 C 
HETATM   15  C           1     -19.271  -4.856  -7.083  0.00  0.00     0.271 C 
HETATM   16  N           1     -20.056  -5.864  -7.792  0.00  0.00     0.097 N 
HETATM   17  H           1     -19.738  -6.794  -7.523  0.00  0.00     0.317 HD
ENDBRANCH   1  12
TORSDOF 5
ENDMDL
MODEL 2
REMARK VINA RESULT:      -5.5      2.352      2.794
REMARK  5 active torsions:
REMARK  status: ('A' for Active; 'I' for Inactive)
REMARK    1  A    between atoms: C_2  and  C_7 
REMARK    2  A    between atoms: C_7  and  C_8 
REMARK    3  A    between atoms: C_7  and  N_15 
REMARK    4  A    between atoms: C_8  and  Se_12 
REMARK       I    between atoms: C_9  and  N_15 
REMARK    5  A    between atoms: C_9  and  C_10 
ROOT
HETATM    1  C           1     -20.618  -4.314  -9.185  0.00  0.00     0.251 C 
HETATM    2  H           1     -22.428  -3.314  -9.126  0.00  0.00     0.163 HD
HETATM    3  N           1     -21.834  -3.921  -9.675  0.00  0.00    -0.345 N 
HETATM    4  O           1     -19.908  -5.040  -9.840  0.00  0.00    -0.271 OA
ENDROOT
BRANCH   3   5
HETATM    5  C           1     -22.270  -4.373 -10.981  0.00  0.00     0.185 C 
BRANCH   5   6
HETATM    6  C           1     -22.126  -3.248 -11.976  0.00  0.00     0.196 C 
HETATM    7  O           1     -22.721  -3.305 -13.075  0.00  0.00    -0.646 OA
HETATM    8  O           1     -21.412  -2.258 -11.702  0.00  0.00    -0.646 OA
ENDBRANCH   5   6
BRANCH   5   9
HETATM    9  C           1     -23.730  -4.802 -10.910  0.00  0.00     0.039 C 
BRANCH   9  10
HETATM   10 Se           1     -24.724  -3.545  -9.798  0.00  0.00     0.000 Se
HETATM   11  H           1     -24.080  -3.968  -8.543  0.00  0.00     0.000 HD
ENDBRANCH   9  10
ENDBRANCH   5   9
ENDBRANCH   3   5
BRANCH   1  12
HETATM   12  C           1     -20.165  -3.844  -7.824  0.00  0.00     0.311 C 
HETATM   13  C           1     -19.233  -4.859  -7.184  0.00  0.00     0.047 C 
HETATM   14  C           1     -20.131  -5.724  -6.307  0.00  0.00     0.033 C 
HETATM   15  C           1     -21.528  -5.153  -6.484  0.00  0.00     0.271 C 
HETATM   16  N           1     -21.291  -3.772  -6.897  0.00  0.00     0.097 N 
HETATM   17  H           1     -21.051  -3.209  -6.081  0.00  0.00     0.317 HD
ENDBRANCH   1  12
TORSDOF 5
ENDMDL
MODEL 3
REMARK VINA RESULT:      -5.1      1.602      1.998
REMARK  5 active torsions:
REMARK  status: ('A' for Active; 'I' for Inactive)
REMARK    1  A    between atoms: C_2  and  C_7 
REMARK    2  A    between atoms: C_7  and  C_8 
REMARK    3  A    between atoms: C_7  and  N_15 
REMARK    4  A    between atoms: C_8  and  Se_12 
REMARK       I    between atoms: C_9  and  N_15 
REMARK    5  A    between atoms: C_9  and  C_10 
ROOT
HETATM    1  C           1     -20.810  -3.993  -7.623  0.00  0.00     0.251 C 
HETATM    2  H           1     -20.608  -5.292  -9.220  0.00  0.00     0.163 HD
HETATM    3  N           1     -21.068  -4.456  -8.884  0.00  0.00    -0.345 N 
HETATM    4  O           1     -21.358  -2.994  -7.222  0.00  0.00    -0.271 OA
ENDROOT
BRANCH   3   5
HETATM    5  C           1     -22.001  -3.750  -9.739  0.00  0.00     0.185 C 
BRANCH   5   6
HETATM    6  C           1     -23.372  -4.366  -9.605  0.00  0.00     0.196 C 
HETATM    7  O           1     -23.654  -5.407 -10.237  0.00  0.00    -0.646 OA
HETATM    8  O           1     -24.225  -3.835  -8.860  0.00  0.00    -0.646 OA
ENDBRANCH   5   6
BRANCH   5   9
HETATM    9  C           1     -21.540  -3.852 -11.188  0.00  0.00     0.039 C 
BRANCH   9  10
HETATM   10 Se           1     -22.684  -2.745 -12.314  0.00  0.00     0.000 Se
HETATM   11  H           1     -22.058  -1.477 -11.902  0.00  0.00     0.000 HD
ENDBRANCH   9  10
ENDBRANCH   5   9
ENDBRANCH   3   5
BRANCH   1  12
HETATM   12  C           1     -19.837  -4.728  -6.733  0.00  0.00     0.311 C 
HETATM   13  C           1     -19.853  -6.218  -7.030  0.00  0.00     0.047 C 
HETATM   14  C           1     -20.832  -6.812  -6.024  0.00  0.00     0.033 C 
HETATM   15  C           1     -21.319  -5.634  -5.200  0.00  0.00     0.271 C 
HETATM   16  N           1     -20.250  -4.648  -5.334  0.00  0.00     0.097 N 
HETATM   17  H           1     -19.478  -4.896  -4.715  0.00  0.00     0.317 HD
ENDBRANCH   1  12
TORSDOF 5
ENDMDL
MODEL 4
REMARK VINA RESULT:      -5.0      4.088      6.359
REMARK  5 active torsions:
REMARK  status: ('A' for Active; 'I' for Inactive)
REMARK    1  A    between atoms: C_2  and  C_7 
REMARK    2  A    between atoms: C_7  and  C_8 
REMARK    3  A    between atoms: C_7  and  N_15 
REMARK    4  A    between atoms: C_8  and  Se_12 
REMARK       I    between atoms: C_9  and  N_15 
REMARK    5  A    between atoms: C_9  and  C_10 
ROOT
HETATM    1  C           1     -21.407  -5.393  -5.624  0.00  0.00     0.251 C 
HETATM    2  H           1     -19.716  -6.050  -4.630  0.00  0.00     0.163 HD
HETATM    3  N           1     -20.707  -6.200  -4.768  0.00  0.00    -0.345 N 
HETATM    4  O           1     -22.591  -5.571  -5.790  0.00  0.00    -0.271 OA
ENDROOT
BRANCH   3   5
HETATM    5  C           1     -21.385  -7.267  -4.060  0.00  0.00     0.185 C 
BRANCH   5   6
HETATM    6  C           1     -21.598  -6.860  -2.623  0.00  0.00     0.196 C 
HETATM    7  O           1     -22.442  -5.982  -2.340  0.00  0.00    -0.646 OA
HETATM    8  O           1     -20.931  -7.403  -1.714  0.00  0.00    -0.646 OA
ENDBRANCH   5   6
BRANCH   5   9
HETATM    9  C           1     -20.534  -8.530  -4.108  0.00  0.00     0.039 C 
BRANCH   9  10
HETATM   10 Se           1     -21.690 -10.098  -4.020  0.00  0.00     0.000 Se
HETATM   11  H           1     -21.383 -10.544  -5.389  0.00  0.00     0.000 HD
ENDBRANCH   9  10
ENDBRANCH   5   9
ENDBRANCH   3   5
BRANCH   1  12
HETATM   12  C           1     -20.701  -4.282  -6.362  0.00  0.00     0.311 C 
HETATM   13  C           1     -21.590  -3.707  -7.452  0.00  0.00     0.047 C 
HETATM   14  C           1     -21.198  -4.457  -8.720  0.00  0.00     0.033 C 
HETATM   15  C           1     -20.100  -5.415  -8.291  0.00  0.00     0.271 C 
HETATM   16  N           1     -19.544  -4.795  -7.091  0.00  0.00     0.097 N 
HETATM   17  H           1     -18.920  -4.034  -7.359  0.00  0.00     0.317 HD
ENDBRANCH   1  12
TORSDOF 5
ENDMDL
MODEL 5
REMARK VINA RESULT:      -4.7      6.501      8.263
REMARK  5 active torsions:
REMARK  status: ('A' for Active; 'I' for Inactive)
REMARK    1  A    between atoms: C_2  and  C_7 
REMARK    2  A    between atoms: C_7  and  C_8 
REMARK    3  A    between atoms: C_7  and  N_15 
REMARK    4  A    between atoms: C_8  and  Se_12 
REMARK       I    between atoms: C_9  and  N_15 
REMARK    5  A    between atoms: C_9  and  C_10 
ROOT
HETATM    1  C           1     -20.910  -9.149  -1.568  0.00  0.00     0.251 C 
HETATM    2  H           1     -22.689  -8.530  -2.425  0.00  0.00     0.163 HD
HETATM    3  N           1     -21.680  -8.519  -2.508  0.00  0.00    -0.345 N 
HETATM    4  O           1     -19.706  -9.136  -1.665  0.00  0.00    -0.271 OA
ENDROOT
BRANCH   3   5
HETATM    5  C           1     -21.052  -7.835  -3.620  0.00  0.00     0.185 C 
BRANCH   5   6
HETATM    6  C           1     -21.467  -6.384  -3.618  0.00  0.00     0.196 C 
HETATM    7  O           1     -22.261  -5.963  -2.748  0.00  0.00    -0.646 OA
HETATM    8  O           1     -21.016  -5.604  -4.484  0.00  0.00    -0.646 OA
ENDBRANCH   5   6
BRANCH   5   9
HETATM    9  C           1     -21.488  -8.485  -4.927  0.00  0.00     0.039 C 
BRANCH   9  10
HETATM   10 Se           1     -20.571 -10.192  -5.142  0.00  0.00     0.000 Se
HETATM   11  H           1     -21.609 -10.968  -4.443  0.00  0.00     0.000 HD
ENDBRANCH   9  10
ENDBRANCH   5   9
ENDBRANCH   3   5
BRANCH   1  12
HETATM   12  C           1     -21.565  -9.861  -0.409  0.00  0.00     0.311 C 
HETATM   13  C           1     -23.052  -9.557  -0.359  0.00  0.00     0.047 C 
HETATM   14  C           1     -23.186  -8.390   0.613  0.00  0.00     0.033 C 
HETATM   15  C           1     -21.769  -8.092   1.072  0.00  0.00     0.271 C 
HETATM   16  N           1     -21.062  -9.354   0.865  0.00  0.00     0.097 N 
HETATM   17  H           1     -21.285  -9.998   1.623  0.00  0.00     0.317 HD
ENDBRANCH   1  12
TORSDOF 5
ENDMDL
MODEL 6
REMARK VINA RESULT:      -4.5      6.191      7.814
REMARK  5 active torsions:
REMARK  status: ('A' for Active; 'I' for Inactive)
REMARK    1  A    between atoms: C_2  and  C_7 
REMARK    2  A    between atoms: C_7  and  C_8 
REMARK    3  A    between atoms: C_7  and  N_15 
REMARK    4  A    between atoms: C_8  and  Se_12 
REMARK       I    between atoms: C_9  and  N_15 
REMARK    5  A    between atoms: C_9  and  C_10 
ROOT
HETATM    1  C           1     -21.220  -8.141  -1.822  0.00  0.00     0.251 C 
HETATM    2  H           1     -22.654  -8.511  -3.267  0.00  0.00     0.163 HD
HETATM    3  N           1     -21.691  -8.248  -3.103  0.00  0.00    -0.345 N 
HETATM    4  O           1     -20.071  -7.826  -1.624  0.00  0.00    -0.271 OA
ENDROOT
BRANCH   3   5
HETATM    5  C           1     -20.811  -7.983  -4.223  0.00  0.00     0.185 C 
BRANCH   5   6
HETATM    6  C           1     -21.502  -7.063  -5.199  0.00  0.00     0.196 C 
HETATM    7  O           1     -21.187  -7.084  -6.409  0.00  0.00    -0.646 OA
HETATM    8  O           1     -22.391  -6.280  -4.798  0.00  0.00    -0.646 OA
ENDBRANCH   5   6
BRANCH   5   9
HETATM    9  C           1     -20.465  -9.293  -4.919  0.00  0.00     0.039 C 
BRANCH   9  10
HETATM   10 Se           1     -18.538  -9.581  -4.846  0.00  0.00     0.000 Se
HETATM   11  H           1     -18.581 -10.841  -5.606  0.00  0.00     0.000 HD
ENDBRANCH   9  10
ENDBRANCH   5   9
ENDBRANCH   3   5
BRANCH   1  12
HETATM   12  C           1     -22.137  -8.417  -0.655  0.00  0.00     0.311 C 
HETATM   13  C           1     -21.352  -8.486   0.644  0.00  0.00     0.047 C 
HETATM   14  C           1     -21.057  -9.968   0.851  0.00  0.00     0.033 C 
HETATM   15  C           1     -21.695 -10.668  -0.336  0.00  0.00     0.271 C 
HETATM   16  N           1     -22.739  -9.743  -0.769  0.00  0.00     0.097 N 
HETATM   17  H           1     -23.546  -9.828  -0.152  0.00  0.00     0.317 HD
ENDBRANCH   1  12
TORSDOF 5
ENDMDL
MODEL 7
REMARK VINA RESULT:      -4.4      6.780      8.552
REMARK  5 active torsions:
REMARK  status: ('A' for Active; 'I' for Inactive)
REMARK    1  A    between atoms: C_2  and  C_7 
REMARK    2  A    between atoms: C_7  and  C_8 
REMARK    3  A    between atoms: C_7  and  N_15 
REMARK    4  A    between atoms: C_8  and  Se_12 
REMARK       I    between atoms: C_9  and  N_15 
REMARK    5  A    between atoms: C_9  and  C_10 
ROOT
HETATM    1  C           1     -21.833  -9.958  -2.607  0.00  0.00     0.251 C 
HETATM    2  H           1     -20.665  -8.355  -2.020  0.00  0.00     0.163 HD
HETATM    3  N           1     -21.206  -8.753  -2.776  0.00  0.00    -0.345 N 
HETATM    4  O           1     -22.481 -10.434  -3.508  0.00  0.00    -0.271 OA
ENDROOT
BRANCH   3   5
HETATM    5  C           1     -21.318  -8.048  -4.037  0.00  0.00     0.185 C 
BRANCH   5   6
HETATM    6  C           1     -20.024  -8.176  -4.801  0.00  0.00     0.196 C 
HETATM    7  O           1     -19.922  -7.682  -5.946  0.00  0.00    -0.646 OA
HETATM    8  O           1     -19.053  -8.775  -4.289  0.00  0.00    -0.646 OA
ENDBRANCH   5   6
BRANCH   5   9
HETATM    9  C           1     -21.607  -6.576  -3.772  0.00  0.00     0.039 C 
BRANCH   9  10
HETATM   10 Se           1     -22.105  -6.337  -1.902  0.00  0.00     0.000 Se
HETATM   11  H           1     -22.657  -7.694  -1.755  0.00  0.00     0.000 HD
ENDBRANCH   9  10
ENDBRANCH   5   9
ENDBRANCH   3   5
BRANCH   1  12
HETATM   12  C           1     -21.717 -10.693  -1.293  0.00  0.00     0.311 C 
HETATM   13  C           1     -22.893 -11.633  -1.094  0.00  0.00     0.047 C 
HETATM   14  C           1     -23.901 -10.839  -0.271  0.00  0.00     0.033 C 
HETATM   15  C           1     -23.246  -9.489  -0.036  0.00  0.00     0.271 C 
HETATM   16  N           1     -21.817  -9.766  -0.169  0.00  0.00     0.097 N 
HETATM   17  H           1     -21.474 -10.199   0.688  0.00  0.00     0.317 HD
ENDBRANCH   1  12
TORSDOF 5
ENDMDL
MODEL 8
REMARK VINA RESULT:      -4.4      7.256      8.710
REMARK  5 active torsions:
REMARK  status: ('A' for Active; 'I' for Inactive)
REMARK    1  A    between atoms: C_2  and  C_7 
REMARK    2  A    between atoms: C_7  and  C_8 
REMARK    3  A    between atoms: C_7  and  N_15 
REMARK    4  A    between atoms: C_8  and  Se_12 
REMARK       I    between atoms: C_9  and  N_15 
REMARK    5  A    between atoms: C_9  and  C_10 
ROOT
HETATM    1  C           1     -21.143  -8.402  -2.017  0.00  0.00     0.251 C 
HETATM    2  H           1     -20.651 -10.290  -2.705  0.00  0.00     0.163 HD
HETATM    3  N           1     -20.430  -9.304  -2.760  0.00  0.00    -0.345 N 
HETATM    4  O           1     -20.880  -7.224  -2.080  0.00  0.00    -0.271 OA
ENDROOT
BRANCH   3   5
HETATM    5  C           1     -19.361  -8.848  -3.625  0.00  0.00     0.185 C 
BRANCH   5   6
HETATM    6  C           1     -19.774  -9.014  -5.066  0.00  0.00     0.196 C 
HETATM    7  O           1     -19.465 -10.053  -5.689  0.00  0.00    -0.646 OA
HETATM    8  O           1     -20.426  -8.113  -5.637  0.00  0.00    -0.646 OA
ENDBRANCH   5   6
BRANCH   5   9
HETATM    9  C           1     -18.106  -9.670  -3.359  0.00  0.00     0.039 C 
BRANCH   9  10
HETATM   10 Se           1     -18.526 -11.115  -2.119  0.00  0.00     0.000 Se
HETATM   11  H           1     -17.486 -10.738  -1.147  0.00  0.00     0.000 HD
ENDBRANCH   9  10
ENDBRANCH   5   9
ENDBRANCH   3   5
BRANCH   1  12
HETATM   12  C           1     -22.256  -8.877  -1.116  0.00  0.00     0.311 C 
HETATM   13  C           1     -22.602  -7.821  -0.081  0.00  0.00     0.047 C 
HETATM   14  C           1     -21.787  -8.192   1.153  0.00  0.00     0.033 C 
HETATM   15  C           1     -21.024  -9.446   0.761  0.00  0.00     0.271 C 
HETATM   16  N           1     -21.826 -10.021  -0.316  0.00  0.00     0.097 N 
HETATM   17  H           1     -22.630 -10.508   0.080  0.00  0.00     0.317 HD
ENDBRANCH   1  12
TORSDOF 5
ENDMDL
MODEL 9
REMARK VINA RESULT:      -4.2      2.096      2.391
REMARK  5 active torsions:
REMARK  status: ('A' for Active; 'I' for Inactive)
REMARK    1  A    between atoms: C_2  and  C_7 
REMARK    2  A    between atoms: C_7  and  C_8 
REMARK    3  A    between atoms: C_7  and  N_15 
REMARK    4  A    between atoms: C_8  and  Se_12 
REMARK       I    between atoms: C_9  and  N_15 
REMARK    5  A    between atoms: C_9  and  C_10 
ROOT
HETATM    1  C           1     -22.048  -4.407  -8.355  0.00  0.00     0.251 C 
HETATM    2  H           1     -22.381  -6.139  -9.437  0.00  0.00     0.163 HD
HETATM    3  N           1     -22.306  -5.131  -9.487  0.00  0.00    -0.345 N 
HETATM    4  O           1     -21.957  -3.204  -8.414  0.00  0.00    -0.271 OA
ENDROOT
BRANCH   3   5
HETATM    5  C           1     -22.471  -4.455 -10.758  0.00  0.00     0.185 C 
BRANCH   5   6
HETATM    6  C           1     -21.174  -3.789 -11.146  0.00  0.00     0.196 C 
HETATM    7  O           1     -20.102  -4.432 -11.096  0.00  0.00    -0.646 OA
HETATM    8  O           1     -21.171  -2.595 -11.518  0.00  0.00    -0.646 OA
ENDBRANCH   5   6
BRANCH   5   9
HETATM    9  C           1     -23.564  -3.401 -10.635  0.00  0.00     0.039 C 
BRANCH   9  10
HETATM   10 Se           1     -24.420  -3.145 -12.368  0.00  0.00     0.000 Se
HETATM   11  H           1     -23.156  -2.904 -13.085  0.00  0.00     0.000 HD
ENDBRANCH   9  10
ENDBRANCH   5   9
ENDBRANCH   3   5
BRANCH   1  12
HETATM   12  C           1     -21.875  -5.112  -7.031  0.00  0.00     0.311 C 
HETATM   13  C           1     -21.051  -4.269  -6.073  0.00  0.00     0.047 C 
HETATM   14  C           1     -19.620  -4.767  -6.238  0.00  0.00     0.033 C 
HETATM   15  C           1     -19.702  -5.874  -7.275  0.00  0.00     0.271 C 
HETATM   16  N           1     -21.086  -6.331  -7.189  0.00  0.00     0.097 N 
HETATM   17  H           1     -21.195  -6.939  -6.379  0.00  0.00     0.317 HD
ENDBRANCH   1  12
TORSDOF 5
ENDMDL
