MODEL 1
REMARK VINA RESULT:      -8.2      0.000      0.000
REMARK  15 active torsions:
REMARK  status: ('A' for Active; 'I' for Inactive)
REMARK       I    between atoms: C_1  and  N_12 
REMARK    1  A    between atoms: C_1  and  C_6 
REMARK    2  A    between atoms: C_4  and  C_5 
REMARK    3  A    between atoms: C_5  and  C_13 
REMARK    4  A    between atoms: C_6  and  C_17 
REMARK    5  A    between atoms: C_6  and  N_19 
REMARK    6  A    between atoms: C_7  and  C_29 
REMARK    7  A    between atoms: C_7  and  C_8 
REMARK    8  A    between atoms: C_7  and  N_12 
REMARK    9  A    between atoms: C_13  and  C_33 
REMARK   10  A    between atoms: C_13  and  N_31 
REMARK   11  A    between atoms: C_17  and  C_25 
REMARK       I    between atoms: N_20  and  C_22 
REMARK       I    between atoms: N_21  and  C_22 
REMARK   12  A    between atoms: N_23  and  C_24 
REMARK   13  A    between atoms: C_24  and  C_25 
REMARK   14  A    between atoms: C_29  and  C_30 
REMARK   15  A    between atoms: C_30  and  N_31 
ROOT
HETATM    1  C           1     -34.304  -2.908 -16.142  0.00  0.00     0.249 C 
HETATM    2  N           1     -34.831  -1.684 -16.458  0.00  0.00    -0.345 N 
HETATM    3  O           1     -34.501  -3.388 -15.052  0.00  0.00    -0.271 OA
HETATM    4  H           1     -34.665  -1.283 -17.372  0.00  0.00     0.163 HD
ENDROOT
BRANCH   2   5
HETATM    5  C           1     -35.624  -0.964 -15.483  0.00  0.00     0.187 C 
BRANCH   5   6
HETATM    6  C           1     -34.796   0.170 -14.893  0.00  0.00     0.066 C 
BRANCH   6   7
HETATM    7  C           1     -34.934   0.165 -13.376  0.00  0.00     0.273 C 
BRANCH   7   8
HETATM    8  N           1     -36.205  -0.402 -13.012  0.00  0.00     0.098 N 
HETATM    9  H           1     -36.505  -1.057 -13.734  0.00  0.00     0.317 HD
BRANCH   8  10
HETATM   10  C           1     -36.030  -1.105 -11.770  0.00  0.00     0.324 C 
BRANCH  10  11
HETATM   11  C           1     -34.545  -1.349 -11.530  0.00  0.00     0.085 C 
BRANCH  11  12
HETATM   12  C           1     -34.297  -2.819 -11.390  0.00  0.00    -0.056 A 
HETATM   13  C           1     -35.317  -3.659 -10.944  0.00  0.00     0.007 A 
HETATM   14  C           1     -35.084  -5.029 -10.813  0.00  0.00     0.001 A 
HETATM   15  C           1     -33.833  -5.557 -11.131  0.00  0.00     0.000 A 
HETATM   16  C           1     -32.814  -4.717 -11.577  0.00  0.00     0.001 A 
HETATM   17  C           1     -33.046  -3.348 -11.707  0.00  0.00     0.007 A 
ENDBRANCH  11  12
ENDBRANCH  10  11
BRANCH  10  18
HETATM   18  C           1     -36.592  -0.277 -10.641  0.00  0.00     0.207 C 
HETATM   19  O           1     -36.072  -0.331  -9.506  0.00  0.00    -0.646 OA
HETATM   20  O           1     -37.579   0.463 -10.841  0.00  0.00    -0.646 OA
ENDBRANCH  10  18
ENDBRANCH   8  10
ENDBRANCH   7   8
ENDBRANCH   6   7
ENDBRANCH   5   6
BRANCH   5  21
HETATM   21  C           1     -36.850  -0.395 -16.155  0.00  0.00     0.196 C 
HETATM   22  O           1     -37.598  -1.139 -16.824  0.00  0.00    -0.646 OA
HETATM   23  O           1     -37.117   0.822 -16.043  0.00  0.00    -0.646 OA
ENDBRANCH   5  21
ENDBRANCH   2   5
BRANCH   1  24
HETATM   24  C           1     -33.477  -3.659 -17.158  0.00  0.00     0.274 C 
BRANCH  24  25
HETATM   25  C           1     -33.002  -4.974 -16.555  0.00  0.00     0.044 C 
BRANCH  25  26
HETATM   26  C           1     -31.480  -5.030 -16.593  0.00  0.00     0.023 C 
BRANCH  26  27
HETATM   27  C           1     -31.037  -6.319 -17.272  0.00  0.00     0.138 C 
BRANCH  27  28
HETATM   28  N           1     -29.719  -6.118 -17.895  0.00  0.00    -0.227 N 
HETATM   29  C           1     -29.106  -7.099 -18.407  0.00  0.00     0.665 C 
HETATM   30  N           1     -29.639  -8.284 -18.384  0.00  0.00    -0.235 N 
HETATM   31  N           1     -27.972  -6.926 -18.943  0.00  0.00    -0.235 N 
HETATM   32  H           1     -29.132  -9.094 -18.807  0.00  0.00     0.174 HD
HETATM   33  H           1     -30.575  -8.428 -17.941  0.00  0.00     0.174 HD
HETATM   34  H           1     -27.463  -7.739 -19.369  0.00  0.00     0.174 HD
HETATM   35  H           1     -27.540  -5.969 -18.963  0.00  0.00     0.174 HD
HETATM   36  H           1     -29.289  -5.160 -17.914  0.00  0.00     0.177 HD
ENDBRANCH  27  28
ENDBRANCH  26  27
ENDBRANCH  25  26
ENDBRANCH  24  25
BRANCH  24  37
HETATM   37  N           1     -32.290  -2.830 -17.546  0.00  0.00    -0.067 N 
HETATM   38  H           1     -31.828  -3.252 -18.383  0.00  0.00     0.275 HD
HETATM   39  H           1     -31.610  -2.800 -16.753  0.00  0.00     0.275 HD
HETATM   40  H           1     -32.603  -1.859 -17.774  0.00  0.00     0.275 HD
ENDBRANCH  24  37
ENDBRANCH   1  24
TORSDOF 15
ENDMDL
MODEL 2
REMARK VINA RESULT:      -8.0     15.258     17.721
REMARK  15 active torsions:
REMARK  status: ('A' for Active; 'I' for Inactive)
REMARK       I    between atoms: C_1  and  N_12 
REMARK    1  A    between atoms: C_1  and  C_6 
REMARK    2  A    between atoms: C_4  and  C_5 
REMARK    3  A    between atoms: C_5  and  C_13 
REMARK    4  A    between atoms: C_6  and  C_17 
REMARK    5  A    between atoms: C_6  and  N_19 
REMARK    6  A    between atoms: C_7  and  C_29 
REMARK    7  A    between atoms: C_7  and  C_8 
REMARK    8  A    between atoms: C_7  and  N_12 
REMARK    9  A    between atoms: C_13  and  C_33 
REMARK   10  A    between atoms: C_13  and  N_31 
REMARK   11  A    between atoms: C_17  and  C_25 
REMARK       I    between atoms: N_20  and  C_22 
REMARK       I    between atoms: N_21  and  C_22 
REMARK   12  A    between atoms: N_23  and  C_24 
REMARK   13  A    between atoms: C_24  and  C_25 
REMARK   14  A    between atoms: C_29  and  C_30 
REMARK   15  A    between atoms: C_30  and  N_31 
ROOT
HETATM    1  C           1     -20.534  -7.256  -6.049  0.00  0.00     0.249 C 
HETATM    2  N           1     -21.039  -8.307  -5.332  0.00  0.00    -0.345 N 
HETATM    3  O           1     -19.366  -7.238  -6.355  0.00  0.00    -0.271 OA
HETATM    4  H           1     -22.018  -8.321  -5.076  0.00  0.00     0.163 HD
ENDROOT
BRANCH   2   5
HETATM    5  C           1     -20.172  -9.400  -4.940  0.00  0.00     0.187 C 
BRANCH   5   6
HETATM    6  C           1     -20.663  -9.990  -3.624  0.00  0.00     0.066 C 
BRANCH   6   7
HETATM    7  C           1     -19.647  -9.698  -2.526  0.00  0.00     0.273 C 
BRANCH   7   8
HETATM    8  N           1     -19.881  -8.382  -1.994  0.00  0.00     0.098 N 
HETATM    9  H           1     -19.713  -7.686  -2.721  0.00  0.00     0.317 HD
BRANCH   8  10
HETATM   10  C           1     -21.256  -8.317  -1.577  0.00  0.00     0.324 C 
BRANCH  10  11
HETATM   11  C           1     -21.352  -8.648  -0.093  0.00  0.00     0.085 C 
BRANCH  11  12
HETATM   12  C           1     -22.065  -9.952   0.082  0.00  0.00    -0.056 A 
HETATM   13  C           1     -23.415 -10.060  -0.254  0.00  0.00     0.007 A 
HETATM   14  C           1     -24.079 -11.276  -0.090  0.00  0.00     0.001 A 
HETATM   15  C           1     -23.393 -12.383   0.409  0.00  0.00     0.000 A 
HETATM   16  C           1     -22.045 -12.275   0.745  0.00  0.00     0.001 A 
HETATM   17  C           1     -21.380 -11.060   0.580  0.00  0.00     0.007 A 
ENDBRANCH  11  12
ENDBRANCH  10  11
BRANCH  10  18
HETATM   18  C           1     -21.787  -6.926  -1.818  0.00  0.00     0.207 C 
HETATM   19  O           1     -22.638  -6.438  -1.043  0.00  0.00    -0.646 OA
HETATM   20  O           1     -21.378  -6.261  -2.794  0.00  0.00    -0.646 OA
ENDBRANCH  10  18
ENDBRANCH   8  10
ENDBRANCH   7   8
ENDBRANCH   6   7
ENDBRANCH   5   6
BRANCH   5  21
HETATM   21  C           1     -20.193 -10.466  -6.008  0.00  0.00     0.196 C 
HETATM   22  O           1     -21.283 -10.935  -6.402  0.00  0.00    -0.646 OA
HETATM   23  O           1     -19.121 -10.882  -6.499  0.00  0.00    -0.646 OA
ENDBRANCH   5  21
ENDBRANCH   2   5
BRANCH   1  24
HETATM   24  C           1     -21.437  -6.117  -6.457  0.00  0.00     0.274 C 
BRANCH  24  25
HETATM   25  C           1     -20.605  -4.861  -6.676  0.00  0.00     0.044 C 
BRANCH  25  26
HETATM   26  C           1     -21.503  -3.738  -7.179  0.00  0.00     0.023 C 
BRANCH  26  27
HETATM   27  C           1     -22.078  -4.118  -8.537  0.00  0.00     0.138 C 
BRANCH  27  28
HETATM   28  N           1     -23.466  -3.641  -8.634  0.00  0.00    -0.227 N 
HETATM   29  C           1     -24.212  -4.049  -9.572  0.00  0.00     0.665 C 
HETATM   30  N           1     -23.752  -4.889 -10.450  0.00  0.00    -0.235 N 
HETATM   31  N           1     -25.406  -3.638  -9.654  0.00  0.00    -0.235 N 
HETATM   32  H           1     -24.367  -5.225 -11.225  0.00  0.00     0.174 HD
HETATM   33  H           1     -22.765  -5.228 -10.382  0.00  0.00     0.174 HD
HETATM   34  H           1     -26.025  -3.976 -10.432  0.00  0.00     0.174 HD
HETATM   35  H           1     -25.779  -2.959  -8.944  0.00  0.00     0.174 HD
HETATM   36  H           1     -23.838  -2.962  -7.923  0.00  0.00     0.177 HD
ENDBRANCH  27  28
ENDBRANCH  26  27
ENDBRANCH  25  26
ENDBRANCH  24  25
BRANCH  24  37
HETATM   37  N           1     -22.445  -5.866  -5.375  0.00  0.00    -0.067 N 
HETATM   38  H           1     -22.181  -6.408  -4.521  0.00  0.00     0.275 HD
HETATM   39  H           1     -23.390  -6.169  -5.701  0.00  0.00     0.275 HD
HETATM   40  H           1     -22.465  -4.846  -5.148  0.00  0.00     0.275 HD
ENDBRANCH  24  37
ENDBRANCH   1  24
TORSDOF 15
ENDMDL
MODEL 3
REMARK VINA RESULT:      -7.6     15.205     17.596
REMARK  15 active torsions:
REMARK  status: ('A' for Active; 'I' for Inactive)
REMARK       I    between atoms: C_1  and  N_12 
REMARK    1  A    between atoms: C_1  and  C_6 
REMARK    2  A    between atoms: C_4  and  C_5 
REMARK    3  A    between atoms: C_5  and  C_13 
REMARK    4  A    between atoms: C_6  and  C_17 
REMARK    5  A    between atoms: C_6  and  N_19 
REMARK    6  A    between atoms: C_7  and  C_29 
REMARK    7  A    between atoms: C_7  and  C_8 
REMARK    8  A    between atoms: C_7  and  N_12 
REMARK    9  A    between atoms: C_13  and  C_33 
REMARK   10  A    between atoms: C_13  and  N_31 
REMARK   11  A    between atoms: C_17  and  C_25 
REMARK       I    between atoms: N_20  and  C_22 
REMARK       I    between atoms: N_21  and  C_22 
REMARK   12  A    between atoms: N_23  and  C_24 
REMARK   13  A    between atoms: C_24  and  C_25 
REMARK   14  A    between atoms: C_29  and  C_30 
REMARK   15  A    between atoms: C_30  and  N_31 
ROOT
HETATM    1  C           1     -20.429  -5.669  -5.848  0.00  0.00     0.249 C 
HETATM    2  N           1     -20.031  -6.952  -6.112  0.00  0.00    -0.345 N 
HETATM    3  O           1     -20.779  -5.362  -4.734  0.00  0.00    -0.271 OA
HETATM    4  H           1     -19.738  -7.209  -7.047  0.00  0.00     0.163 HD
ENDROOT
BRANCH   2   5
HETATM    5  C           1     -20.031  -7.943  -5.055  0.00  0.00     0.187 C 
BRANCH   5   6
HETATM    6  C           1     -21.294  -8.788  -5.151  0.00  0.00     0.066 C 
BRANCH   6   7
HETATM    7  C           1     -21.658  -9.317  -3.769  0.00  0.00     0.273 C 
BRANCH   7   8
HETATM    8  N           1     -21.091  -8.461  -2.763  0.00  0.00     0.098 N 
HETATM    9  H           1     -21.103  -7.495  -3.091  0.00  0.00     0.317 HD
BRANCH   8  10
HETATM   10  C           1     -21.905  -8.576  -1.583  0.00  0.00     0.324 C 
BRANCH  10  11
HETATM   11  C           1     -21.105  -9.255  -0.478  0.00  0.00     0.085 C 
BRANCH  11  12
HETATM   12  C           1     -21.822 -10.491  -0.032  0.00  0.00    -0.056 A 
HETATM   13  C           1     -21.133 -11.484   0.666  0.00  0.00     0.007 A 
HETATM   14  C           1     -21.802 -12.636   1.081  0.00  0.00     0.001 A 
HETATM   15  C           1     -23.159 -12.794   0.800  0.00  0.00     0.000 A 
HETATM   16  C           1     -23.846 -11.802   0.102  0.00  0.00     0.001 A 
HETATM   17  C           1     -23.178 -10.651  -0.313  0.00  0.00     0.007 A 
ENDBRANCH  11  12
ENDBRANCH  10  11
BRANCH  10  18
HETATM   18  C           1     -22.324  -7.200  -1.127  0.00  0.00     0.207 C 
HETATM   19  O           1     -23.003  -7.065  -0.087  0.00  0.00    -0.646 OA
HETATM   20  O           1     -21.991  -6.194  -1.790  0.00  0.00    -0.646 OA
ENDBRANCH  10  18
ENDBRANCH   8  10
ENDBRANCH   7   8
ENDBRANCH   6   7
ENDBRANCH   5   6
BRANCH   5  21
HETATM   21  C           1     -18.819  -8.830  -5.199  0.00  0.00     0.196 C 
HETATM   22  O           1     -18.387  -9.119  -6.335  0.00  0.00    -0.646 OA
HETATM   23  O           1     -18.248  -9.279  -4.181  0.00  0.00    -0.646 OA
ENDBRANCH   5  21
ENDBRANCH   2   5
BRANCH   1  24
HETATM   24  C           1     -20.430  -4.637  -6.950  0.00  0.00     0.274 C 
BRANCH  24  25
HETATM   25  C           1     -21.412  -5.052  -8.036  0.00  0.00     0.044 C 
BRANCH  25  26
HETATM   26  C           1     -20.973  -4.464  -9.371  0.00  0.00     0.023 C 
BRANCH  26  27
HETATM   27  C           1     -22.201  -4.050 -10.171  0.00  0.00     0.138 C 
BRANCH  27  28
HETATM   28  N           1     -21.872  -4.039 -11.605  0.00  0.00    -0.227 N 
HETATM   29  C           1     -22.519  -3.293 -12.397  0.00  0.00     0.665 C 
HETATM   30  N           1     -23.473  -2.537 -11.944  0.00  0.00    -0.235 N 
HETATM   31  N           1     -22.235  -3.284 -13.630  0.00  0.00    -0.235 N 
HETATM   32  H           1     -24.008  -1.921 -12.598  0.00  0.00     0.174 HD
HETATM   33  H           1     -23.708  -2.544 -10.925  0.00  0.00     0.174 HD
HETATM   34  H           1     -22.771  -2.666 -14.288  0.00  0.00     0.174 HD
HETATM   35  H           1     -21.463  -3.895 -13.997  0.00  0.00     0.174 HD
HETATM   36  H           1     -21.100  -4.650 -11.970  0.00  0.00     0.177 HD
ENDBRANCH  27  28
ENDBRANCH  26  27
ENDBRANCH  25  26
ENDBRANCH  24  25
BRANCH  24  37
HETATM   37  N           1     -19.053  -4.531  -7.536  0.00  0.00    -0.067 N 
HETATM   38  H           1     -18.973  -3.641  -8.078  0.00  0.00     0.275 HD
HETATM   39  H           1     -18.881  -5.342  -8.172  0.00  0.00     0.275 HD
HETATM   40  H           1     -18.346  -4.535  -6.767  0.00  0.00     0.275 HD
ENDBRANCH  24  37
ENDBRANCH   1  24
TORSDOF 15
ENDMDL
MODEL 4
REMARK VINA RESULT:      -7.5     15.298     17.854
REMARK  15 active torsions:
REMARK  status: ('A' for Active; 'I' for Inactive)
REMARK       I    between atoms: C_1  and  N_12 
REMARK    1  A    between atoms: C_1  and  C_6 
REMARK    2  A    between atoms: C_4  and  C_5 
REMARK    3  A    between atoms: C_5  and  C_13 
REMARK    4  A    between atoms: C_6  and  C_17 
REMARK    5  A    between atoms: C_6  and  N_19 
REMARK    6  A    between atoms: C_7  and  C_29 
REMARK    7  A    between atoms: C_7  and  C_8 
REMARK    8  A    between atoms: C_7  and  N_12 
REMARK    9  A    between atoms: C_13  and  C_33 
REMARK   10  A    between atoms: C_13  and  N_31 
REMARK   11  A    between atoms: C_17  and  C_25 
REMARK       I    between atoms: N_20  and  C_22 
REMARK       I    between atoms: N_21  and  C_22 
REMARK   12  A    between atoms: N_23  and  C_24 
REMARK   13  A    between atoms: C_24  and  C_25 
REMARK   14  A    between atoms: C_29  and  C_30 
REMARK   15  A    between atoms: C_30  and  N_31 
ROOT
HETATM    1  C           1     -21.435  -5.453  -5.757  0.00  0.00     0.249 C 
HETATM    2  N           1     -20.748  -6.307  -4.937  0.00  0.00    -0.345 N 
HETATM    3  O           1     -22.641  -5.498  -5.802  0.00  0.00    -0.271 OA
HETATM    4  H           1     -19.737  -6.269  -4.900  0.00  0.00     0.163 HD
ENDROOT
BRANCH   2   5
HETATM    5  C           1     -21.467  -7.265  -4.123  0.00  0.00     0.187 C 
BRANCH   5   6
HETATM    6  C           1     -20.758  -8.612  -4.179  0.00  0.00     0.066 C 
BRANCH   6   7
HETATM    7  C           1     -21.788  -9.732  -4.101  0.00  0.00     0.273 C 
BRANCH   7   8
HETATM    8  N           1     -21.137 -10.956  -3.717  0.00  0.00     0.098 N 
HETATM    9  H           1     -20.432 -11.200  -4.413  0.00  0.00     0.317 HD
BRANCH   8  10
HETATM   10  C           1     -20.500 -10.732  -2.448  0.00  0.00     0.324 C 
BRANCH  10  11
HETATM   11  C           1     -21.410 -11.224  -1.329  0.00  0.00     0.085 C 
BRANCH  11  12
HETATM   12  C           1     -21.720 -10.089  -0.404  0.00  0.00    -0.056 A 
HETATM   13  C           1     -22.944  -9.426  -0.497  0.00  0.00     0.007 A 
HETATM   14  C           1     -23.232  -8.368   0.366  0.00  0.00     0.001 A 
HETATM   15  C           1     -22.296  -7.974   1.322  0.00  0.00     0.000 A 
HETATM   16  C           1     -21.073  -8.637   1.415  0.00  0.00     0.001 A 
HETATM   17  C           1     -20.785  -9.694   0.553  0.00  0.00     0.007 A 
ENDBRANCH  11  12
ENDBRANCH  10  11
BRANCH  10  18
HETATM   18  C           1     -19.194 -11.487  -2.402  0.00  0.00     0.207 C 
HETATM   19  O           1     -18.167 -10.934  -1.954  0.00  0.00    -0.646 OA
HETATM   20  O           1     -19.140 -12.666  -2.813  0.00  0.00    -0.646 OA
ENDBRANCH  10  18
ENDBRANCH   8  10
ENDBRANCH   7   8
ENDBRANCH   6   7
ENDBRANCH   5   6
BRANCH   5  21
HETATM   21  C           1     -21.511  -6.779  -2.695  0.00  0.00     0.196 C 
HETATM   22  O           1     -22.415  -5.998  -2.328  0.00  0.00    -0.646 OA
HETATM   23  O           1     -20.642  -7.156  -1.878  0.00  0.00    -0.646 OA
ENDBRANCH   5  21
ENDBRANCH   2   5
BRANCH   1  24
HETATM   24  C           1     -20.686  -4.454  -6.606  0.00  0.00     0.274 C 
BRANCH  24  25
HETATM   25  C           1     -21.636  -3.836  -7.622  0.00  0.00     0.044 C 
BRANCH  25  26
HETATM   26  C           1     -21.124  -4.113  -9.030  0.00  0.00     0.023 C 
BRANCH  26  27
HETATM   27  C           1     -22.173  -3.678 -10.046  0.00  0.00     0.138 C 
BRANCH  27  28
HETATM   28  N           1     -23.491  -3.618  -9.395  0.00  0.00    -0.227 N 
HETATM   29  C           1     -24.541  -3.546 -10.099  0.00  0.00     0.665 C 
HETATM   30  N           1     -24.455  -3.524 -11.395  0.00  0.00    -0.235 N 
HETATM   31  N           1     -25.675  -3.495  -9.539  0.00  0.00    -0.235 N 
HETATM   32  H           1     -25.321  -3.463 -11.976  0.00  0.00     0.174 HD
HETATM   33  H           1     -23.518  -3.566 -11.858  0.00  0.00     0.174 HD
HETATM   34  H           1     -26.546  -3.434 -10.122  0.00  0.00     0.174 HD
HETATM   35  H           1     -25.745  -3.512  -8.491  0.00  0.00     0.174 HD
HETATM   36  H           1     -23.560  -3.637  -8.348  0.00  0.00     0.177 HD
ENDBRANCH  27  28
ENDBRANCH  26  27
ENDBRANCH  25  26
ENDBRANCH  24  25
BRANCH  24  37
HETATM   37  N           1     -19.568  -5.150  -7.325  0.00  0.00    -0.067 N 
HETATM   38  H           1     -19.916  -5.510  -8.243  0.00  0.00     0.275 HD
HETATM   39  H           1     -19.223  -5.948  -6.746  0.00  0.00     0.275 HD
HETATM   40  H           1     -18.787  -4.475  -7.490  0.00  0.00     0.275 HD
ENDBRANCH  24  37
ENDBRANCH   1  24
TORSDOF 15
ENDMDL
MODEL 5
REMARK VINA RESULT:      -7.3     16.298     18.827
REMARK  15 active torsions:
REMARK  status: ('A' for Active; 'I' for Inactive)
REMARK       I    between atoms: C_1  and  N_12 
REMARK    1  A    between atoms: C_1  and  C_6 
REMARK    2  A    between atoms: C_4  and  C_5 
REMARK    3  A    between atoms: C_5  and  C_13 
REMARK    4  A    between atoms: C_6  and  C_17 
REMARK    5  A    between atoms: C_6  and  N_19 
REMARK    6  A    between atoms: C_7  and  C_29 
REMARK    7  A    between atoms: C_7  and  C_8 
REMARK    8  A    between atoms: C_7  and  N_12 
REMARK    9  A    between atoms: C_13  and  C_33 
REMARK   10  A    between atoms: C_13  and  N_31 
REMARK   11  A    between atoms: C_17  and  C_25 
REMARK       I    between atoms: N_20  and  C_22 
REMARK       I    between atoms: N_21  and  C_22 
REMARK   12  A    between atoms: N_23  and  C_24 
REMARK   13  A    between atoms: C_24  and  C_25 
REMARK   14  A    between atoms: C_29  and  C_30 
REMARK   15  A    between atoms: C_30  and  N_31 
ROOT
HETATM    1  C           1     -20.474  -6.913  -5.381  0.00  0.00     0.249 C 
HETATM    2  N           1     -20.747  -7.732  -4.318  0.00  0.00    -0.345 N 
HETATM    3  O           1     -19.750  -7.297  -6.269  0.00  0.00    -0.271 OA
HETATM    4  H           1     -21.353  -7.409  -3.574  0.00  0.00     0.163 HD
ENDROOT
BRANCH   2   5
HETATM    5  C           1     -20.168  -9.059  -4.257  0.00  0.00     0.187 C 
BRANCH   5   6
HETATM    6  C           1     -19.823  -9.396  -2.813  0.00  0.00     0.066 C 
BRANCH   6   7
HETATM    7  C           1     -19.012 -10.685  -2.772  0.00  0.00     0.273 C 
BRANCH   7   8
HETATM    8  N           1     -19.682 -11.647  -1.939  0.00  0.00     0.098 N 
HETATM    9  H           1     -19.367 -12.587  -2.182  0.00  0.00     0.317 HD
BRANCH   8  10
HETATM   10  C           1     -19.332 -11.362  -0.573  0.00  0.00     0.324 C 
BRANCH  10  11
HETATM   11  C           1     -20.521 -11.667   0.329  0.00  0.00     0.085 C 
BRANCH  11  12
HETATM   12  C           1     -21.401 -10.459   0.420  0.00  0.00    -0.056 A 
HETATM   13  C           1     -22.693 -10.495  -0.106  0.00  0.00     0.007 A 
HETATM   14  C           1     -23.511  -9.368  -0.022  0.00  0.00     0.001 A 
HETATM   15  C           1     -23.038  -8.207   0.589  0.00  0.00     0.000 A 
HETATM   16  C           1     -21.747  -8.171   1.114  0.00  0.00     0.001 A 
HETATM   17  C           1     -20.929  -9.297   1.030  0.00  0.00     0.007 A 
ENDBRANCH  11  12
ENDBRANCH  10  11
BRANCH  10  18
HETATM   18  C           1     -18.160 -12.221  -0.167  0.00  0.00     0.207 C 
HETATM   19  O           1     -16.994 -11.786  -0.290  0.00  0.00    -0.646 OA
HETATM   20  O           1     -18.354 -13.367   0.291  0.00  0.00    -0.646 OA
ENDBRANCH  10  18
ENDBRANCH   8  10
ENDBRANCH   7   8
ENDBRANCH   6   7
ENDBRANCH   5   6
BRANCH   5  21
HETATM   21  C           1     -21.162 -10.065  -4.785  0.00  0.00     0.196 C 
HETATM   22  O           1     -22.059 -10.508  -4.037  0.00  0.00    -0.646 OA
HETATM   23  O           1     -21.086 -10.456  -5.970  0.00  0.00    -0.646 OA
ENDBRANCH   5  21
ENDBRANCH   2   5
BRANCH   1  24
HETATM   24  C           1     -21.076  -5.531  -5.444  0.00  0.00     0.274 C 
BRANCH  24  25
HETATM   25  C           1     -21.873  -5.381  -6.733  0.00  0.00     0.044 C 
BRANCH  25  26
HETATM   26  C           1     -21.630  -3.997  -7.322  0.00  0.00     0.023 C 
BRANCH  26  27
HETATM   27  C           1     -22.122  -3.966  -8.763  0.00  0.00     0.138 C 
BRANCH  27  28
HETATM   28  N           1     -23.516  -3.496  -8.796  0.00  0.00    -0.227 N 
HETATM   29  C           1     -24.323  -3.970  -9.648  0.00  0.00     0.665 C 
HETATM   30  N           1     -23.921  -4.871 -10.494  0.00  0.00    -0.235 N 
HETATM   31  N           1     -25.522  -3.566  -9.676  0.00  0.00    -0.235 N 
HETATM   32  H           1     -24.587  -5.262 -11.197  0.00  0.00     0.174 HD
HETATM   33  H           1     -22.930  -5.205 -10.471  0.00  0.00     0.174 HD
HETATM   34  H           1     -26.192  -3.958 -10.383  0.00  0.00     0.174 HD
HETATM   35  H           1     -25.848  -2.837  -8.993  0.00  0.00     0.174 HD
HETATM   36  H           1     -23.840  -2.768  -8.112  0.00  0.00     0.177 HD
ENDBRANCH  27  28
ENDBRANCH  26  27
ENDBRANCH  25  26
ENDBRANCH  24  25
BRANCH  24  37
HETATM   37  N           1     -19.981  -4.507  -5.412  0.00  0.00    -0.067 N 
HETATM   38  H           1     -20.182  -3.760  -6.114  0.00  0.00     0.275 HD
HETATM   39  H           1     -19.069  -4.963  -5.640  0.00  0.00     0.275 HD
HETATM   40  H           1     -19.929  -4.083  -4.458  0.00  0.00     0.275 HD
ENDBRANCH  24  37
ENDBRANCH   1  24
TORSDOF 15
ENDMDL
MODEL 6
REMARK VINA RESULT:      -7.1     15.293     17.729
REMARK  15 active torsions:
REMARK  status: ('A' for Active; 'I' for Inactive)
REMARK       I    between atoms: C_1  and  N_12 
REMARK    1  A    between atoms: C_1  and  C_6 
REMARK    2  A    between atoms: C_4  and  C_5 
REMARK    3  A    between atoms: C_5  and  C_13 
REMARK    4  A    between atoms: C_6  and  C_17 
REMARK    5  A    between atoms: C_6  and  N_19 
REMARK    6  A    between atoms: C_7  and  C_29 
REMARK    7  A    between atoms: C_7  and  C_8 
REMARK    8  A    between atoms: C_7  and  N_12 
REMARK    9  A    between atoms: C_13  and  C_33 
REMARK   10  A    between atoms: C_13  and  N_31 
REMARK   11  A    between atoms: C_17  and  C_25 
REMARK       I    between atoms: N_20  and  C_22 
REMARK       I    between atoms: N_21  and  C_22 
REMARK   12  A    between atoms: N_23  and  C_24 
REMARK   13  A    between atoms: C_24  and  C_25 
REMARK   14  A    between atoms: C_29  and  C_30 
REMARK   15  A    between atoms: C_30  and  N_31 
ROOT
HETATM    1  C           1     -21.281  -6.187  -6.161  0.00  0.00     0.249 C 
HETATM    2  N           1     -20.643  -7.394  -6.254  0.00  0.00    -0.345 N 
HETATM    3  O           1     -21.665  -5.787  -5.088  0.00  0.00    -0.271 OA
HETATM    4  H           1     -20.321  -7.729  -7.153  0.00  0.00     0.163 HD
ENDROOT
BRANCH   2   5
HETATM    5  C           1     -20.427  -8.194  -5.064  0.00  0.00     0.187 C 
BRANCH   5   6
HETATM    6  C           1     -21.461  -9.311  -5.010  0.00  0.00     0.066 C 
BRANCH   6   7
HETATM    7  C           1     -21.784  -9.634  -3.556  0.00  0.00     0.273 C 
BRANCH   7   8
HETATM    8  N           1     -22.737 -10.710  -3.504  0.00  0.00     0.098 N 
HETATM    9  H           1     -22.621 -11.307  -4.323  0.00  0.00     0.317 HD
BRANCH   8  10
HETATM   10  C           1     -22.471 -11.472  -2.314  0.00  0.00     0.324 C 
BRANCH  10  11
HETATM   11  C           1     -23.354 -10.967  -1.180  0.00  0.00     0.085 C 
BRANCH  11  12
HETATM   12  C           1     -22.531 -10.151  -0.233  0.00  0.00    -0.056 A 
HETATM   13  C           1     -22.865  -8.818   0.012  0.00  0.00     0.007 A 
HETATM   14  C           1     -22.097  -8.058   0.894  0.00  0.00     0.001 A 
HETATM   15  C           1     -20.997  -8.630   1.533  0.00  0.00     0.000 A 
HETATM   16  C           1     -20.664  -9.961   1.288  0.00  0.00     0.001 A 
HETATM   17  C           1     -21.431 -10.722   0.406  0.00  0.00     0.007 A 
ENDBRANCH  11  12
ENDBRANCH  10  11
BRANCH  10  18
HETATM   18  C           1     -22.769 -12.928  -2.574  0.00  0.00     0.207 C 
HETATM   19  O           1     -22.686 -13.386  -3.734  0.00  0.00    -0.646 OA
HETATM   20  O           1     -23.100 -13.676  -1.629  0.00  0.00    -0.646 OA
ENDBRANCH  10  18
ENDBRANCH   8  10
ENDBRANCH   7   8
ENDBRANCH   6   7
ENDBRANCH   5   6
BRANCH   5  21
HETATM   21  C           1     -19.042  -8.791  -5.105  0.00  0.00     0.196 C 
HETATM   22  O           1     -18.425  -9.012  -4.041  0.00  0.00    -0.646 OA
HETATM   23  O           1     -18.511  -9.066  -6.203  0.00  0.00    -0.646 OA
ENDBRANCH   5  21
ENDBRANCH   2   5
BRANCH   1  24
HETATM   24  C           1     -21.506  -5.354  -7.400  0.00  0.00     0.274 C 
BRANCH  24  25
HETATM   25  C           1     -20.167  -5.043  -8.054  0.00  0.00     0.044 C 
BRANCH  25  26
HETATM   26  C           1     -20.346  -3.925  -9.073  0.00  0.00     0.023 C 
BRANCH  26  27
HETATM   27  C           1     -21.164  -4.439 -10.250  0.00  0.00     0.138 C 
BRANCH  27  28
HETATM   28  N           1     -22.149  -3.421 -10.646  0.00  0.00    -0.227 N 
HETATM   29  C           1     -22.308  -3.135 -11.869  0.00  0.00     0.665 C 
HETATM   30  N           1     -21.602  -3.742 -12.775  0.00  0.00    -0.235 N 
HETATM   31  N           1     -23.157  -2.260 -12.208  0.00  0.00    -0.235 N 
HETATM   32  H           1     -21.733  -3.506 -13.785  0.00  0.00     0.174 HD
HETATM   33  H           1     -20.901  -4.465 -12.495  0.00  0.00     0.174 HD
HETATM   34  H           1     -23.289  -2.022 -13.222  0.00  0.00     0.174 HD
HETATM   35  H           1     -23.728  -1.769 -11.476  0.00  0.00     0.174 HD
HETATM   36  H           1     -22.721  -2.932  -9.913  0.00  0.00     0.177 HD
ENDBRANCH  27  28
ENDBRANCH  26  27
ENDBRANCH  25  26
ENDBRANCH  24  25
BRANCH  24  37
HETATM   37  N           1     -22.187  -4.073  -7.023  0.00  0.00    -0.067 N 
HETATM   38  H           1     -23.171  -4.273  -6.734  0.00  0.00     0.275 HD
HETATM   39  H           1     -22.191  -3.425  -7.844  0.00  0.00     0.275 HD
HETATM   40  H           1     -21.675  -3.626  -6.229  0.00  0.00     0.275 HD
ENDBRANCH  24  37
ENDBRANCH   1  24
TORSDOF 15
ENDMDL
MODEL 7
REMARK VINA RESULT:      -7.1     14.404     16.801
REMARK  15 active torsions:
REMARK  status: ('A' for Active; 'I' for Inactive)
REMARK       I    between atoms: C_1  and  N_12 
REMARK    1  A    between atoms: C_1  and  C_6 
REMARK    2  A    between atoms: C_4  and  C_5 
REMARK    3  A    between atoms: C_5  and  C_13 
REMARK    4  A    between atoms: C_6  and  C_17 
REMARK    5  A    between atoms: C_6  and  N_19 
REMARK    6  A    between atoms: C_7  and  C_29 
REMARK    7  A    between atoms: C_7  and  C_8 
REMARK    8  A    between atoms: C_7  and  N_12 
REMARK    9  A    between atoms: C_13  and  C_33 
REMARK   10  A    between atoms: C_13  and  N_31 
REMARK   11  A    between atoms: C_17  and  C_25 
REMARK       I    between atoms: N_20  and  C_22 
REMARK       I    between atoms: N_21  and  C_22 
REMARK   12  A    between atoms: N_23  and  C_24 
REMARK   13  A    between atoms: C_24  and  C_25 
REMARK   14  A    between atoms: C_29  and  C_30 
REMARK   15  A    between atoms: C_30  and  N_31 
ROOT
HETATM    1  C           1     -22.714  -4.603  -7.421  0.00  0.00     0.249 C 
HETATM    2  N           1     -21.610  -5.346  -7.096  0.00  0.00    -0.345 N 
HETATM    3  O           1     -23.693  -4.635  -6.715  0.00  0.00    -0.271 OA
HETATM    4  H           1     -20.790  -5.319  -7.688  0.00  0.00     0.163 HD
ENDROOT
BRANCH   2   5
HETATM    5  C           1     -21.617  -6.170  -5.904  0.00  0.00     0.187 C 
BRANCH   5   6
HETATM    6  C           1     -20.941  -7.501  -6.204  0.00  0.00     0.066 C 
BRANCH   6   7
HETATM    7  C           1     -20.834  -8.318  -4.922  0.00  0.00     0.273 C 
BRANCH   7   8
HETATM    8  N           1     -19.459  -8.379  -4.506  0.00  0.00     0.098 N 
HETATM    9  H           1     -19.081  -7.434  -4.440  0.00  0.00     0.317 HD
BRANCH   8  10
HETATM   10  C           1     -19.423  -9.001  -3.209  0.00  0.00     0.324 C 
BRANCH  10  11
HETATM   11  C           1     -20.812  -9.518  -2.855  0.00  0.00     0.085 C 
BRANCH  11  12
HETATM   12  C           1     -21.184  -9.048  -1.483  0.00  0.00    -0.056 A 
HETATM   13  C           1     -21.845  -7.830  -1.318  0.00  0.00     0.007 A 
HETATM   14  C           1     -22.191  -7.393  -0.039  0.00  0.00     0.001 A 
HETATM   15  C           1     -21.877  -8.174   1.074  0.00  0.00     0.000 A 
HETATM   16  C           1     -21.216  -9.390   0.908  0.00  0.00     0.001 A 
HETATM   17  C           1     -20.870  -9.828  -0.370  0.00  0.00     0.007 A 
ENDBRANCH  11  12
ENDBRANCH  10  11
BRANCH  10  18
HETATM   18  C           1     -18.448 -10.152  -3.233  0.00  0.00     0.207 C 
HETATM   19  O           1     -18.246 -10.779  -4.295  0.00  0.00    -0.646 OA
HETATM   20  O           1     -17.843 -10.480  -2.189  0.00  0.00    -0.646 OA
ENDBRANCH  10  18
ENDBRANCH   8  10
ENDBRANCH   7   8
ENDBRANCH   6   7
ENDBRANCH   5   6
BRANCH   5  21
HETATM   21  C           1     -20.868  -5.463  -4.800  0.00  0.00     0.196 C 
HETATM   22  O           1     -19.888  -4.739  -5.075  0.00  0.00    -0.646 OA
HETATM   23  O           1     -21.228  -5.603  -3.611  0.00  0.00    -0.646 OA
ENDBRANCH   5  21
ENDBRANCH   2   5
BRANCH   1  24
HETATM   24  C           1     -22.707  -3.745  -8.663  0.00  0.00     0.274 C 
BRANCH  24  25
HETATM   25  C           1     -24.066  -3.826  -9.345  0.00  0.00     0.044 C 
BRANCH  25  26
HETATM   26  C           1     -23.898  -4.403 -10.745  0.00  0.00     0.023 C 
BRANCH  26  27
HETATM   27  C           1     -24.053  -3.291 -11.773  0.00  0.00     0.138 C 
BRANCH  27  28
HETATM   28  N           1     -23.174  -3.559 -12.922  0.00  0.00    -0.227 N 
HETATM   29  C           1     -23.147  -2.754 -13.899  0.00  0.00     0.665 C 
HETATM   30  N           1     -23.895  -1.692 -13.887  0.00  0.00    -0.235 N 
HETATM   31  N           1     -22.389  -2.984 -14.887  0.00  0.00    -0.235 N 
HETATM   32  H           1     -23.873  -1.027 -14.694  0.00  0.00     0.174 HD
HETATM   33  H           1     -24.520  -1.501 -13.072  0.00  0.00     0.174 HD
HETATM   34  H           1     -22.367  -2.318 -15.697  0.00  0.00     0.174 HD
HETATM   35  H           1     -21.784  -3.843 -14.897  0.00  0.00     0.174 HD
HETATM   36  H           1     -22.569  -4.417 -12.930  0.00  0.00     0.177 HD
ENDBRANCH  27  28
ENDBRANCH  26  27
ENDBRANCH  25  26
ENDBRANCH  24  25
BRANCH  24  37
HETATM   37  N           1     -21.646  -4.235  -9.603  0.00  0.00    -0.067 N 
HETATM   38  H           1     -22.079  -4.469 -10.525  0.00  0.00     0.275 HD
HETATM   39  H           1     -21.194  -5.089  -9.204  0.00  0.00     0.275 HD
HETATM   40  H           1     -20.927  -3.489  -9.735  0.00  0.00     0.275 HD
ENDBRANCH  24  37
ENDBRANCH   1  24
TORSDOF 15
ENDMDL
MODEL 8
REMARK VINA RESULT:      -7.1      2.431      3.366
REMARK  15 active torsions:
REMARK  status: ('A' for Active; 'I' for Inactive)
REMARK       I    between atoms: C_1  and  N_12 
REMARK    1  A    between atoms: C_1  and  C_6 
REMARK    2  A    between atoms: C_4  and  C_5 
REMARK    3  A    between atoms: C_5  and  C_13 
REMARK    4  A    between atoms: C_6  and  C_17 
REMARK    5  A    between atoms: C_6  and  N_19 
REMARK    6  A    between atoms: C_7  and  C_29 
REMARK    7  A    between atoms: C_7  and  C_8 
REMARK    8  A    between atoms: C_7  and  N_12 
REMARK    9  A    between atoms: C_13  and  C_33 
REMARK   10  A    between atoms: C_13  and  N_31 
REMARK   11  A    between atoms: C_17  and  C_25 
REMARK       I    between atoms: N_20  and  C_22 
REMARK       I    between atoms: N_21  and  C_22 
REMARK   12  A    between atoms: N_23  and  C_24 
REMARK   13  A    between atoms: C_24  and  C_25 
REMARK   14  A    between atoms: C_29  and  C_30 
REMARK   15  A    between atoms: C_30  and  N_31 
ROOT
HETATM    1  C           1     -34.475  -2.856 -15.971  0.00  0.00     0.249 C 
HETATM    2  N           1     -35.026  -1.675 -16.391  0.00  0.00    -0.345 N 
HETATM    3  O           1     -34.606  -3.209 -14.823  0.00  0.00    -0.271 OA
HETATM    4  H           1     -34.915  -1.380 -17.353  0.00  0.00     0.163 HD
ENDROOT
BRANCH   2   5
HETATM    5  C           1     -35.766  -0.848 -15.460  0.00  0.00     0.187 C 
BRANCH   5   6
HETATM    6  C           1     -34.823   0.159 -14.815  0.00  0.00     0.066 C 
BRANCH   6   7
HETATM    7  C           1     -34.960   0.085 -13.299  0.00  0.00     0.273 C 
BRANCH   7   8
HETATM    8  N           1     -36.175  -0.606 -12.960  0.00  0.00     0.098 N 
HETATM    9  H           1     -36.368  -1.319 -13.663  0.00  0.00     0.317 HD
BRANCH   8  10
HETATM   10  C           1     -35.978  -1.234 -11.681  0.00  0.00     0.324 C 
BRANCH  10  11
HETATM   11  C           1     -34.488  -1.449 -11.446  0.00  0.00     0.085 C 
BRANCH  11  12
HETATM   12  C           1     -34.207  -2.915 -11.335  0.00  0.00    -0.056 A 
HETATM   13  C           1     -32.961  -3.418 -11.711  0.00  0.00     0.007 A 
HETATM   14  C           1     -32.701  -4.785 -11.608  0.00  0.00     0.001 A 
HETATM   15  C           1     -33.686  -5.648 -11.127  0.00  0.00     0.000 A 
HETATM   16  C           1     -34.931  -5.145 -10.753  0.00  0.00     0.001 A 
HETATM   17  C           1     -35.192  -3.779 -10.855  0.00  0.00     0.007 A 
ENDBRANCH  11  12
ENDBRANCH  10  11
BRANCH  10  18
HETATM   18  C           1     -36.535  -0.346 -10.596  0.00  0.00     0.207 C 
HETATM   19  O           1     -36.078  -0.416  -9.435  0.00  0.00    -0.646 OA
HETATM   20  O           1     -37.454   0.459 -10.858  0.00  0.00    -0.646 OA
ENDBRANCH  10  18
ENDBRANCH   8  10
ENDBRANCH   7   8
ENDBRANCH   6   7
ENDBRANCH   5   6
BRANCH   5  21
HETATM   21  C           1     -36.859  -0.114 -16.199  0.00  0.00     0.196 C 
HETATM   22  O           1     -36.890   1.135 -16.187  0.00  0.00    -0.646 OA
HETATM   23  O           1     -37.733  -0.756 -16.822  0.00  0.00    -0.646 OA
ENDBRANCH   5  21
ENDBRANCH   2   5
BRANCH   1  24
HETATM   24  C           1     -33.703  -3.717 -16.941  0.00  0.00     0.274 C 
BRANCH  24  25
HETATM   25  C           1     -33.203  -4.965 -16.227  0.00  0.00     0.044 C 
BRANCH  25  26
HETATM   26  C           1     -33.989  -6.177 -16.711  0.00  0.00     0.023 C 
BRANCH  26  27
HETATM   27  C           1     -35.196  -6.393 -15.808  0.00  0.00     0.138 C 
BRANCH  27  28
HETATM   28  N           1     -36.209  -7.184 -16.523  0.00  0.00    -0.227 N 
HETATM   29  C           1     -36.847  -8.093 -15.916  0.00  0.00     0.665 C 
HETATM   30  N           1     -36.607  -8.328 -14.661  0.00  0.00    -0.235 N 
HETATM   31  N           1     -37.720  -8.772 -16.532  0.00  0.00    -0.235 N 
HETATM   32  H           1     -37.133  -9.079 -14.159  0.00  0.00     0.174 HD
HETATM   33  H           1     -35.886  -7.767 -14.152  0.00  0.00     0.174 HD
HETATM   34  H           1     -38.249  -9.526 -16.029  0.00  0.00     0.174 HD
HETATM   35  H           1     -37.915  -8.582 -17.546  0.00  0.00     0.174 HD
HETATM   36  H           1     -36.404  -6.992 -17.537  0.00  0.00     0.177 HD
ENDBRANCH  27  28
ENDBRANCH  26  27
ENDBRANCH  25  26
ENDBRANCH  24  25
BRANCH  24  37
HETATM   37  N           1     -32.534  -2.944 -17.474  0.00  0.00    -0.067 N 
HETATM   38  H           1     -32.708  -2.694 -18.473  0.00  0.00     0.275 HD
HETATM   39  H           1     -31.669  -3.528 -17.406  0.00  0.00     0.275 HD
HETATM   40  H           1     -32.409  -2.071 -16.913  0.00  0.00     0.275 HD
ENDBRANCH  24  37
ENDBRANCH   1  24
TORSDOF 15
ENDMDL
MODEL 9
REMARK VINA RESULT:      -6.9     16.344     19.089
REMARK  15 active torsions:
REMARK  status: ('A' for Active; 'I' for Inactive)
REMARK       I    between atoms: C_1  and  N_12 
REMARK    1  A    between atoms: C_1  and  C_6 
REMARK    2  A    between atoms: C_4  and  C_5 
REMARK    3  A    between atoms: C_5  and  C_13 
REMARK    4  A    between atoms: C_6  and  C_17 
REMARK    5  A    between atoms: C_6  and  N_19 
REMARK    6  A    between atoms: C_7  and  C_29 
REMARK    7  A    between atoms: C_7  and  C_8 
REMARK    8  A    between atoms: C_7  and  N_12 
REMARK    9  A    between atoms: C_13  and  C_33 
REMARK   10  A    between atoms: C_13  and  N_31 
REMARK   11  A    between atoms: C_17  and  C_25 
REMARK       I    between atoms: N_20  and  C_22 
REMARK       I    between atoms: N_21  and  C_22 
REMARK   12  A    between atoms: N_23  and  C_24 
REMARK   13  A    between atoms: C_24  and  C_25 
REMARK   14  A    between atoms: C_29  and  C_30 
REMARK   15  A    between atoms: C_30  and  N_31 
ROOT
HETATM    1  C           1     -21.560  -6.059  -5.404  0.00  0.00     0.249 C 
HETATM    2  N           1     -20.868  -6.850  -4.526  0.00  0.00    -0.345 N 
HETATM    3  O           1     -22.767  -6.038  -5.377  0.00  0.00    -0.271 OA
HETATM    4  H           1     -19.856  -6.867  -4.549  0.00  0.00     0.163 HD
ENDROOT
BRANCH   2   5
HETATM    5  C           1     -21.585  -7.662  -3.563  0.00  0.00     0.187 C 
BRANCH   5   6
HETATM    6  C           1     -20.886  -9.006  -3.414  0.00  0.00     0.066 C 
BRANCH   6   7
HETATM    7  C           1     -19.559  -8.976  -4.164  0.00  0.00     0.273 C 
BRANCH   7   8
HETATM    8  N           1     -18.480  -9.197  -3.240  0.00  0.00     0.098 N 
HETATM    9  H           1     -18.859  -9.363  -2.307  0.00  0.00     0.317 HD
BRANCH   8  10
HETATM   10  C           1     -17.762 -10.364  -3.679  0.00  0.00     0.324 C 
BRANCH  10  11
HETATM   11  C           1     -16.272 -10.164  -3.433  0.00  0.00     0.085 C 
BRANCH  11  12
HETATM   12  C           1     -15.491 -10.985  -4.412  0.00  0.00    -0.056 A 
HETATM   13  C           1     -14.451 -11.802  -3.966  0.00  0.00     0.007 A 
HETATM   14  C           1     -13.724 -12.564  -4.880  0.00  0.00     0.001 A 
HETATM   15  C           1     -14.036 -12.512  -6.238  0.00  0.00     0.000 A 
HETATM   16  C           1     -15.075 -11.696  -6.683  0.00  0.00     0.001 A 
HETATM   17  C           1     -15.803 -10.933  -5.771  0.00  0.00     0.007 A 
ENDBRANCH  11  12
ENDBRANCH  10  11
BRANCH  10  18
HETATM   18  C           1     -18.243 -11.568  -2.907  0.00  0.00     0.207 C 
HETATM   19  O           1     -18.297 -11.530  -1.659  0.00  0.00    -0.646 OA
HETATM   20  O           1     -18.585 -12.604  -3.516  0.00  0.00    -0.646 OA
ENDBRANCH  10  18
ENDBRANCH   8  10
ENDBRANCH   7   8
ENDBRANCH   6   7
ENDBRANCH   5   6
BRANCH   5  21
HETATM   21  C           1     -21.610  -6.956  -2.229  0.00  0.00     0.196 C 
HETATM   22  O           1     -22.232  -5.880  -2.103  0.00  0.00    -0.646 OA
HETATM   23  O           1     -21.006  -7.448  -1.250  0.00  0.00    -0.646 OA
ENDBRANCH   5  21
ENDBRANCH   2   5
BRANCH   1  24
HETATM   24  C           1     -20.813  -5.213  -6.407  0.00  0.00     0.274 C 
BRANCH  24  25
HETATM   25  C           1     -21.797  -4.327  -7.158  0.00  0.00     0.044 C 
BRANCH  25  26
HETATM   26  C           1     -21.772  -4.680  -8.639  0.00  0.00     0.023 C 
BRANCH  26  27
HETATM   27  C           1     -22.446  -3.573  -9.437  0.00  0.00     0.138 C 
BRANCH  27  28
HETATM   28  N           1     -23.864  -3.485  -9.054  0.00  0.00    -0.227 N 
HETATM   29  C           1     -24.763  -3.522  -9.944  0.00  0.00     0.665 C 
HETATM   30  N           1     -24.435  -3.637 -11.196  0.00  0.00    -0.235 N 
HETATM   31  N           1     -25.983  -3.447  -9.613  0.00  0.00    -0.235 N 
HETATM   32  H           1     -25.178  -3.667 -11.931  0.00  0.00     0.174 HD
HETATM   33  H           1     -23.428  -3.699 -11.469  0.00  0.00     0.174 HD
HETATM   34  H           1     -26.729  -3.477 -10.351  0.00  0.00     0.174 HD
HETATM   35  H           1     -26.249  -3.354  -8.602  0.00  0.00     0.174 HD
HETATM   36  H           1     -24.129  -3.393  -8.042  0.00  0.00     0.177 HD
ENDBRANCH  27  28
ENDBRANCH  26  27
ENDBRANCH  25  26
ENDBRANCH  24  25
BRANCH  24  37
HETATM   37  N           1     -20.101  -6.104  -7.380  0.00  0.00    -0.067 N 
HETATM   38  H           1     -19.072  -5.931  -7.322  0.00  0.00     0.275 HD
HETATM   39  H           1     -20.434  -5.900  -8.350  0.00  0.00     0.275 HD
HETATM   40  H           1     -20.299  -7.103  -7.147  0.00  0.00     0.275 HD
ENDBRANCH  24  37
ENDBRANCH   1  24
TORSDOF 15
ENDMDL
