MODEL 1
REMARK VINA RESULT:      -6.3      0.000      0.000
REMARK  8 active torsions:
REMARK  status: ('A' for Active; 'I' for Inactive)
REMARK    1  A    between atoms: C_2  and  C_3 
REMARK    2  A    between atoms: C_2  and  C_19 
REMARK    3  A    between atoms: C_2  and  N_16 
REMARK       I    between atoms: C_3  and  N_8 
REMARK    4  A    between atoms: S_4  and  C_5 
REMARK    5  A    between atoms: C_5  and  C_13 
REMARK    6  A    between atoms: N_8  and  C_13 
REMARK    7  A    between atoms: C_9  and  C_13 
REMARK    8  A    between atoms: C_18  and  C_19 
ROOT
HETATM    1  C           1     -34.330  -2.430 -12.452  0.00  0.00     0.249 C 
HETATM    2  H           1     -34.942  -0.701 -11.495  0.00  0.00     0.163 HD
HETATM    3  N           1     -35.023  -1.257 -12.337  0.00  0.00    -0.344 N 
HETATM    4  O           1     -34.426  -3.094 -13.457  0.00  0.00    -0.271 OA
ENDROOT
BRANCH   1   5
HETATM    5  C           1     -33.446  -2.898 -11.322  0.00  0.00     0.278 C 
BRANCH   5   6
HETATM    6  C           1     -34.102  -4.078 -10.617  0.00  0.00     0.021 C 
HETATM    7  C           1     -35.609  -4.020 -10.825  0.00  0.00     0.012 C 
BRANCH   6   8
HETATM    8  C           1     -33.561  -5.379 -11.195  0.00  0.00     0.002 C 
HETATM    9  C           1     -34.284  -6.558 -10.558  0.00  0.00     0.005 C 
ENDBRANCH   6   8
ENDBRANCH   5   6
BRANCH   5  10
HETATM   10  N           1     -33.249  -1.779 -10.344  0.00  0.00    -0.066 N 
HETATM   11  H           1     -34.179  -1.398 -10.056  0.00  0.00     0.275 HD
HETATM   12  H           1     -32.686  -1.021 -10.791  0.00  0.00     0.275 HD
HETATM   13  H           1     -32.744  -2.138  -9.502  0.00  0.00     0.275 HD
ENDBRANCH   5  10
ENDBRANCH   1   5
BRANCH   3  14
HETATM   14  C           1     -35.872  -0.807 -13.423  0.00  0.00     0.194 C 
BRANCH  14  15
HETATM   15  C           1     -37.133  -0.171 -12.851  0.00  0.00     0.106 C 
BRANCH  15  16
HETATM   16  S           1     -37.020  -0.120 -11.041  0.00  0.00    -0.180 SA
HETATM   17  H           1     -36.383   1.062 -10.973  0.00  0.00     0.101 HD
ENDBRANCH  15  16
ENDBRANCH  14  15
BRANCH  14  18
HETATM   18  C           1     -35.130   0.208 -14.256  0.00  0.00     0.197 C 
HETATM   19  O           1     -34.883  -0.029 -15.458  0.00  0.00    -0.646 OA
HETATM   20  O           1     -34.760   1.288 -13.744  0.00  0.00    -0.646 OA
ENDBRANCH  14  18
ENDBRANCH   3  14
TORSDOF 8
ENDMDL
MODEL 2
REMARK VINA RESULT:      -6.3      2.004      2.457
REMARK  8 active torsions:
REMARK  status: ('A' for Active; 'I' for Inactive)
REMARK    1  A    between atoms: C_2  and  C_3 
REMARK    2  A    between atoms: C_2  and  C_19 
REMARK    3  A    between atoms: C_2  and  N_16 
REMARK       I    between atoms: C_3  and  N_8 
REMARK    4  A    between atoms: S_4  and  C_5 
REMARK    5  A    between atoms: C_5  and  C_13 
REMARK    6  A    between atoms: N_8  and  C_13 
REMARK    7  A    between atoms: C_9  and  C_13 
REMARK    8  A    between atoms: C_18  and  C_19 
ROOT
HETATM    1  C           1     -35.298  -1.545 -12.771  0.00  0.00     0.249 C 
HETATM    2  H           1     -33.974  -1.188 -14.319  0.00  0.00     0.163 HD
HETATM    3  N           1     -34.939  -1.126 -14.022  0.00  0.00    -0.344 N 
HETATM    4  O           1     -36.450  -1.472 -12.416  0.00  0.00    -0.271 OA
ENDROOT
BRANCH   1   5
HETATM    5  C           1     -34.255  -2.097 -11.831  0.00  0.00     0.278 C 
BRANCH   5   6
HETATM    6  C           1     -34.164  -3.608 -12.003  0.00  0.00     0.021 C 
HETATM    7  C           1     -32.711  -4.046 -11.890  0.00  0.00     0.012 C 
BRANCH   6   8
HETATM    8  C           1     -34.985  -4.292 -10.917  0.00  0.00     0.002 C 
HETATM    9  C           1     -34.272  -5.557 -10.461  0.00  0.00     0.005 C 
ENDBRANCH   6   8
ENDBRANCH   5   6
BRANCH   5  10
HETATM   10  N           1     -34.635  -1.778 -10.417  0.00  0.00    -0.066 N 
HETATM   11  H           1     -33.852  -2.039  -9.776  0.00  0.00     0.275 HD
HETATM   12  H           1     -35.492  -2.317 -10.157  0.00  0.00     0.275 HD
HETATM   13  H           1     -34.829  -0.754 -10.331  0.00  0.00     0.275 HD
ENDBRANCH   5  10
ENDBRANCH   1   5
BRANCH   3  14
HETATM   14  C           1     -35.942  -0.595 -14.925  0.00  0.00     0.194 C 
BRANCH  14  15
HETATM   15  C           1     -35.751   0.910 -15.069  0.00  0.00     0.106 C 
BRANCH  15  16
HETATM   16  S           1     -34.588   1.497 -13.805  0.00  0.00    -0.180 SA
HETATM   17  H           1     -33.679   0.523 -13.988  0.00  0.00     0.101 HD
ENDBRANCH  15  16
ENDBRANCH  14  15
BRANCH  14  18
HETATM   18  C           1     -35.802  -1.252 -16.276  0.00  0.00     0.197 C 
HETATM   19  O           1     -35.004  -2.202 -16.430  0.00  0.00    -0.646 OA
HETATM   20  O           1     -36.483  -0.846 -17.243  0.00  0.00    -0.646 OA
ENDBRANCH  14  18
ENDBRANCH   3  14
TORSDOF 8
ENDMDL
MODEL 3
REMARK VINA RESULT:      -6.1      2.375      2.991
REMARK  8 active torsions:
REMARK  status: ('A' for Active; 'I' for Inactive)
REMARK    1  A    between atoms: C_2  and  C_3 
REMARK    2  A    between atoms: C_2  and  C_19 
REMARK    3  A    between atoms: C_2  and  N_16 
REMARK       I    between atoms: C_3  and  N_8 
REMARK    4  A    between atoms: S_4  and  C_5 
REMARK    5  A    between atoms: C_5  and  C_13 
REMARK    6  A    between atoms: N_8  and  C_13 
REMARK    7  A    between atoms: C_9  and  C_13 
REMARK    8  A    between atoms: C_18  and  C_19 
ROOT
HETATM    1  C           1     -35.096  -1.808 -12.594  0.00  0.00     0.249 C 
HETATM    2  H           1     -36.576  -2.240 -11.214  0.00  0.00     0.163 HD
HETATM    3  N           1     -36.165  -1.518 -11.791  0.00  0.00    -0.344 N 
HETATM    4  O           1     -34.605  -0.946 -13.283  0.00  0.00    -0.271 OA
ENDROOT
BRANCH   1   5
HETATM    5  C           1     -34.531  -3.207 -12.621  0.00  0.00     0.278 C 
BRANCH   5   6
HETATM    6  C           1     -33.303  -3.278 -11.722  0.00  0.00     0.021 C 
HETATM    7  C           1     -33.607  -2.600 -10.394  0.00  0.00     0.012 C 
BRANCH   6   8
HETATM    8  C           1     -32.939  -4.736 -11.475  0.00  0.00     0.002 C 
HETATM    9  C           1     -34.066  -5.421 -10.715  0.00  0.00     0.005 C 
ENDBRANCH   6   8
ENDBRANCH   5   6
BRANCH   5  10
HETATM   10  N           1     -34.142  -3.563 -14.025  0.00  0.00    -0.066 N 
HETATM   11  H           1     -34.978  -3.492 -14.648  0.00  0.00     0.275 HD
HETATM   12  H           1     -33.774  -4.540 -14.047  0.00  0.00     0.275 HD
HETATM   13  H           1     -33.402  -2.904 -14.358  0.00  0.00     0.275 HD
ENDBRANCH   5  10
ENDBRANCH   1   5
BRANCH   3  14
HETATM   14  C           1     -36.708  -0.174 -11.765  0.00  0.00     0.194 C 
BRANCH  14  15
HETATM   15  C           1     -38.073  -0.164 -12.442  0.00  0.00     0.106 C 
BRANCH  15  16
HETATM   16  S           1     -37.856  -0.059 -14.241  0.00  0.00    -0.180 SA
HETATM   17  H           1     -36.545  -0.359 -14.242  0.00  0.00     0.101 HD
ENDBRANCH  15  16
ENDBRANCH  14  15
BRANCH  14  18
HETATM   18  C           1     -36.853   0.283 -10.335  0.00  0.00     0.197 C 
HETATM   19  O           1     -37.754   1.093 -10.025  0.00  0.00    -0.646 OA
HETATM   20  O           1     -36.072  -0.147  -9.458  0.00  0.00    -0.646 OA
ENDBRANCH  14  18
ENDBRANCH   3  14
TORSDOF 8
ENDMDL
MODEL 4
REMARK VINA RESULT:      -5.6      2.398      2.889
REMARK  8 active torsions:
REMARK  status: ('A' for Active; 'I' for Inactive)
REMARK    1  A    between atoms: C_2  and  C_3 
REMARK    2  A    between atoms: C_2  and  C_19 
REMARK    3  A    between atoms: C_2  and  N_16 
REMARK       I    between atoms: C_3  and  N_8 
REMARK    4  A    between atoms: S_4  and  C_5 
REMARK    5  A    between atoms: C_5  and  C_13 
REMARK    6  A    between atoms: N_8  and  C_13 
REMARK    7  A    between atoms: C_9  and  C_13 
REMARK    8  A    between atoms: C_18  and  C_19 
ROOT
HETATM    1  C           1     -35.367  -0.797 -11.929  0.00  0.00     0.249 C 
HETATM    2  H           1     -35.444  -1.948 -13.647  0.00  0.00     0.163 HD
HETATM    3  N           1     -35.538  -1.014 -13.269  0.00  0.00    -0.344 N 
HETATM    4  O           1     -35.478   0.317 -11.478  0.00  0.00    -0.271 OA
ENDROOT
BRANCH   1   5
HETATM    5  C           1     -35.036  -1.951 -11.015  0.00  0.00     0.278 C 
BRANCH   5   6
HETATM    6  C           1     -34.393  -3.072 -11.821  0.00  0.00     0.021 C 
HETATM    7  C           1     -32.924  -3.194 -11.440  0.00  0.00     0.012 C 
BRANCH   6   8
HETATM    8  C           1     -35.105  -4.385 -11.522  0.00  0.00     0.002 C 
HETATM    9  C           1     -34.187  -5.287 -10.708  0.00  0.00     0.005 C 
ENDBRANCH   6   8
ENDBRANCH   5   6
BRANCH   5  10
HETATM   10  N           1     -36.293  -2.457 -10.373  0.00  0.00    -0.066 N 
HETATM   11  H           1     -36.065  -3.254  -9.737  0.00  0.00     0.275 HD
HETATM   12  H           1     -36.956  -2.780 -11.113  0.00  0.00     0.275 HD
HETATM   13  H           1     -36.736  -1.687  -9.821  0.00  0.00     0.275 HD
ENDBRANCH   5  10
ENDBRANCH   1   5
BRANCH   3  14
HETATM   14  C           1     -35.855   0.095 -14.148  0.00  0.00     0.194 C 
BRANCH  14  15
HETATM   15  C           1     -34.977   0.025 -15.391  0.00  0.00     0.106 C 
BRANCH  15  16
HETATM   16  S           1     -35.412  -1.448 -16.359  0.00  0.00    -0.180 SA
HETATM   17  H           1     -34.311  -2.151 -16.045  0.00  0.00     0.101 HD
ENDBRANCH  15  16
ENDBRANCH  14  15
BRANCH  14  18
HETATM   18  C           1     -37.307   0.018 -14.552  0.00  0.00     0.197 C 
HETATM   19  O           1     -37.745   0.763 -15.455  0.00  0.00    -0.646 OA
HETATM   20  O           1     -38.072  -0.791 -13.984  0.00  0.00    -0.646 OA
ENDBRANCH  14  18
ENDBRANCH   3  14
TORSDOF 8
ENDMDL
MODEL 5
REMARK VINA RESULT:      -5.6     12.868     14.014
REMARK  8 active torsions:
REMARK  status: ('A' for Active; 'I' for Inactive)
REMARK    1  A    between atoms: C_2  and  C_3 
REMARK    2  A    between atoms: C_2  and  C_19 
REMARK    3  A    between atoms: C_2  and  N_16 
REMARK       I    between atoms: C_3  and  N_8 
REMARK    4  A    between atoms: S_4  and  C_5 
REMARK    5  A    between atoms: C_5  and  C_13 
REMARK    6  A    between atoms: N_8  and  C_13 
REMARK    7  A    between atoms: C_9  and  C_13 
REMARK    8  A    between atoms: C_18  and  C_19 
ROOT
HETATM    1  C           1     -20.730  -4.316  -9.001  0.00  0.00     0.249 C 
HETATM    2  H           1     -22.609  -3.452  -9.056  0.00  0.00     0.163 HD
HETATM    3  N           1     -21.928  -3.990  -9.576  0.00  0.00    -0.344 N 
HETATM    4  O           1     -19.916  -4.957  -9.622  0.00  0.00    -0.271 OA
ENDROOT
BRANCH   1   5
HETATM    5  C           1     -20.425  -3.875  -7.591  0.00  0.00     0.278 C 
BRANCH   5   6
HETATM    6  C           1     -20.086  -5.091  -6.740  0.00  0.00     0.021 C 
HETATM    7  C           1     -19.936  -4.668  -5.285  0.00  0.00     0.012 C 
BRANCH   6   8
HETATM    8  C           1     -21.203  -6.119  -6.856  0.00  0.00     0.002 C 
HETATM    9  C           1     -21.705  -6.485  -5.466  0.00  0.00     0.005 C 
ENDBRANCH   6   8
ENDBRANCH   5   6
BRANCH   5  10
HETATM   10  N           1     -21.621  -3.180  -7.014  0.00  0.00    -0.066 N 
HETATM   11  H           1     -21.842  -2.331  -7.583  0.00  0.00     0.275 HD
HETATM   12  H           1     -21.417  -2.895  -6.029  0.00  0.00     0.275 HD
HETATM   13  H           1     -22.440  -3.829  -7.026  0.00  0.00     0.275 HD
ENDBRANCH   5  10
ENDBRANCH   1   5
BRANCH   3  14
HETATM   14  C           1     -22.221  -4.414 -10.931  0.00  0.00     0.194 C 
BRANCH  14  15
HETATM   15  C           1     -23.695  -4.783 -11.040  0.00  0.00     0.106 C 
BRANCH  15  16
HETATM   16  S           1     -24.679  -3.665 -10.002  0.00  0.00    -0.180 SA
HETATM   17  H           1     -23.814  -2.637 -10.045  0.00  0.00     0.101 HD
ENDBRANCH  15  16
ENDBRANCH  14  15
BRANCH  14  18
HETATM   18  C           1     -21.912  -3.290 -11.888  0.00  0.00     0.197 C 
HETATM   19  O           1     -21.104  -2.393 -11.560  0.00  0.00    -0.646 OA
HETATM   20  O           1     -22.464  -3.252 -13.009  0.00  0.00    -0.646 OA
ENDBRANCH  14  18
ENDBRANCH   3  14
TORSDOF 8
ENDMDL
MODEL 6
REMARK VINA RESULT:      -5.4     10.833     11.830
REMARK  8 active torsions:
REMARK  status: ('A' for Active; 'I' for Inactive)
REMARK    1  A    between atoms: C_2  and  C_3 
REMARK    2  A    between atoms: C_2  and  C_19 
REMARK    3  A    between atoms: C_2  and  N_16 
REMARK       I    between atoms: C_3  and  N_8 
REMARK    4  A    between atoms: S_4  and  C_5 
REMARK    5  A    between atoms: C_5  and  C_13 
REMARK    6  A    between atoms: N_8  and  C_13 
REMARK    7  A    between atoms: C_9  and  C_13 
REMARK    8  A    between atoms: C_18  and  C_19 
ROOT
HETATM    1  C           1     -26.434  -6.344 -18.082  0.00  0.00     0.249 C 
HETATM    2  H           1     -27.695  -7.139 -19.517  0.00  0.00     0.163 HD
HETATM    3  N           1     -27.641  -6.743 -18.587  0.00  0.00    -0.344 N 
HETATM    4  O           1     -26.369  -5.871 -16.973  0.00  0.00    -0.271 OA
ENDROOT
BRANCH   1   5
HETATM    5  C           1     -25.182  -6.493 -18.912  0.00  0.00     0.278 C 
BRANCH   5   6
HETATM    6  C           1     -25.545  -7.038 -20.288  0.00  0.00     0.021 C 
HETATM    7  C           1     -25.549  -5.901 -21.300  0.00  0.00     0.012 C 
BRANCH   6   8
HETATM    8  C           1     -24.521  -8.085 -20.705  0.00  0.00     0.002 C 
HETATM    9  C           1     -24.127  -7.860 -22.159  0.00  0.00     0.005 C 
ENDBRANCH   6   8
ENDBRANCH   5   6
BRANCH   5  10
HETATM   10  N           1     -24.241  -7.442 -18.233  0.00  0.00    -0.066 N 
HETATM   11  H           1     -23.322  -7.440 -18.730  0.00  0.00     0.275 HD
HETATM   12  H           1     -24.645  -8.406 -18.251  0.00  0.00     0.275 HD
HETATM   13  H           1     -24.101  -7.143 -17.241  0.00  0.00     0.275 HD
ENDBRANCH   5  10
ENDBRANCH   1   5
BRANCH   3  14
HETATM   14  C           1     -28.844  -6.600 -17.790  0.00  0.00     0.194 C 
BRANCH  14  15
HETATM   15  C           1     -29.716  -5.499 -18.380  0.00  0.00     0.106 C 
BRANCH  15  16
HETATM   16  S           1     -31.070  -5.118 -17.232  0.00  0.00    -0.180 SA
HETATM   17  H           1     -30.321  -5.149 -16.116  0.00  0.00     0.101 HD
ENDBRANCH  15  16
ENDBRANCH  14  15
BRANCH  14  18
HETATM   18  C           1     -29.606  -7.901 -17.791  0.00  0.00     0.197 C 
HETATM   19  O           1     -30.266  -8.238 -18.798  0.00  0.00    -0.646 OA
HETATM   20  O           1     -29.580  -8.643 -16.785  0.00  0.00    -0.646 OA
ENDBRANCH  14  18
ENDBRANCH   3  14
TORSDOF 8
ENDMDL
MODEL 7
REMARK VINA RESULT:      -5.4     15.256     16.631
REMARK  8 active torsions:
REMARK  status: ('A' for Active; 'I' for Inactive)
REMARK    1  A    between atoms: C_2  and  C_3 
REMARK    2  A    between atoms: C_2  and  C_19 
REMARK    3  A    between atoms: C_2  and  N_16 
REMARK       I    between atoms: C_3  and  N_8 
REMARK    4  A    between atoms: S_4  and  C_5 
REMARK    5  A    between atoms: C_5  and  C_13 
REMARK    6  A    between atoms: N_8  and  C_13 
REMARK    7  A    between atoms: C_9  and  C_13 
REMARK    8  A    between atoms: C_18  and  C_19 
ROOT
HETATM    1  C           1     -21.444  -6.530  -4.193  0.00  0.00     0.249 C 
HETATM    2  H           1     -20.575  -4.666  -4.424  0.00  0.00     0.163 HD
HETATM    3  N           1     -21.000  -5.449  -4.905  0.00  0.00    -0.344 N 
HETATM    4  O           1     -21.951  -7.464  -4.766  0.00  0.00    -0.271 OA
ENDROOT
BRANCH   1   5
HETATM    5  C           1     -21.302  -6.554  -2.691  0.00  0.00     0.278 C 
BRANCH   5   6
HETATM    6  C           1     -21.429  -7.987  -2.191  0.00  0.00     0.021 C 
HETATM    7  C           1     -20.041  -8.584  -2.000  0.00  0.00     0.012 C 
BRANCH   6   8
HETATM    8  C           1     -22.172  -7.997  -0.862  0.00  0.00     0.002 C 
HETATM    9  C           1     -21.270  -8.572   0.221  0.00  0.00     0.005 C 
ENDBRANCH   6   8
ENDBRANCH   5   6
BRANCH   5  10
HETATM   10  N           1     -22.379  -5.713  -2.073  0.00  0.00    -0.066 N 
HETATM   11  H           1     -22.073  -4.714  -2.050  0.00  0.00     0.275 HD
HETATM   12  H           1     -22.562  -6.044  -1.099  0.00  0.00     0.275 HD
HETATM   13  H           1     -23.253  -5.797  -2.640  0.00  0.00     0.275 HD
ENDBRANCH   5  10
ENDBRANCH   1   5
BRANCH   3  14
HETATM   14  C           1     -21.136  -5.425  -6.348  0.00  0.00     0.194 C 
BRANCH  14  15
HETATM   15  C           1     -21.631  -4.054  -6.789  0.00  0.00     0.106 C 
BRANCH  15  16
HETATM   16  S           1     -22.579  -4.217  -8.328  0.00  0.00    -0.180 SA
HETATM   17  H           1     -21.930  -3.248  -8.996  0.00  0.00     0.101 HD
ENDBRANCH  15  16
ENDBRANCH  14  15
BRANCH  14  18
HETATM   18  C           1     -19.798  -5.706  -6.985  0.00  0.00     0.197 C 
HETATM   19  O           1     -19.111  -4.765  -7.438  0.00  0.00    -0.646 OA
HETATM   20  O           1     -19.375  -6.880  -7.061  0.00  0.00    -0.646 OA
ENDBRANCH  14  18
ENDBRANCH   3  14
TORSDOF 8
ENDMDL
MODEL 8
REMARK VINA RESULT:      -5.3     14.732     16.518
REMARK  8 active torsions:
REMARK  status: ('A' for Active; 'I' for Inactive)
REMARK    1  A    between atoms: C_2  and  C_3 
REMARK    2  A    between atoms: C_2  and  C_19 
REMARK    3  A    between atoms: C_2  and  N_16 
REMARK       I    between atoms: C_3  and  N_8 
REMARK    4  A    between atoms: S_4  and  C_5 
REMARK    5  A    between atoms: C_5  and  C_13 
REMARK    6  A    between atoms: N_8  and  C_13 
REMARK    7  A    between atoms: C_9  and  C_13 
REMARK    8  A    between atoms: C_18  and  C_19 
ROOT
HETATM    1  C           1     -21.723  -5.537  -5.807  0.00  0.00     0.249 C 
HETATM    2  H           1     -20.014  -6.384  -5.007  0.00  0.00     0.163 HD
HETATM    3  N           1     -21.026  -6.394  -5.001  0.00  0.00    -0.344 N 
HETATM    4  O           1     -22.931  -5.549  -5.801  0.00  0.00    -0.271 OA
ENDROOT
BRANCH   1   5
HETATM    5  C           1     -20.984  -4.578  -6.708  0.00  0.00     0.278 C 
BRANCH   5   6
HETATM    6  C           1     -21.354  -4.855  -8.159  0.00  0.00     0.021 C 
HETATM    7  C           1     -22.338  -3.799  -8.643  0.00  0.00     0.012 C 
BRANCH   6   8
HETATM    8  C           1     -20.098  -4.809  -9.020  0.00  0.00     0.002 C 
HETATM    9  C           1     -20.461  -4.352 -10.426  0.00  0.00     0.005 C 
ENDBRANCH   6   8
ENDBRANCH   5   6
BRANCH   5  10
HETATM   10  N           1     -19.507  -4.758  -6.526  0.00  0.00    -0.066 N 
HETATM   11  H           1     -19.321  -5.670  -6.050  0.00  0.00     0.275 HD
HETATM   12  H           1     -19.130  -3.978  -5.942  0.00  0.00     0.275 HD
HETATM   13  H           1     -19.038  -4.752  -7.460  0.00  0.00     0.275 HD
ENDBRANCH   5  10
ENDBRANCH   1   5
BRANCH   3  14
HETATM   14  C           1     -21.736  -7.316  -4.136  0.00  0.00     0.194 C 
BRANCH  14  15
HETATM   15  C           1     -21.108  -8.700  -4.244  0.00  0.00     0.106 C 
BRANCH  15  16
HETATM   16  S           1     -19.489  -8.570  -5.053  0.00  0.00    -0.180 SA
HETATM   17  H           1     -19.422  -7.228  -5.017  0.00  0.00     0.101 HD
ENDBRANCH  15  16
ENDBRANCH  14  15
BRANCH  14  18
HETATM   18  C           1     -21.650  -6.835  -2.709  0.00  0.00     0.197 C 
HETATM   19  O           1     -22.392  -5.908  -2.315  0.00  0.00    -0.646 OA
HETATM   20  O           1     -20.836  -7.360  -1.918  0.00  0.00    -0.646 OA
ENDBRANCH  14  18
ENDBRANCH   3  14
TORSDOF 8
ENDMDL
MODEL 9
REMARK VINA RESULT:      -5.3      2.780      5.172
REMARK  8 active torsions:
REMARK  status: ('A' for Active; 'I' for Inactive)
REMARK    1  A    between atoms: C_2  and  C_3 
REMARK    2  A    between atoms: C_2  and  C_19 
REMARK    3  A    between atoms: C_2  and  N_16 
REMARK       I    between atoms: C_3  and  N_8 
REMARK    4  A    between atoms: S_4  and  C_5 
REMARK    5  A    between atoms: C_5  and  C_13 
REMARK    6  A    between atoms: N_8  and  C_13 
REMARK    7  A    between atoms: C_9  and  C_13 
REMARK    8  A    between atoms: C_18  and  C_19 
ROOT
HETATM    1  C           1     -35.206  -1.902 -11.351  0.00  0.00     0.249 C 
HETATM    2  H           1     -36.083  -3.371 -12.515  0.00  0.00     0.163 HD
HETATM    3  N           1     -35.321  -3.157 -11.885  0.00  0.00    -0.344 N 
HETATM    4  O           1     -34.297  -1.646 -10.599  0.00  0.00    -0.271 OA
ENDROOT
BRANCH   1   5
HETATM    5  C           1     -36.216  -0.838 -11.702  0.00  0.00     0.278 C 
BRANCH   5   6
HETATM    6  C           1     -36.107  -0.500 -13.183  0.00  0.00     0.021 C 
HETATM    7  C           1     -37.474  -0.091 -13.712  0.00  0.00     0.012 C 
BRANCH   6   8
HETATM    8  C           1     -35.126   0.650 -13.370  0.00  0.00     0.002 C 
HETATM    9  C           1     -35.154   1.110 -14.821  0.00  0.00     0.005 C 
ENDBRANCH   6   8
ENDBRANCH   5   6
BRANCH   5  10
HETATM   10  N           1     -35.948   0.393 -10.889  0.00  0.00    -0.066 N 
HETATM   11  H           1     -36.417   0.308  -9.959  0.00  0.00     0.275 HD
HETATM   12  H           1     -36.321   1.230 -11.391  0.00  0.00     0.275 HD
HETATM   13  H           1     -34.917   0.501 -10.750  0.00  0.00     0.275 HD
ENDBRANCH   5  10
ENDBRANCH   1   5
BRANCH   3  14
HETATM   14  C           1     -34.350  -4.180 -11.548  0.00  0.00     0.194 C 
BRANCH  14  15
HETATM   15  C           1     -35.021  -5.547 -11.582  0.00  0.00     0.106 C 
BRANCH  15  16
HETATM   16  S           1     -34.422  -6.551 -10.193  0.00  0.00    -0.180 SA
HETATM   17  H           1     -35.244  -7.593 -10.409  0.00  0.00     0.101 HD
ENDBRANCH  15  16
ENDBRANCH  14  15
BRANCH  14  18
HETATM   18  C           1     -33.220  -4.149 -12.546  0.00  0.00     0.197 C 
HETATM   19  O           1     -33.447  -3.855 -13.740  0.00  0.00    -0.646 OA
HETATM   20  O           1     -32.055  -4.419 -12.181  0.00  0.00    -0.646 OA
ENDBRANCH  14  18
ENDBRANCH   3  14
TORSDOF 8
ENDMDL
