MODEL 1
REMARK VINA RESULT:      -6.4      0.000      0.000
REMARK  10 active torsions:
REMARK  status: ('A' for Active; 'I' for Inactive)
REMARK    1  A    between atoms: C_2  and  O_16 
REMARK    2  A    between atoms: C_2  and  C_10 
REMARK    3  A    between atoms: C_3  and  C_8 
REMARK    4  A    between atoms: C_3  and  C_15 
REMARK       I    between atoms: C_5  and  N_6 
REMARK    5  A    between atoms: C_5  and  C_11 
REMARK    6  A    between atoms: N_6  and  C_10 
REMARK    7  A    between atoms: C_8  and  C_11 
REMARK    8  A    between atoms: C_10  and  C_12 
REMARK    9  A    between atoms: C_11  and  N_13 
REMARK   10  A    between atoms: C_15  and  N_19 
ROOT
HETATM    1  C           1     -34.312  -2.347 -12.003  0.00  0.00     0.274 C 
ENDROOT
BRANCH   1   2
HETATM    2  C           1     -35.287  -1.591 -12.872  0.00  0.00     0.249 C 
HETATM    3  N           1     -34.881  -1.091 -14.081  0.00  0.00    -0.343 N 
HETATM    4  H           1     -33.927  -1.228 -14.391  0.00  0.00     0.163 HD
HETATM    5  O           1     -36.425  -1.427 -12.502  0.00  0.00    -0.271 OA
BRANCH   3   6
HETATM    6  C           1     -35.818  -0.365 -14.916  0.00  0.00     0.209 C 
BRANCH   6   7
HETATM    7  C           1     -35.394   1.096 -15.000  0.00  0.00     0.200 C 
BRANCH   7   8
HETATM    8  O           1     -36.208   1.767 -15.923  0.00  0.00    -0.398 OA
HETATM    9  H           1     -35.863   1.579 -16.779  0.00  0.00     0.209 HD
ENDBRANCH   7   8
ENDBRANCH   6   7
BRANCH   6  10
HETATM   10  C           1     -35.828  -0.967 -16.300  0.00  0.00     0.198 C 
HETATM   11  O           1     -34.865  -1.664 -16.685  0.00  0.00    -0.646 OA
HETATM   12  O           1     -36.800  -0.768 -17.060  0.00  0.00    -0.646 OA
ENDBRANCH   6  10
ENDBRANCH   3   6
ENDBRANCH   1   2
BRANCH   1  13
HETATM   13  C           1     -34.985  -3.599 -11.455  0.00  0.00     0.044 C 
BRANCH  13  14
HETATM   14  C           1     -33.992  -4.378 -10.601  0.00  0.00     0.030 C 
BRANCH  14  15
HETATM   15  C           1     -34.035  -5.851 -10.987  0.00  0.00     0.230 C 
BRANCH  15  16
HETATM   16  N           1     -34.741  -6.003 -12.303  0.00  0.00    -0.079 N 
HETATM   17  H           1     -35.214  -6.933 -12.338  0.00  0.00     0.274 HD
HETATM   18  H           1     -35.454  -5.245 -12.404  0.00  0.00     0.274 HD
HETATM   19  H           1     -34.046  -5.934 -13.080  0.00  0.00     0.274 HD
ENDBRANCH  15  16
ENDBRANCH  14  15
ENDBRANCH  13  14
ENDBRANCH   1  13
BRANCH   1  20
HETATM   20  N           1     -33.878  -1.474 -10.864  0.00  0.00    -0.067 N 
HETATM   21  H           1     -32.958  -1.810 -10.498  0.00  0.00     0.275 HD
HETATM   22  H           1     -33.781  -0.488 -11.197  0.00  0.00     0.275 HD
HETATM   23  H           1     -34.593  -1.515 -10.102  0.00  0.00     0.275 HD
ENDBRANCH   1  20
TORSDOF 10
ENDMDL
MODEL 2
REMARK VINA RESULT:      -5.8      2.251      3.664
REMARK  10 active torsions:
REMARK  status: ('A' for Active; 'I' for Inactive)
REMARK    1  A    between atoms: C_2  and  O_16 
REMARK    2  A    between atoms: C_2  and  C_10 
REMARK    3  A    between atoms: C_3  and  C_8 
REMARK    4  A    between atoms: C_3  and  C_15 
REMARK       I    between atoms: C_5  and  N_6 
REMARK    5  A    between atoms: C_5  and  C_11 
REMARK    6  A    between atoms: N_6  and  C_10 
REMARK    7  A    between atoms: C_8  and  C_11 
REMARK    8  A    between atoms: C_10  and  C_12 
REMARK    9  A    between atoms: C_11  and  N_13 
REMARK   10  A    between atoms: C_15  and  N_19 
ROOT
HETATM    1  C           1     -34.140  -4.074 -11.869  0.00  0.00     0.274 C 
ENDROOT
BRANCH   1   2
HETATM    2  C           1     -34.386  -2.599 -11.672  0.00  0.00     0.249 C 
HETATM    3  N           1     -35.450  -1.994 -12.286  0.00  0.00    -0.343 N 
HETATM    4  H           1     -36.071  -2.537 -12.872  0.00  0.00     0.163 HD
HETATM    5  O           1     -33.644  -1.950 -10.972  0.00  0.00    -0.271 OA
BRANCH   3   6
HETATM    6  C           1     -35.686  -0.576 -12.096  0.00  0.00     0.209 C 
BRANCH   6   7
HETATM    7  C           1     -36.226   0.024 -13.388  0.00  0.00     0.200 C 
BRANCH   7   8
HETATM    8  O           1     -37.283  -0.764 -13.864  0.00  0.00    -0.398 OA
HETATM    9  H           1     -38.081  -0.359 -13.569  0.00  0.00     0.209 HD
ENDBRANCH   7   8
ENDBRANCH   6   7
BRANCH   6  10
HETATM   10  C           1     -36.693  -0.378 -10.989  0.00  0.00     0.198 C 
HETATM   11  O           1     -37.764  -1.020 -10.998  0.00  0.00    -0.646 OA
HETATM   12  O           1     -36.454   0.428 -10.064  0.00  0.00    -0.646 OA
ENDBRANCH   6  10
ENDBRANCH   3   6
ENDBRANCH   1   2
BRANCH   1  13
HETATM   13  C           1     -34.123  -4.772 -10.514  0.00  0.00     0.044 C 
BRANCH  13  14
HETATM   14  C           1     -33.956  -6.272 -10.717  0.00  0.00     0.030 C 
BRANCH  14  15
HETATM   15  C           1     -34.934  -7.019  -9.819  0.00  0.00     0.230 C 
BRANCH  15  16
HETATM   16  N           1     -34.449  -8.423  -9.610  0.00  0.00    -0.079 N 
HETATM   17  H           1     -33.424  -8.411  -9.409  0.00  0.00     0.274 HD
HETATM   18  H           1     -34.957  -8.849  -8.801  0.00  0.00     0.274 HD
HETATM   19  H           1     -34.631  -8.986 -10.470  0.00  0.00     0.274 HD
ENDBRANCH  15  16
ENDBRANCH  14  15
ENDBRANCH  13  14
ENDBRANCH   1  13
BRANCH   1  20
HETATM   20  N           1     -32.818  -4.273 -12.549  0.00  0.00    -0.067 N 
HETATM   21  H           1     -32.295  -3.369 -12.565  0.00  0.00     0.275 HD
HETATM   22  H           1     -32.262  -4.988 -12.028  0.00  0.00     0.275 HD
HETATM   23  H           1     -32.977  -4.602 -13.529  0.00  0.00     0.275 HD
ENDBRANCH   1  20
TORSDOF 10
ENDMDL
MODEL 3
REMARK VINA RESULT:      -5.7     13.271     14.647
REMARK  10 active torsions:
REMARK  status: ('A' for Active; 'I' for Inactive)
REMARK    1  A    between atoms: C_2  and  O_16 
REMARK    2  A    between atoms: C_2  and  C_10 
REMARK    3  A    between atoms: C_3  and  C_8 
REMARK    4  A    between atoms: C_3  and  C_15 
REMARK       I    between atoms: C_5  and  N_6 
REMARK    5  A    between atoms: C_5  and  C_11 
REMARK    6  A    between atoms: N_6  and  C_10 
REMARK    7  A    between atoms: C_8  and  C_11 
REMARK    8  A    between atoms: C_10  and  C_12 
REMARK    9  A    between atoms: C_11  and  N_13 
REMARK   10  A    between atoms: C_15  and  N_19 
ROOT
HETATM    1  C           1     -21.181  -5.878  -6.756  0.00  0.00     0.274 C 
ENDROOT
BRANCH   1   2
HETATM    2  C           1     -21.664  -4.656  -7.497  0.00  0.00     0.249 C 
HETATM    3  N           1     -22.364  -4.796  -8.665  0.00  0.00    -0.343 N 
HETATM    4  H           1     -22.558  -5.719  -9.031  0.00  0.00     0.163 HD
HETATM    5  O           1     -21.432  -3.553  -7.060  0.00  0.00    -0.271 OA
BRANCH   3   6
HETATM    6  C           1     -22.828  -3.621  -9.377  0.00  0.00     0.209 C 
BRANCH   6   7
HETATM    7  C           1     -22.071  -3.495 -10.693  0.00  0.00     0.200 C 
BRANCH   7   8
HETATM    8  O           1     -22.973  -3.201 -11.725  0.00  0.00    -0.398 OA
HETATM    9  H           1     -23.717  -3.767 -11.608  0.00  0.00     0.209 HD
ENDBRANCH   7   8
ENDBRANCH   6   7
BRANCH   6  10
HETATM   10  C           1     -24.305  -3.753  -9.656  0.00  0.00     0.198 C 
HETATM   11  O           1     -25.044  -2.747  -9.597  0.00  0.00    -0.646 OA
HETATM   12  O           1     -24.789  -4.868  -9.945  0.00  0.00    -0.646 OA
ENDBRANCH   6  10
ENDBRANCH   3   6
ENDBRANCH   1   2
BRANCH   1  13
HETATM   13  C           1     -21.093  -5.568  -5.266  0.00  0.00     0.044 C 
BRANCH  13  14
HETATM   14  C           1     -21.942  -6.565  -4.488  0.00  0.00     0.030 C 
BRANCH  14  15
HETATM   15  C           1     -21.438  -6.652  -3.053  0.00  0.00     0.230 C 
BRANCH  15  16
HETATM   16  N           1     -22.370  -5.898  -2.150  0.00  0.00    -0.079 N 
HETATM   17  H           1     -22.919  -5.211  -2.712  0.00  0.00     0.274 HD
HETATM   18  H           1     -23.023  -6.570  -1.686  0.00  0.00     0.274 HD
HETATM   19  H           1     -21.816  -5.393  -1.423  0.00  0.00     0.274 HD
ENDBRANCH  15  16
ENDBRANCH  14  15
ENDBRANCH  13  14
ENDBRANCH   1  13
BRANCH   1  20
HETATM   20  N           1     -19.825  -6.268  -7.265  0.00  0.00    -0.067 N 
HETATM   21  H           1     -19.105  -5.626  -6.863  0.00  0.00     0.275 HD
HETATM   22  H           1     -19.614  -7.251  -6.978  0.00  0.00     0.275 HD
HETATM   23  H           1     -19.812  -6.199  -8.308  0.00  0.00     0.275 HD
ENDBRANCH   1  20
TORSDOF 10
ENDMDL
MODEL 4
REMARK VINA RESULT:      -5.7      2.363      5.594
REMARK  10 active torsions:
REMARK  status: ('A' for Active; 'I' for Inactive)
REMARK    1  A    between atoms: C_2  and  O_16 
REMARK    2  A    between atoms: C_2  and  C_10 
REMARK    3  A    between atoms: C_3  and  C_8 
REMARK    4  A    between atoms: C_3  and  C_15 
REMARK       I    between atoms: C_5  and  N_6 
REMARK    5  A    between atoms: C_5  and  C_11 
REMARK    6  A    between atoms: N_6  and  C_10 
REMARK    7  A    between atoms: C_8  and  C_11 
REMARK    8  A    between atoms: C_10  and  C_12 
REMARK    9  A    between atoms: C_11  and  N_13 
REMARK   10  A    between atoms: C_15  and  N_19 
ROOT
HETATM    1  C           1     -36.174   0.107 -13.361  0.00  0.00     0.274 C 
ENDROOT
BRANCH   1   2
HETATM    2  C           1     -35.364  -1.167 -13.341  0.00  0.00     0.249 C 
HETATM    3  N           1     -35.056  -1.763 -12.147  0.00  0.00    -0.343 N 
HETATM    4  H           1     -35.370  -1.349 -11.279  0.00  0.00     0.163 HD
HETATM    5  O           1     -34.987  -1.660 -14.378  0.00  0.00    -0.271 OA
BRANCH   3   6
HETATM    6  C           1     -34.277  -2.986 -12.128  0.00  0.00     0.209 C 
BRANCH   6   7
HETATM    7  C           1     -33.107  -2.826 -11.167  0.00  0.00     0.200 C 
BRANCH   7   8
HETATM    8  O           1     -33.260  -1.639 -10.437  0.00  0.00    -0.398 OA
HETATM    9  H           1     -33.401  -0.949 -11.062  0.00  0.00     0.209 HD
ENDBRANCH   7   8
ENDBRANCH   6   7
BRANCH   6  10
HETATM   10  C           1     -35.151  -4.129 -11.672  0.00  0.00     0.198 C 
HETATM   11  O           1     -36.047  -3.931 -10.825  0.00  0.00    -0.646 OA
HETATM   12  O           1     -34.977  -5.274 -12.143  0.00  0.00    -0.646 OA
ENDBRANCH   6  10
ENDBRANCH   3   6
ENDBRANCH   1   2
BRANCH   1  13
HETATM   13  C           1     -37.560  -0.182 -13.925  0.00  0.00     0.044 C 
BRANCH  13  14
HETATM   14  C           1     -37.670   0.400 -15.328  0.00  0.00     0.030 C 
BRANCH  14  15
HETATM   15  C           1     -37.702  -0.732 -16.347  0.00  0.00     0.230 C 
BRANCH  15  16
HETATM   16  N           1     -36.386  -0.796 -17.066  0.00  0.00    -0.079 N 
HETATM   17  H           1     -36.150  -1.792 -17.271  0.00  0.00     0.274 HD
HETATM   18  H           1     -36.454  -0.262 -17.962  0.00  0.00     0.274 HD
HETATM   19  H           1     -35.641  -0.376 -16.466  0.00  0.00     0.274 HD
ENDBRANCH  15  16
ENDBRANCH  14  15
ENDBRANCH  13  14
ENDBRANCH   1  13
BRANCH   1  20
HETATM   20  N           1     -35.486   1.122 -14.224  0.00  0.00    -0.067 N 
HETATM   21  H           1     -34.726   1.587 -13.677  0.00  0.00     0.275 HD
HETATM   22  H           1     -35.072   0.648 -15.059  0.00  0.00     0.275 HD
HETATM   23  H           1     -36.178   1.839 -14.539  0.00  0.00     0.275 HD
ENDBRANCH   1  20
TORSDOF 10
ENDMDL
MODEL 5
REMARK VINA RESULT:      -5.7      1.585      2.035
REMARK  10 active torsions:
REMARK  status: ('A' for Active; 'I' for Inactive)
REMARK    1  A    between atoms: C_2  and  O_16 
REMARK    2  A    between atoms: C_2  and  C_10 
REMARK    3  A    between atoms: C_3  and  C_8 
REMARK    4  A    between atoms: C_3  and  C_15 
REMARK       I    between atoms: C_5  and  N_6 
REMARK    5  A    between atoms: C_5  and  C_11 
REMARK    6  A    between atoms: N_6  and  C_10 
REMARK    7  A    between atoms: C_8  and  C_11 
REMARK    8  A    between atoms: C_10  and  C_12 
REMARK    9  A    between atoms: C_11  and  N_13 
REMARK   10  A    between atoms: C_15  and  N_19 
ROOT
HETATM    1  C           1     -33.957  -3.805 -12.471  0.00  0.00     0.274 C 
ENDROOT
BRANCH   1   2
HETATM    2  C           1     -34.894  -2.642 -12.682  0.00  0.00     0.249 C 
HETATM    3  N           1     -34.708  -1.797 -13.744  0.00  0.00    -0.343 N 
HETATM    4  H           1     -33.942  -1.953 -14.386  0.00  0.00     0.163 HD
HETATM    5  O           1     -35.808  -2.455 -11.914  0.00  0.00    -0.271 OA
BRANCH   3   6
HETATM    6  C           1     -35.609  -0.679 -13.946  0.00  0.00     0.209 C 
BRANCH   6   7
HETATM    7  C           1     -35.030   0.564 -13.282  0.00  0.00     0.200 C 
BRANCH   7   8
HETATM    8  O           1     -35.373   0.571 -11.923  0.00  0.00    -0.398 OA
HETATM    9  H           1     -36.092  -0.029 -11.819  0.00  0.00     0.209 HD
ENDBRANCH   7   8
ENDBRANCH   6   7
BRANCH   6  10
HETATM   10  C           1     -35.774  -0.429 -15.425  0.00  0.00     0.198 C 
HETATM   11  O           1     -36.605   0.413 -15.827  0.00  0.00    -0.646 OA
HETATM   12  O           1     -35.079  -1.064 -16.248  0.00  0.00    -0.646 OA
ENDBRANCH   6  10
ENDBRANCH   3   6
ENDBRANCH   1   2
BRANCH   1  13
HETATM   13  C           1     -34.755  -5.027 -12.032  0.00  0.00     0.044 C 
BRANCH  13  14
HETATM   14  C           1     -34.312  -5.449 -10.637  0.00  0.00     0.030 C 
BRANCH  14  15
HETATM   15  C           1     -34.222  -6.968 -10.570  0.00  0.00     0.230 C 
BRANCH  15  16
HETATM   16  N           1     -35.106  -7.474  -9.468  0.00  0.00    -0.079 N 
HETATM   17  H           1     -34.890  -6.959  -8.585  0.00  0.00     0.274 HD
HETATM   18  H           1     -36.107  -7.318  -9.726  0.00  0.00     0.274 HD
HETATM   19  H           1     -34.937  -8.495  -9.327  0.00  0.00     0.274 HD
ENDBRANCH  15  16
ENDBRANCH  14  15
ENDBRANCH  13  14
ENDBRANCH   1  13
BRANCH   1  20
HETATM   20  N           1     -32.957  -3.455 -11.410  0.00  0.00    -0.067 N 
HETATM   21  H           1     -33.140  -4.028 -10.556  0.00  0.00     0.275 HD
HETATM   22  H           1     -31.992  -3.652 -11.761  0.00  0.00     0.275 HD
HETATM   23  H           1     -33.040  -2.440 -11.175  0.00  0.00     0.275 HD
ENDBRANCH   1  20
TORSDOF 10
ENDMDL
MODEL 6
REMARK VINA RESULT:      -5.6     13.246     15.000
REMARK  10 active torsions:
REMARK  status: ('A' for Active; 'I' for Inactive)
REMARK    1  A    between atoms: C_2  and  O_16 
REMARK    2  A    between atoms: C_2  and  C_10 
REMARK    3  A    between atoms: C_3  and  C_8 
REMARK    4  A    between atoms: C_3  and  C_15 
REMARK       I    between atoms: C_5  and  N_6 
REMARK    5  A    between atoms: C_5  and  C_11 
REMARK    6  A    between atoms: N_6  and  C_10 
REMARK    7  A    between atoms: C_8  and  C_11 
REMARK    8  A    between atoms: C_10  and  C_12 
REMARK    9  A    between atoms: C_11  and  N_13 
REMARK   10  A    between atoms: C_15  and  N_19 
ROOT
HETATM    1  C           1     -23.888  -3.853 -10.193  0.00  0.00     0.274 C 
ENDROOT
BRANCH   1   2
HETATM    2  C           1     -22.600  -4.451  -9.684  0.00  0.00     0.249 C 
HETATM    3  N           1     -22.432  -4.675  -8.343  0.00  0.00    -0.343 N 
HETATM    4  H           1     -23.171  -4.438  -7.695  0.00  0.00     0.163 HD
HETATM    5  O           1     -21.716  -4.733 -10.459  0.00  0.00    -0.271 OA
BRANCH   3   6
HETATM    6  C           1     -21.194  -5.250  -7.854  0.00  0.00     0.209 C 
BRANCH   6   7
HETATM    7  C           1     -20.216  -4.133  -7.516  0.00  0.00     0.200 C 
BRANCH   7   8
HETATM    8  O           1     -19.469  -4.491  -6.385  0.00  0.00    -0.398 OA
HETATM    9  H           1     -20.084  -4.669  -5.696  0.00  0.00     0.209 HD
ENDBRANCH   7   8
ENDBRANCH   6   7
BRANCH   6  10
HETATM   10  C           1     -21.474  -6.066  -6.616  0.00  0.00     0.198 C 
HETATM   11  O           1     -20.938  -7.185  -6.471  0.00  0.00    -0.646 OA
HETATM   12  O           1     -22.243  -5.621  -5.736  0.00  0.00    -0.646 OA
ENDBRANCH   6  10
ENDBRANCH   3   6
ENDBRANCH   1   2
BRANCH   1  13
HETATM   13  C           1     -23.576  -2.795 -11.245  0.00  0.00     0.044 C 
BRANCH  13  14
HETATM   14  C           1     -24.338  -3.112 -12.526  0.00  0.00     0.030 C 
BRANCH  14  15
HETATM   15  C           1     -23.390  -3.025 -13.716  0.00  0.00     0.230 C 
BRANCH  15  16
HETATM   16  N           1     -22.013  -3.442 -13.290  0.00  0.00    -0.079 N 
HETATM   17  H           1     -21.745  -2.924 -12.423  0.00  0.00     0.274 HD
HETATM   18  H           1     -22.005  -4.469 -13.098  0.00  0.00     0.274 HD
HETATM   19  H           1     -21.333  -3.225 -14.052  0.00  0.00     0.274 HD
ENDBRANCH  15  16
ENDBRANCH  14  15
ENDBRANCH  13  14
ENDBRANCH   1  13
BRANCH   1  20
HETATM   20  N           1     -24.629  -3.219  -9.053  0.00  0.00    -0.067 N 
HETATM   21  H           1     -25.654  -3.386  -9.170  0.00  0.00     0.275 HD
HETATM   22  H           1     -24.309  -3.640  -8.152  0.00  0.00     0.275 HD
HETATM   23  H           1     -24.441  -2.191  -9.044  0.00  0.00     0.275 HD
ENDBRANCH   1  20
TORSDOF 10
ENDMDL
MODEL 7
REMARK VINA RESULT:      -5.5      3.005      5.429
REMARK  10 active torsions:
REMARK  status: ('A' for Active; 'I' for Inactive)
REMARK    1  A    between atoms: C_2  and  O_16 
REMARK    2  A    between atoms: C_2  and  C_10 
REMARK    3  A    between atoms: C_3  and  C_8 
REMARK    4  A    between atoms: C_3  and  C_15 
REMARK       I    between atoms: C_5  and  N_6 
REMARK    5  A    between atoms: C_5  and  C_11 
REMARK    6  A    between atoms: N_6  and  C_10 
REMARK    7  A    between atoms: C_8  and  C_11 
REMARK    8  A    between atoms: C_10  and  C_12 
REMARK    9  A    between atoms: C_11  and  N_13 
REMARK   10  A    between atoms: C_15  and  N_19 
ROOT
HETATM    1  C           1     -36.398  -1.027 -10.794  0.00  0.00     0.274 C 
ENDROOT
BRANCH   1   2
HETATM    2  C           1     -35.204  -1.933 -10.621  0.00  0.00     0.249 C 
HETATM    3  N           1     -35.220  -3.195 -11.151  0.00  0.00    -0.343 N 
HETATM    4  H           1     -36.033  -3.521 -11.657  0.00  0.00     0.163 HD
HETATM    5  O           1     -34.233  -1.544 -10.016  0.00  0.00    -0.271 OA
BRANCH   3   6
HETATM    6  C           1     -34.072  -4.066 -10.985  0.00  0.00     0.209 C 
BRANCH   6   7
HETATM    7  C           1     -34.549  -5.481 -10.686  0.00  0.00     0.200 C 
BRANCH   7   8
HETATM    8  O           1     -34.520  -6.243 -11.863  0.00  0.00    -0.398 OA
HETATM    9  H           1     -34.876  -5.703 -12.548  0.00  0.00     0.209 HD
ENDBRANCH   7   8
ENDBRANCH   6   7
BRANCH   6  10
HETATM   10  C           1     -33.256  -4.066 -12.254  0.00  0.00     0.198 C 
HETATM   11  O           1     -32.068  -4.456 -12.232  0.00  0.00    -0.646 OA
HETATM   12  O           1     -33.767  -3.678 -13.327  0.00  0.00    -0.646 OA
ENDBRANCH   6  10
ENDBRANCH   3   6
ENDBRANCH   1   2
BRANCH   1  13
HETATM   13  C           1     -36.484  -0.570 -12.245  0.00  0.00     0.044 C 
BRANCH  13  14
HETATM   14  C           1     -35.385   0.448 -12.523  0.00  0.00     0.030 C 
BRANCH  14  15
HETATM   15  C           1     -34.960   0.350 -13.983  0.00  0.00     0.230 C 
BRANCH  15  16
HETATM   16  N           1     -35.037  -1.079 -14.432  0.00  0.00    -0.079 N 
HETATM   17  H           1     -34.208  -1.602 -14.072  0.00  0.00     0.274 HD
HETATM   18  H           1     -35.912  -1.513 -14.060  0.00  0.00     0.274 HD
HETATM   19  H           1     -35.047  -1.115 -15.476  0.00  0.00     0.274 HD
ENDBRANCH  15  16
ENDBRANCH  14  15
ENDBRANCH  13  14
ENDBRANCH   1  13
BRANCH   1  20
HETATM   20  N           1     -36.251   0.169  -9.901  0.00  0.00    -0.067 N 
HETATM   21  H           1     -35.953   0.994 -10.471  0.00  0.00     0.275 HD
HETATM   22  H           1     -37.166   0.377  -9.441  0.00  0.00     0.275 HD
HETATM   23  H           1     -35.531  -0.028  -9.170  0.00  0.00     0.275 HD
ENDBRANCH   1  20
TORSDOF 10
ENDMDL
MODEL 8
REMARK VINA RESULT:      -5.5     12.719     13.978
REMARK  10 active torsions:
REMARK  status: ('A' for Active; 'I' for Inactive)
REMARK    1  A    between atoms: C_2  and  O_16 
REMARK    2  A    between atoms: C_2  and  C_10 
REMARK    3  A    between atoms: C_3  and  C_8 
REMARK    4  A    between atoms: C_3  and  C_15 
REMARK       I    between atoms: C_5  and  N_6 
REMARK    5  A    between atoms: C_5  and  C_11 
REMARK    6  A    between atoms: N_6  and  C_10 
REMARK    7  A    between atoms: C_8  and  C_11 
REMARK    8  A    between atoms: C_10  and  C_12 
REMARK    9  A    between atoms: C_11  and  N_13 
REMARK   10  A    between atoms: C_15  and  N_19 
ROOT
HETATM    1  C           1     -22.039  -4.407  -7.137  0.00  0.00     0.274 C 
ENDROOT
BRANCH   1   2
HETATM    2  C           1     -21.916  -3.945  -8.568  0.00  0.00     0.249 C 
HETATM    3  N           1     -23.031  -3.865  -9.359  0.00  0.00    -0.343 N 
HETATM    4  H           1     -23.936  -4.116  -8.985  0.00  0.00     0.163 HD
HETATM    5  O           1     -20.835  -3.645  -9.016  0.00  0.00    -0.271 OA
BRANCH   3   6
HETATM    6  C           1     -22.912  -3.421 -10.735  0.00  0.00     0.209 C 
BRANCH   6   7
HETATM    7  C           1     -22.211  -4.495 -11.555  0.00  0.00     0.200 C 
BRANCH   7   8
HETATM    8  O           1     -21.618  -3.910 -12.683  0.00  0.00    -0.398 OA
HETATM    9  H           1     -20.693  -3.864 -12.513  0.00  0.00     0.209 HD
ENDBRANCH   7   8
ENDBRANCH   6   7
BRANCH   6  10
HETATM   10  C           1     -24.288  -3.172 -11.302  0.00  0.00     0.198 C 
HETATM   11  O           1     -25.288  -3.208 -10.554  0.00  0.00    -0.646 OA
HETATM   12  O           1     -24.427  -2.929 -12.520  0.00  0.00    -0.646 OA
ENDBRANCH   6  10
ENDBRANCH   3   6
ENDBRANCH   1   2
BRANCH   1  13
HETATM   13  C           1     -21.323  -5.742  -6.971  0.00  0.00     0.044 C 
BRANCH  13  14
HETATM   14  C           1     -20.739  -5.834  -5.567  0.00  0.00     0.030 C 
BRANCH  14  15
HETATM   15  C           1     -21.547  -6.830  -4.745  0.00  0.00     0.230 C 
BRANCH  15  16
HETATM   16  N           1     -22.133  -6.135  -3.551  0.00  0.00    -0.079 N 
HETATM   17  H           1     -22.467  -6.846  -2.864  0.00  0.00     0.274 HD
HETATM   18  H           1     -21.402  -5.536  -3.104  0.00  0.00     0.274 HD
HETATM   19  H           1     -22.934  -5.538  -3.855  0.00  0.00     0.274 HD
ENDBRANCH  15  16
ENDBRANCH  14  15
ENDBRANCH  13  14
ENDBRANCH   1  13
BRANCH   1  20
HETATM   20  N           1     -23.488  -4.571  -6.788  0.00  0.00    -0.067 N 
HETATM   21  H           1     -23.750  -5.581  -6.853  0.00  0.00     0.275 HD
HETATM   22  H           1     -23.653  -4.232  -5.813  0.00  0.00     0.275 HD
HETATM   23  H           1     -24.072  -4.015  -7.453  0.00  0.00     0.275 HD
ENDBRANCH   1  20
TORSDOF 10
ENDMDL
MODEL 9
REMARK VINA RESULT:      -5.3     13.250     14.466
REMARK  10 active torsions:
REMARK  status: ('A' for Active; 'I' for Inactive)
REMARK    1  A    between atoms: C_2  and  O_16 
REMARK    2  A    between atoms: C_2  and  C_10 
REMARK    3  A    between atoms: C_3  and  C_8 
REMARK    4  A    between atoms: C_3  and  C_15 
REMARK       I    between atoms: C_5  and  N_6 
REMARK    5  A    between atoms: C_5  and  C_11 
REMARK    6  A    between atoms: N_6  and  C_10 
REMARK    7  A    between atoms: C_8  and  C_11 
REMARK    8  A    between atoms: C_10  and  C_12 
REMARK    9  A    between atoms: C_11  and  N_13 
REMARK   10  A    between atoms: C_15  and  N_19 
ROOT
HETATM    1  C           1     -20.374  -5.269  -8.079  0.00  0.00     0.274 C 
ENDROOT
BRANCH   1   2
HETATM    2  C           1     -21.348  -4.288  -8.685  0.00  0.00     0.249 C 
HETATM    3  N           1     -21.624  -4.336 -10.025  0.00  0.00    -0.343 N 
HETATM    4  H           1     -21.174  -5.029 -10.609  0.00  0.00     0.163 HD
HETATM    5  O           1     -21.884  -3.460  -7.987  0.00  0.00    -0.271 OA
BRANCH   3   6
HETATM    6  C           1     -22.560  -3.394 -10.607  0.00  0.00     0.209 C 
BRANCH   6   7
HETATM    7  C           1     -22.101  -3.026 -12.012  0.00  0.00     0.200 C 
BRANCH   7   8
HETATM    8  O           1     -22.824  -3.775 -12.951  0.00  0.00    -0.398 OA
HETATM    9  H           1     -22.849  -3.268 -13.744  0.00  0.00     0.209 HD
ENDBRANCH   7   8
ENDBRANCH   6   7
BRANCH   6  10
HETATM   10  C           1     -23.930  -4.023 -10.673  0.00  0.00     0.198 C 
HETATM   11  O           1     -24.941  -3.304 -10.818  0.00  0.00    -0.646 OA
HETATM   12  O           1     -24.053  -5.264 -10.584  0.00  0.00    -0.646 OA
ENDBRANCH   6  10
ENDBRANCH   3   6
ENDBRANCH   1   2
BRANCH   1  13
HETATM   13  C           1     -21.055  -6.028  -6.947  0.00  0.00     0.044 C 
BRANCH  13  14
HETATM   14  C           1     -20.465  -5.588  -5.613  0.00  0.00     0.030 C 
BRANCH  14  15
HETATM   15  C           1     -20.961  -6.512  -4.508  0.00  0.00     0.230 C 
BRANCH  15  16
HETATM   16  N           1     -22.425  -6.277  -4.278  0.00  0.00    -0.079 N 
HETATM   17  H           1     -22.704  -5.371  -4.717  0.00  0.00     0.274 HD
HETATM   18  H           1     -22.974  -7.055  -4.708  0.00  0.00     0.274 HD
HETATM   19  H           1     -22.615  -6.242  -3.252  0.00  0.00     0.274 HD
ENDBRANCH  15  16
ENDBRANCH  14  15
ENDBRANCH  13  14
ENDBRANCH   1  13
BRANCH   1  20
HETATM   20  N           1     -19.188  -4.525  -7.540  0.00  0.00    -0.067 N 
HETATM   21  H           1     -18.784  -5.053  -6.733  0.00  0.00     0.275 HD
HETATM   22  H           1     -18.466  -4.430  -8.289  0.00  0.00     0.275 HD
HETATM   23  H           1     -19.487  -3.576  -7.221  0.00  0.00     0.275 HD
ENDBRANCH   1  20
TORSDOF 10
ENDMDL
