MODEL 1
REMARK VINA RESULT:      -6.8      0.000      0.000
REMARK  8 active torsions:
REMARK  status: ('A' for Active; 'I' for Inactive)
REMARK    1  A    between atoms: N_1  and  C_6 
REMARK       I    between atoms: N_1  and  C_3 
REMARK    2  A    between atoms: C_3  and  C_9 
REMARK    3  A    between atoms: N_4  and  C_9 
REMARK    4  A    between atoms: C_5  and  C_8 
REMARK    5  A    between atoms: C_5  and  C_6 
REMARK    6  A    between atoms: C_6  and  C_17 
REMARK    7  A    between atoms: C_8  and  C_20 
REMARK    8  A    between atoms: C_9  and  C_18 
ROOT
HETATM    1  N           1     -22.175  -4.850  -9.366  0.00  0.00    -0.345 N 
HETATM    2  C           1     -21.933  -4.670  -8.030  0.00  0.00     0.249 C 
HETATM    3  H           1     -21.913  -5.718  -9.815  0.00  0.00     0.163 HD
HETATM    4  O           1     -22.246  -3.634  -7.494  0.00  0.00    -0.271 OA
ENDROOT
BRANCH   1   5
HETATM    5  C           1     -22.808  -3.798 -10.136  0.00  0.00     0.186 C 
BRANCH   5   6
HETATM    6  C           1     -22.531  -4.017 -11.618  0.00  0.00     0.046 C 
BRANCH   6   7
HETATM    7  C           1     -22.685  -2.698 -12.364  0.00  0.00     0.116 C 
BRANCH   7   8
HETATM    8  C           1     -23.744  -2.844 -13.430  0.00  0.00     0.172 C 
HETATM    9  O           1     -23.412  -3.020 -14.622  0.00  0.00    -0.648 OA
HETATM   10  O           1     -24.953  -2.788 -13.120  0.00  0.00    -0.648 OA
ENDBRANCH   7   8
ENDBRANCH   6   7
ENDBRANCH   5   6
BRANCH   5  11
HETATM   11  C           1     -24.297  -3.822  -9.893  0.00  0.00     0.196 C 
HETATM   12  O           1     -24.924  -4.900  -9.963  0.00  0.00    -0.646 OA
HETATM   13  O           1     -24.903  -2.762  -9.622  0.00  0.00    -0.646 OA
ENDBRANCH   5  11
ENDBRANCH   1   5
BRANCH   2  14
HETATM   14  C           1     -21.275  -5.765  -7.228  0.00  0.00     0.278 C 
BRANCH  14  15
HETATM   15  N           1     -19.852  -5.927  -7.676  0.00  0.00    -0.066 N 
HETATM   16  H           1     -19.493  -6.858  -7.367  0.00  0.00     0.275 HD
HETATM   17  H           1     -19.807  -5.863  -8.718  0.00  0.00     0.275 HD
HETATM   18  H           1     -19.267  -5.170  -7.255  0.00  0.00     0.275 HD
ENDBRANCH  14  15
BRANCH  14  19
HETATM   19  C           1     -21.303  -5.400  -5.750  0.00  0.00     0.017 C 
HETATM   20  C           1     -19.991  -4.728  -5.368  0.00  0.00     0.012 C 
HETATM   21  C           1     -21.486  -6.663  -4.919  0.00  0.00     0.012 C 
ENDBRANCH  14  19
ENDBRANCH   2  14
TORSDOF 8
ENDMDL
MODEL 2
REMARK VINA RESULT:      -6.1      9.957     11.718
REMARK  8 active torsions:
REMARK  status: ('A' for Active; 'I' for Inactive)
REMARK    1  A    between atoms: N_1  and  C_6 
REMARK       I    between atoms: N_1  and  C_3 
REMARK    2  A    between atoms: C_3  and  C_9 
REMARK    3  A    between atoms: N_4  and  C_9 
REMARK    4  A    between atoms: C_5  and  C_8 
REMARK    5  A    between atoms: C_5  and  C_6 
REMARK    6  A    between atoms: C_6  and  C_17 
REMARK    7  A    between atoms: C_8  and  C_20 
REMARK    8  A    between atoms: C_9  and  C_18 
ROOT
HETATM    1  N           1     -28.011  -6.871 -18.648  0.00  0.00    -0.345 N 
HETATM    2  C           1     -26.934  -6.446 -17.917  0.00  0.00     0.249 C 
HETATM    3  H           1     -27.891  -7.134 -19.618  0.00  0.00     0.163 HD
HETATM    4  O           1     -27.077  -6.133 -16.759  0.00  0.00    -0.271 OA
ENDROOT
BRANCH   1   5
HETATM    5  C           1     -29.321  -6.947 -18.033  0.00  0.00     0.186 C 
BRANCH   5   6
HETATM    6  C           1     -29.993  -5.582 -18.101  0.00  0.00     0.046 C 
BRANCH   6   7
HETATM    7  C           1     -30.834  -5.366 -16.850  0.00  0.00     0.116 C 
BRANCH   7   8
HETATM    8  C           1     -31.714  -4.154 -17.037  0.00  0.00     0.172 C 
HETATM    9  O           1     -31.279  -3.155 -17.651  0.00  0.00    -0.648 OA
HETATM   10  O           1     -32.876  -4.148 -16.579  0.00  0.00    -0.648 OA
ENDBRANCH   7   8
ENDBRANCH   6   7
ENDBRANCH   5   6
BRANCH   5  11
HETATM   11  C           1     -30.164  -7.961 -18.768  0.00  0.00     0.196 C 
HETATM   12  O           1     -31.406  -7.834 -18.801  0.00  0.00    -0.646 OA
HETATM   13  O           1     -29.618  -8.929 -19.341  0.00  0.00    -0.646 OA
ENDBRANCH   5  11
ENDBRANCH   1   5
BRANCH   2  14
HETATM   14  C           1     -25.570  -6.368 -18.557  0.00  0.00     0.278 C 
BRANCH  14  15
HETATM   15  N           1     -24.585  -7.140 -17.731  0.00  0.00    -0.066 N 
HETATM   16  H           1     -24.198  -7.929 -18.297  0.00  0.00     0.275 HD
HETATM   17  H           1     -23.807  -6.507 -17.437  0.00  0.00     0.275 HD
HETATM   18  H           1     -25.065  -7.520 -16.884  0.00  0.00     0.275 HD
ENDBRANCH  14  15
BRANCH  14  19
HETATM   19  C           1     -25.632  -6.960 -19.959  0.00  0.00     0.017 C 
HETATM   20  C           1     -24.396  -7.815 -20.204  0.00  0.00     0.012 C 
HETATM   21  C           1     -25.680  -5.835 -20.984  0.00  0.00     0.012 C 
ENDBRANCH  14  19
ENDBRANCH   2  14
TORSDOF 8
ENDMDL
MODEL 3
REMARK VINA RESULT:      -6.0      2.562      7.012
REMARK  8 active torsions:
REMARK  status: ('A' for Active; 'I' for Inactive)
REMARK    1  A    between atoms: N_1  and  C_6 
REMARK       I    between atoms: N_1  and  C_3 
REMARK    2  A    between atoms: C_3  and  C_9 
REMARK    3  A    between atoms: N_4  and  C_9 
REMARK    4  A    between atoms: C_5  and  C_8 
REMARK    5  A    between atoms: C_5  and  C_6 
REMARK    6  A    between atoms: C_6  and  C_17 
REMARK    7  A    between atoms: C_8  and  C_20 
REMARK    8  A    between atoms: C_9  and  C_18 
ROOT
HETATM    1  N           1     -21.441  -5.379  -7.985  0.00  0.00    -0.345 N 
HETATM    2  C           1     -22.418  -4.654  -8.611  0.00  0.00     0.249 C 
HETATM    3  H           1     -20.808  -5.951  -8.530  0.00  0.00     0.163 HD
HETATM    4  O           1     -23.173  -3.971  -7.960  0.00  0.00    -0.271 OA
ENDROOT
BRANCH   1   5
HETATM    5  C           1     -21.310  -5.328  -6.542  0.00  0.00     0.186 C 
BRANCH   5   6
HETATM    6  C           1     -21.413  -6.736  -5.972  0.00  0.00     0.046 C 
BRANCH   6   7
HETATM    7  C           1     -22.483  -6.771  -4.889  0.00  0.00     0.116 C 
BRANCH   7   8
HETATM    8  C           1     -21.828  -6.693  -3.532  0.00  0.00     0.172 C 
HETATM    9  O           1     -22.315  -5.961  -2.644  0.00  0.00    -0.648 OA
HETATM   10  O           1     -20.798  -7.360  -3.296  0.00  0.00    -0.648 OA
ENDBRANCH   7   8
ENDBRANCH   6   7
ENDBRANCH   5   6
BRANCH   5  11
HETATM   11  C           1     -19.972  -4.733  -6.179  0.00  0.00     0.196 C 
HETATM   12  O           1     -19.744  -4.381  -5.002  0.00  0.00    -0.646 OA
HETATM   13  O           1     -19.092  -4.592  -7.056  0.00  0.00    -0.646 OA
ENDBRANCH   5  11
ENDBRANCH   1   5
BRANCH   2  14
HETATM   14  C           1     -22.554  -4.707 -10.113  0.00  0.00     0.278 C 
BRANCH  14  15
HETATM   15  N           1     -24.007  -4.711 -10.484  0.00  0.00    -0.066 N 
HETATM   16  H           1     -24.134  -4.228 -11.401  0.00  0.00     0.275 HD
HETATM   17  H           1     -24.343  -5.697 -10.560  0.00  0.00     0.275 HD
HETATM   18  H           1     -24.555  -4.212  -9.747  0.00  0.00     0.275 HD
ENDBRANCH  14  15
BRANCH  14  19
HETATM   19  C           1     -21.876  -3.490 -10.728  0.00  0.00     0.017 C 
HETATM   20  C           1     -22.670  -3.026 -11.941  0.00  0.00     0.012 C 
HETATM   21  C           1     -20.463  -3.860 -11.158  0.00  0.00     0.012 C 
ENDBRANCH  14  19
ENDBRANCH   2  14
TORSDOF 8
ENDMDL
MODEL 4
REMARK VINA RESULT:      -5.8      5.752      8.510
REMARK  8 active torsions:
REMARK  status: ('A' for Active; 'I' for Inactive)
REMARK    1  A    between atoms: N_1  and  C_6 
REMARK       I    between atoms: N_1  and  C_3 
REMARK    2  A    between atoms: C_3  and  C_9 
REMARK    3  A    between atoms: N_4  and  C_9 
REMARK    4  A    between atoms: C_5  and  C_8 
REMARK    5  A    between atoms: C_5  and  C_6 
REMARK    6  A    between atoms: C_6  and  C_17 
REMARK    7  A    between atoms: C_8  and  C_20 
REMARK    8  A    between atoms: C_9  and  C_18 
ROOT
HETATM    1  N           1     -21.684  -8.311  -4.409  0.00  0.00    -0.345 N 
HETATM    2  C           1     -20.869  -7.822  -5.395  0.00  0.00     0.249 C 
HETATM    3  H           1     -22.590  -7.891  -4.248  0.00  0.00     0.163 HD
HETATM    4  O           1     -19.787  -8.324  -5.587  0.00  0.00    -0.271 OA
ENDROOT
BRANCH   1   5
HETATM    5  C           1     -21.249  -9.431  -3.597  0.00  0.00     0.186 C 
BRANCH   5   6
HETATM    6  C           1     -21.558  -9.146  -2.133  0.00  0.00     0.046 C 
BRANCH   6   7
HETATM    7  C           1     -21.004  -7.779  -1.753  0.00  0.00     0.116 C 
BRANCH   7   8
HETATM    8  C           1     -22.145  -6.816  -1.536  0.00  0.00     0.172 C 
HETATM    9  O           1     -22.831  -6.884  -0.494  0.00  0.00    -0.648 OA
HETATM   10  O           1     -22.404  -5.950  -2.400  0.00  0.00    -0.648 OA
ENDBRANCH   7   8
ENDBRANCH   6   7
ENDBRANCH   5   6
BRANCH   5  11
HETATM   11  C           1     -21.976 -10.679  -4.032  0.00  0.00     0.196 C 
HETATM   12  O           1     -21.586 -11.311  -5.037  0.00  0.00    -0.646 OA
HETATM   13  O           1     -22.969 -11.081  -3.387  0.00  0.00    -0.646 OA
ENDBRANCH   5  11
ENDBRANCH   1   5
BRANCH   2  14
HETATM   14  C           1     -21.322  -6.657  -6.240  0.00  0.00     0.278 C 
BRANCH  14  15
HETATM   15  N           1     -22.315  -5.837  -5.471  0.00  0.00    -0.066 N 
HETATM   16  H           1     -23.029  -6.467  -5.041  0.00  0.00     0.275 HD
HETATM   17  H           1     -21.819  -5.308  -4.718  0.00  0.00     0.275 HD
HETATM   18  H           1     -22.786  -5.165  -6.118  0.00  0.00     0.275 HD
ENDBRANCH  14  15
BRANCH  14  19
HETATM   19  C           1     -20.121  -5.794  -6.601  0.00  0.00     0.017 C 
HETATM   20  C           1     -20.031  -4.620  -5.635  0.00  0.00     0.012 C 
HETATM   21  C           1     -20.280  -5.270  -8.021  0.00  0.00     0.012 C 
ENDBRANCH  14  19
ENDBRANCH   2  14
TORSDOF 8
ENDMDL
MODEL 5
REMARK VINA RESULT:      -5.8      2.986      4.991
REMARK  8 active torsions:
REMARK  status: ('A' for Active; 'I' for Inactive)
REMARK    1  A    between atoms: N_1  and  C_6 
REMARK       I    between atoms: N_1  and  C_3 
REMARK    2  A    between atoms: C_3  and  C_9 
REMARK    3  A    between atoms: N_4  and  C_9 
REMARK    4  A    between atoms: C_5  and  C_8 
REMARK    5  A    between atoms: C_5  and  C_6 
REMARK    6  A    between atoms: C_6  and  C_17 
REMARK    7  A    between atoms: C_8  and  C_20 
REMARK    8  A    between atoms: C_9  and  C_18 
ROOT
HETATM    1  N           1     -21.075  -5.559  -5.144  0.00  0.00    -0.345 N 
HETATM    2  C           1     -21.596  -6.551  -4.357  0.00  0.00     0.249 C 
HETATM    3  H           1     -20.518  -4.824  -4.728  0.00  0.00     0.163 HD
HETATM    4  O           1     -22.261  -7.429  -4.854  0.00  0.00    -0.271 OA
ENDROOT
BRANCH   1   5
HETATM    5  C           1     -21.322  -5.562  -6.572  0.00  0.00     0.186 C 
BRANCH   5   6
HETATM    6  C           1     -21.880  -4.209  -6.994  0.00  0.00     0.046 C 
BRANCH   6   7
HETATM    7  C           1     -23.309  -4.382  -7.491  0.00  0.00     0.116 C 
BRANCH   7   8
HETATM    8  C           1     -23.379  -4.024  -8.956  0.00  0.00     0.172 C 
HETATM    9  O           1     -24.312  -3.309  -9.381  0.00  0.00    -0.648 OA
HETATM   10  O           1     -22.504  -4.444  -9.743  0.00  0.00    -0.648 OA
ENDBRANCH   7   8
ENDBRANCH   6   7
ENDBRANCH   5   6
BRANCH   5  11
HETATM   11  C           1     -20.029  -5.824  -7.305  0.00  0.00     0.196 C 
HETATM   12  O           1     -19.376  -6.862  -7.068  0.00  0.00    -0.646 OA
HETATM   13  O           1     -19.611  -5.000  -8.148  0.00  0.00    -0.646 OA
ENDBRANCH   5  11
ENDBRANCH   1   5
BRANCH   2  14
HETATM   14  C           1     -21.339  -6.549  -2.870  0.00  0.00     0.278 C 
BRANCH  14  15
HETATM   15  N           1     -22.416  -5.767  -2.178  0.00  0.00    -0.066 N 
HETATM   16  H           1     -23.344  -6.210  -2.366  0.00  0.00     0.275 HD
HETATM   17  H           1     -22.234  -5.761  -1.150  0.00  0.00     0.275 HD
HETATM   18  H           1     -22.419  -4.786  -2.538  0.00  0.00     0.275 HD
ENDBRANCH  14  15
BRANCH  14  19
HETATM   19  C           1     -21.339  -7.981  -2.352  0.00  0.00     0.017 C 
HETATM   20  C           1     -21.922  -8.012  -0.945  0.00  0.00     0.012 C 
HETATM   21  C           1     -19.911  -8.509  -2.320  0.00  0.00     0.012 C 
ENDBRANCH  14  19
ENDBRANCH   2  14
TORSDOF 8
ENDMDL
MODEL 6
REMARK VINA RESULT:      -5.8      3.797      7.891
REMARK  8 active torsions:
REMARK  status: ('A' for Active; 'I' for Inactive)
REMARK    1  A    between atoms: N_1  and  C_6 
REMARK       I    between atoms: N_1  and  C_3 
REMARK    2  A    between atoms: C_3  and  C_9 
REMARK    3  A    between atoms: N_4  and  C_9 
REMARK    4  A    between atoms: C_5  and  C_8 
REMARK    5  A    between atoms: C_5  and  C_6 
REMARK    6  A    between atoms: C_6  and  C_17 
REMARK    7  A    between atoms: C_8  and  C_20 
REMARK    8  A    between atoms: C_9  and  C_18 
ROOT
HETATM    1  N           1     -21.578  -6.349  -6.312  0.00  0.00    -0.345 N 
HETATM    2  C           1     -21.567  -5.090  -6.849  0.00  0.00     0.249 C 
HETATM    3  H           1     -22.063  -7.098  -6.789  0.00  0.00     0.163 HD
HETATM    4  O           1     -20.988  -4.196  -6.279  0.00  0.00    -0.271 OA
ENDROOT
BRANCH   1   5
HETATM    5  C           1     -20.895  -6.610  -5.060  0.00  0.00     0.186 C 
BRANCH   5   6
HETATM    6  C           1     -21.918  -6.965  -3.988  0.00  0.00     0.046 C 
BRANCH   6   7
HETATM    7  C           1     -21.639  -6.153  -2.730  0.00  0.00     0.116 C 
BRANCH   7   8
HETATM    8  C           1     -21.820  -7.030  -1.515  0.00  0.00     0.172 C 
HETATM    9  O           1     -21.011  -7.955  -1.285  0.00  0.00    -0.648 OA
HETATM   10  O           1     -22.778  -6.830  -0.739  0.00  0.00    -0.648 OA
ENDBRANCH   7   8
ENDBRANCH   6   7
ENDBRANCH   5   6
BRANCH   5  11
HETATM   11  C           1     -19.935  -7.760  -5.241  0.00  0.00     0.196 C 
HETATM   12  O           1     -19.841  -8.640  -4.359  0.00  0.00    -0.646 OA
HETATM   13  O           1     -19.233  -7.831  -6.273  0.00  0.00    -0.646 OA
ENDBRANCH   5  11
ENDBRANCH   1   5
BRANCH   2  14
HETATM   14  C           1     -22.277  -4.819  -8.152  0.00  0.00     0.278 C 
BRANCH  14  15
HETATM   15  N           1     -23.556  -4.083  -7.881  0.00  0.00    -0.066 N 
HETATM   16  H           1     -24.022  -3.849  -8.786  0.00  0.00     0.275 HD
HETATM   17  H           1     -24.189  -4.686  -7.308  0.00  0.00     0.275 HD
HETATM   18  H           1     -23.346  -3.203  -7.358  0.00  0.00     0.275 HD
ENDBRANCH  14  15
BRANCH  14  19
HETATM   19  C           1     -21.386  -3.973  -9.050  0.00  0.00     0.017 C 
HETATM   20  C           1     -22.156  -3.577 -10.304  0.00  0.00     0.012 C 
HETATM   21  C           1     -20.154  -4.776  -9.445  0.00  0.00     0.012 C 
ENDBRANCH  14  19
ENDBRANCH   2  14
TORSDOF 8
ENDMDL
MODEL 7
REMARK VINA RESULT:      -5.7      5.633      8.226
REMARK  8 active torsions:
REMARK  status: ('A' for Active; 'I' for Inactive)
REMARK    1  A    between atoms: N_1  and  C_6 
REMARK       I    between atoms: N_1  and  C_3 
REMARK    2  A    between atoms: C_3  and  C_9 
REMARK    3  A    between atoms: N_4  and  C_9 
REMARK    4  A    between atoms: C_5  and  C_8 
REMARK    5  A    between atoms: C_5  and  C_6 
REMARK    6  A    between atoms: C_6  and  C_17 
REMARK    7  A    between atoms: C_8  and  C_20 
REMARK    8  A    between atoms: C_9  and  C_18 
ROOT
HETATM    1  N           1     -20.550  -8.284  -3.198  0.00  0.00    -0.345 N 
HETATM    2  C           1     -21.291  -8.716  -2.131  0.00  0.00     0.249 C 
HETATM    3  H           1     -20.067  -7.396  -3.153  0.00  0.00     0.163 HD
HETATM    4  O           1     -21.867  -9.776  -2.185  0.00  0.00    -0.271 OA
ENDROOT
BRANCH   1   5
HETATM    5  C           1     -20.456  -9.100  -4.393  0.00  0.00     0.186 C 
BRANCH   5   6
HETATM    6  C           1     -21.170  -8.401  -5.542  0.00  0.00     0.046 C 
BRANCH   6   7
HETATM    7  C           1     -20.769  -6.933  -5.573  0.00  0.00     0.116 C 
BRANCH   7   8
HETATM    8  C           1     -21.972  -6.075  -5.268  0.00  0.00     0.172 C 
HETATM    9  O           1     -22.545  -6.172  -4.161  0.00  0.00    -0.648 OA
HETATM   10  O           1     -22.396  -5.267  -6.121  0.00  0.00    -0.648 OA
ENDBRANCH   7   8
ENDBRANCH   6   7
ENDBRANCH   5   6
BRANCH   5  11
HETATM   11  C           1     -19.004  -9.302  -4.751  0.00  0.00     0.196 C 
HETATM   12  O           1     -18.685  -9.599  -5.921  0.00  0.00    -0.646 OA
HETATM   13  O           1     -18.121  -9.173  -3.875  0.00  0.00    -0.646 OA
ENDBRANCH   5  11
ENDBRANCH   1   5
BRANCH   2  14
HETATM   14  C           1     -21.389  -7.867  -0.887  0.00  0.00     0.278 C 
BRANCH  14  15
HETATM   15  N           1     -22.253  -6.673  -1.163  0.00  0.00    -0.066 N 
HETATM   16  H           1     -21.901  -5.854  -0.618  0.00  0.00     0.275 HD
HETATM   17  H           1     -22.223  -6.451  -2.184  0.00  0.00     0.275 HD
HETATM   18  H           1     -23.237  -6.884  -0.881  0.00  0.00     0.275 HD
ENDBRANCH  14  15
BRANCH  14  19
HETATM   19  C           1     -22.000  -8.687   0.241  0.00  0.00     0.017 C 
HETATM   20  C           1     -23.310  -8.047   0.681  0.00  0.00     0.012 C 
HETATM   21  C           1     -21.036  -8.729   1.418  0.00  0.00     0.012 C 
ENDBRANCH  14  19
ENDBRANCH   2  14
TORSDOF 8
ENDMDL
MODEL 8
REMARK VINA RESULT:      -5.5      6.500      9.362
REMARK  8 active torsions:
REMARK  status: ('A' for Active; 'I' for Inactive)
REMARK    1  A    between atoms: N_1  and  C_6 
REMARK       I    between atoms: N_1  and  C_3 
REMARK    2  A    between atoms: C_3  and  C_9 
REMARK    3  A    between atoms: N_4  and  C_9 
REMARK    4  A    between atoms: C_5  and  C_8 
REMARK    5  A    between atoms: C_5  and  C_6 
REMARK    6  A    between atoms: C_6  and  C_17 
REMARK    7  A    between atoms: C_8  and  C_20 
REMARK    8  A    between atoms: C_9  and  C_18 
ROOT
HETATM    1  N           1     -21.712  -9.211  -1.656  0.00  0.00    -0.345 N 
HETATM    2  C           1     -21.438 -10.084  -0.637  0.00  0.00     0.249 C 
HETATM    3  H           1     -22.271  -9.513  -2.444  0.00  0.00     0.163 HD
HETATM    4  O           1     -20.770  -9.723   0.303  0.00  0.00    -0.271 OA
ENDROOT
BRANCH   1   5
HETATM    5  C           1     -21.202  -7.855  -1.607  0.00  0.00     0.186 C 
BRANCH   5   6
HETATM    6  C           1     -20.685  -7.457  -2.983  0.00  0.00     0.046 C 
BRANCH   6   7
HETATM    7  C           1     -21.471  -8.199  -4.056  0.00  0.00     0.116 C 
BRANCH   7   8
HETATM    8  C           1     -21.780  -7.257  -5.195  0.00  0.00     0.172 C 
HETATM    9  O           1     -22.584  -6.316  -5.026  0.00  0.00    -0.648 OA
HETATM   10  O           1     -21.232  -7.420  -6.306  0.00  0.00    -0.648 OA
ENDBRANCH   7   8
ENDBRANCH   6   7
ENDBRANCH   5   6
BRANCH   5  11
HETATM   11  C           1     -22.309  -6.917  -1.193  0.00  0.00     0.196 C 
HETATM   12  O           1     -22.466  -5.832  -1.794  0.00  0.00    -0.646 OA
HETATM   13  O           1     -23.068  -7.224  -0.249  0.00  0.00    -0.646 OA
ENDBRANCH   5  11
ENDBRANCH   1   5
BRANCH   2  14
HETATM   14  C           1     -21.968 -11.495  -0.688  0.00  0.00     0.278 C 
BRANCH  14  15
HETATM   15  N           1     -21.760 -12.156   0.642  0.00  0.00    -0.066 N 
HETATM   16  H           1     -21.227 -13.045   0.510  0.00  0.00     0.275 HD
HETATM   17  H           1     -21.220 -11.516   1.267  0.00  0.00     0.275 HD
HETATM   18  H           1     -22.688 -12.366   1.075  0.00  0.00     0.275 HD
ENDBRANCH  14  15
BRANCH  14  19
HETATM   19  C           1     -23.456 -11.467  -1.014  0.00  0.00     0.017 C 
HETATM   20  C           1     -24.198 -10.692   0.066  0.00  0.00     0.012 C 
HETATM   21  C           1     -23.989 -12.892  -1.071  0.00  0.00     0.012 C 
ENDBRANCH  14  19
ENDBRANCH   2  14
TORSDOF 8
ENDMDL
MODEL 9
REMARK VINA RESULT:      -5.3      4.146      7.870
REMARK  8 active torsions:
REMARK  status: ('A' for Active; 'I' for Inactive)
REMARK    1  A    between atoms: N_1  and  C_6 
REMARK       I    between atoms: N_1  and  C_3 
REMARK    2  A    between atoms: C_3  and  C_9 
REMARK    3  A    between atoms: N_4  and  C_9 
REMARK    4  A    between atoms: C_5  and  C_8 
REMARK    5  A    between atoms: C_5  and  C_6 
REMARK    6  A    between atoms: C_6  and  C_17 
REMARK    7  A    between atoms: C_8  and  C_20 
REMARK    8  A    between atoms: C_9  and  C_18 
ROOT
HETATM    1  N           1     -20.954  -6.399  -4.972  0.00  0.00    -0.345 N 
HETATM    2  C           1     -21.684  -5.563  -5.773  0.00  0.00     0.249 C 
HETATM    3  H           1     -19.944  -6.348  -4.975  0.00  0.00     0.163 HD
HETATM    4  O           1     -22.891  -5.624  -5.769  0.00  0.00    -0.271 OA
ENDROOT
BRANCH   1   5
HETATM    5  C           1     -21.628  -7.357  -4.118  0.00  0.00     0.186 C 
BRANCH   5   6
HETATM    6  C           1     -20.908  -8.697  -4.190  0.00  0.00     0.046 C 
BRANCH   6   7
HETATM    7  C           1     -19.599  -8.531  -4.951  0.00  0.00     0.116 C 
BRANCH   7   8
HETATM    8  C           1     -18.515  -9.329  -4.269  0.00  0.00     0.172 C 
HETATM    9  O           1     -17.816 -10.127  -4.930  0.00  0.00    -0.648 OA
HETATM   10  O           1     -18.316  -9.191  -3.043  0.00  0.00    -0.648 OA
ENDBRANCH   7   8
ENDBRANCH   6   7
ENDBRANCH   5   6
BRANCH   5  11
HETATM   11  C           1     -21.619  -6.856  -2.695  0.00  0.00     0.196 C 
HETATM   12  O           1     -20.842  -7.364  -1.858  0.00  0.00    -0.646 OA
HETATM   13  O           1     -22.389  -5.932  -2.353  0.00  0.00    -0.646 OA
ENDBRANCH   5  11
ENDBRANCH   1   5
BRANCH   2  14
HETATM   14  C           1     -20.983  -4.566  -6.662  0.00  0.00     0.278 C 
BRANCH  14  15
HETATM   15  N           1     -19.499  -4.699  -6.488  0.00  0.00    -0.066 N 
HETATM   16  H           1     -19.171  -4.021  -5.763  0.00  0.00     0.275 HD
HETATM   17  H           1     -19.270  -5.672  -6.184  0.00  0.00     0.275 HD
HETATM   18  H           1     -19.023  -4.495  -7.396  0.00  0.00     0.275 HD
ENDBRANCH  14  15
BRANCH  14  19
HETATM   19  C           1     -21.349  -4.835  -8.115  0.00  0.00     0.017 C 
HETATM   20  C           1     -20.095  -4.768  -8.976  0.00  0.00     0.012 C 
HETATM   21  C           1     -22.345  -3.785  -8.590  0.00  0.00     0.012 C 
ENDBRANCH  14  19
ENDBRANCH   2  14
TORSDOF 8
ENDMDL
