MODEL 1
REMARK VINA RESULT:      -6.5      0.000      0.000
REMARK  11 active torsions:
REMARK  status: ('A' for Active; 'I' for Inactive)
REMARK    1  A    between atoms: N_4  and  C_9 
REMARK    2  A    between atoms: N_7  and  C_16 
REMARK       I    between atoms: N_7  and  C_8 
REMARK    3  A    between atoms: C_8  and  C_9 
REMARK    4  A    between atoms: C_9  and  C_10 
REMARK    5  A    between atoms: C_10  and  C_11 
REMARK    6  A    between atoms: C_11  and  C_12 
REMARK    7  A    between atoms: C_14  and  C_15 
REMARK    8  A    between atoms: C_14  and  C_16 
REMARK    9  A    between atoms: C_15  and  C_24 
REMARK   10  A    between atoms: C_16  and  C_23 
REMARK   11  A    between atoms: C_24  and  N_25 
ROOT
HETATM    1  H           1     -21.979  -5.824  -9.516  0.00  0.00     0.163 HD
HETATM    2  O           1     -21.876  -3.669  -7.238  0.00  0.00    -0.271 OA
HETATM    3  N           1     -22.096  -4.920  -9.075  0.00  0.00    -0.345 N 
HETATM    4  C           1     -21.736  -4.747  -7.766  0.00  0.00     0.249 C 
ENDROOT
BRANCH   3   5
HETATM    5  C           1     -22.647  -3.811  -9.829  0.00  0.00     0.185 C 
BRANCH   5   6
HETATM    6  C           1     -22.205  -3.917 -11.282  0.00  0.00     0.038 C 
BRANCH   6   7
HETATM    7  C           1     -22.588  -2.643 -12.024  0.00  0.00     0.030 C 
BRANCH   7   8
HETATM    8  C           1     -23.391  -3.000 -13.267  0.00  0.00     0.230 C 
BRANCH   8   9
HETATM    9  N           1     -22.483  -3.017 -14.462  0.00  0.00    -0.079 N 
HETATM   10  H           1     -22.786  -2.282 -15.139  0.00  0.00     0.274 HD
HETATM   11  H           1     -22.529  -3.955 -14.920  0.00  0.00     0.274 HD
HETATM   12  H           1     -21.502  -2.827 -14.157  0.00  0.00     0.274 HD
ENDBRANCH   8   9
ENDBRANCH   7   8
ENDBRANCH   6   7
ENDBRANCH   5   6
BRANCH   5  13
HETATM   13  C           1     -24.153  -3.853  -9.756  0.00  0.00     0.196 C 
HETATM   14  O           1     -24.762  -4.918 -10.000  0.00  0.00    -0.646 OA
HETATM   15  O           1     -24.794  -2.823  -9.452  0.00  0.00    -0.646 OA
ENDBRANCH   5  13
ENDBRANCH   3   5
BRANCH   4  16
HETATM   16  C           1     -21.163  -5.902  -6.981  0.00  0.00     0.275 C 
BRANCH  16  17
HETATM   17  N           1     -19.747  -6.147  -7.415  0.00  0.00    -0.066 N 
HETATM   18  H           1     -19.651  -7.135  -7.743  0.00  0.00     0.275 HD
HETATM   19  H           1     -19.505  -5.495  -8.195  0.00  0.00     0.275 HD
HETATM   20  H           1     -19.103  -5.982  -6.610  0.00  0.00     0.275 HD
ENDBRANCH  16  17
BRANCH  16  21
HETATM   21  C           1     -21.187  -5.568  -5.495  0.00  0.00     0.053 C 
BRANCH  21  22
HETATM   22  C           1     -22.115  -6.535  -4.773  0.00  0.00     0.115 C 
BRANCH  22  23
HETATM   23  C           1     -21.770  -6.562  -3.303  0.00  0.00     0.172 C 
HETATM   24  O           1     -20.789  -7.225  -2.904  0.00  0.00    -0.648 OA
HETATM   25  O           1     -22.465  -5.920  -2.487  0.00  0.00    -0.648 OA
ENDBRANCH  22  23
ENDBRANCH  21  22
ENDBRANCH  16  21
ENDBRANCH   4  16
TORSDOF 11
ENDMDL
MODEL 2
REMARK VINA RESULT:      -6.5     12.714     14.724
REMARK  11 active torsions:
REMARK  status: ('A' for Active; 'I' for Inactive)
REMARK    1  A    between atoms: N_4  and  C_9 
REMARK    2  A    between atoms: N_7  and  C_16 
REMARK       I    between atoms: N_7  and  C_8 
REMARK    3  A    between atoms: C_8  and  C_9 
REMARK    4  A    between atoms: C_9  and  C_10 
REMARK    5  A    between atoms: C_10  and  C_11 
REMARK    6  A    between atoms: C_11  and  C_12 
REMARK    7  A    between atoms: C_14  and  C_15 
REMARK    8  A    between atoms: C_14  and  C_16 
REMARK    9  A    between atoms: C_15  and  C_24 
REMARK   10  A    between atoms: C_16  and  C_23 
REMARK   11  A    between atoms: C_24  and  N_25 
ROOT
HETATM    1  H           1     -36.588  -3.428 -11.162  0.00  0.00     0.163 HD
HETATM    2  O           1     -34.091  -1.599 -10.651  0.00  0.00    -0.271 OA
HETATM    3  N           1     -35.613  -3.186 -11.044  0.00  0.00    -0.345 N 
HETATM    4  C           1     -35.256  -1.889 -10.791  0.00  0.00     0.249 C 
ENDROOT
BRANCH   3   5
HETATM    5  C           1     -34.593  -4.212 -11.146  0.00  0.00     0.185 C 
BRANCH   5   6
HETATM    6  C           1     -35.087  -5.486 -10.472  0.00  0.00     0.038 C 
BRANCH   6   7
HETATM    7  C           1     -33.998  -6.550 -10.538  0.00  0.00     0.030 C 
BRANCH   7   8
HETATM    8  C           1     -34.576  -7.894 -10.116  0.00  0.00     0.230 C 
BRANCH   8   9
HETATM    9  N           1     -33.520  -8.952 -10.236  0.00  0.00    -0.079 N 
HETATM   10  H           1     -33.667  -9.676  -9.498  0.00  0.00     0.274 HD
HETATM   11  H           1     -32.576  -8.518 -10.117  0.00  0.00     0.274 HD
HETATM   12  H           1     -33.580  -9.400 -11.178  0.00  0.00     0.274 HD
ENDBRANCH   8   9
ENDBRANCH   7   8
ENDBRANCH   6   7
ENDBRANCH   5   6
BRANCH   5  13
HETATM   13  C           1     -34.306  -4.491 -12.601  0.00  0.00     0.196 C 
HETATM   14  O           1     -33.274  -4.028 -13.135  0.00  0.00    -0.646 OA
HETATM   15  O           1     -35.099  -5.186 -13.273  0.00  0.00    -0.646 OA
ENDBRANCH   5  13
ENDBRANCH   3   5
BRANCH   4  16
HETATM   16  C           1     -36.317  -0.822 -10.684  0.00  0.00     0.275 C 
BRANCH  16  17
HETATM   17  N           1     -36.260  -0.194  -9.322  0.00  0.00    -0.066 N 
HETATM   18  H           1     -35.355  -0.443  -8.863  0.00  0.00     0.275 HD
HETATM   19  H           1     -36.331   0.844  -9.414  0.00  0.00     0.275 HD
HETATM   20  H           1     -37.053  -0.548  -8.743  0.00  0.00     0.275 HD
ENDBRANCH  16  17
BRANCH  16  21
HETATM   21  C           1     -36.072   0.245 -11.744  0.00  0.00     0.053 C 
BRANCH  21  22
HETATM   22  C           1     -36.585  -0.250 -13.090  0.00  0.00     0.115 C 
BRANCH  22  23
HETATM   23  C           1     -35.415  -0.526 -14.004  0.00  0.00     0.172 C 
HETATM   24  O           1     -35.228  -1.678 -14.449  0.00  0.00    -0.648 OA
HETATM   25  O           1     -34.636   0.400 -14.316  0.00  0.00    -0.648 OA
ENDBRANCH  22  23
ENDBRANCH  21  22
ENDBRANCH  16  21
ENDBRANCH   4  16
TORSDOF 11
ENDMDL
MODEL 3
REMARK VINA RESULT:      -6.4     12.310     13.850
REMARK  11 active torsions:
REMARK  status: ('A' for Active; 'I' for Inactive)
REMARK    1  A    between atoms: N_4  and  C_9 
REMARK    2  A    between atoms: N_7  and  C_16 
REMARK       I    between atoms: N_7  and  C_8 
REMARK    3  A    between atoms: C_8  and  C_9 
REMARK    4  A    between atoms: C_9  and  C_10 
REMARK    5  A    between atoms: C_10  and  C_11 
REMARK    6  A    between atoms: C_11  and  C_12 
REMARK    7  A    between atoms: C_14  and  C_15 
REMARK    8  A    between atoms: C_14  and  C_16 
REMARK    9  A    between atoms: C_15  and  C_24 
REMARK   10  A    between atoms: C_16  and  C_23 
REMARK   11  A    between atoms: C_24  and  N_25 
ROOT
HETATM    1  H           1     -35.452  -1.834 -13.814  0.00  0.00     0.163 HD
HETATM    2  O           1     -33.729  -2.155 -11.212  0.00  0.00    -0.271 OA
HETATM    3  N           1     -34.969  -1.554 -12.970  0.00  0.00    -0.345 N 
HETATM    4  C           1     -34.305  -2.488 -12.221  0.00  0.00     0.249 C 
ENDROOT
BRANCH   3   5
HETATM    5  C           1     -34.981  -0.165 -12.553  0.00  0.00     0.185 C 
BRANCH   5   6
HETATM    6  C           1     -34.965   0.733 -13.783  0.00  0.00     0.038 C 
BRANCH   6   7
HETATM    7  C           1     -35.340  -0.084 -15.013  0.00  0.00     0.030 C 
BRANCH   7   8
HETATM    8  C           1     -36.633   0.456 -15.607  0.00  0.00     0.230 C 
BRANCH   8   9
HETATM    9  N           1     -36.411   1.852 -16.107  0.00  0.00    -0.079 N 
HETATM   10  H           1     -35.705   1.838 -16.877  0.00  0.00     0.274 HD
HETATM   11  H           1     -36.062   2.451 -15.324  0.00  0.00     0.274 HD
HETATM   12  H           1     -37.311   2.242 -16.467  0.00  0.00     0.274 HD
ENDBRANCH   8   9
ENDBRANCH   7   8
ENDBRANCH   6   7
ENDBRANCH   5   6
BRANCH   5  13
HETATM   13  C           1     -36.228   0.106 -11.747  0.00  0.00     0.196 C 
HETATM   14  O           1     -37.354  -0.082 -12.255  0.00  0.00    -0.646 OA
HETATM   15  O           1     -36.134   0.520 -10.571  0.00  0.00    -0.646 OA
ENDBRANCH   5  13
ENDBRANCH   3   5
BRANCH   4  16
HETATM   16  C           1     -34.293  -3.933 -12.654  0.00  0.00     0.275 C 
BRANCH  16  17
HETATM   17  N           1     -33.555  -4.058 -13.955  0.00  0.00    -0.066 N 
HETATM   18  H           1     -32.528  -3.981 -13.780  0.00  0.00     0.275 HD
HETATM   19  H           1     -33.768  -4.984 -14.388  0.00  0.00     0.275 HD
HETATM   20  H           1     -33.856  -3.294 -14.601  0.00  0.00     0.275 HD
ENDBRANCH  16  17
BRANCH  16  21
HETATM   21  C           1     -33.597  -4.776 -11.594  0.00  0.00     0.053 C 
BRANCH  21  22
HETATM   22  C           1     -34.630  -5.316 -10.615  0.00  0.00     0.115 C 
BRANCH  22  23
HETATM   23  C           1     -34.342  -6.770 -10.329  0.00  0.00     0.172 C 
HETATM   24  O           1     -33.238  -7.262 -10.644  0.00  0.00    -0.648 OA
HETATM   25  O           1     -35.208  -7.480  -9.775  0.00  0.00    -0.648 OA
ENDBRANCH  22  23
ENDBRANCH  21  22
ENDBRANCH  16  21
ENDBRANCH   4  16
TORSDOF 11
ENDMDL
MODEL 4
REMARK VINA RESULT:      -6.3      9.906     12.169
REMARK  11 active torsions:
REMARK  status: ('A' for Active; 'I' for Inactive)
REMARK    1  A    between atoms: N_4  and  C_9 
REMARK    2  A    between atoms: N_7  and  C_16 
REMARK       I    between atoms: N_7  and  C_8 
REMARK    3  A    between atoms: C_8  and  C_9 
REMARK    4  A    between atoms: C_9  and  C_10 
REMARK    5  A    between atoms: C_10  and  C_11 
REMARK    6  A    between atoms: C_11  and  C_12 
REMARK    7  A    between atoms: C_14  and  C_15 
REMARK    8  A    between atoms: C_14  and  C_16 
REMARK    9  A    between atoms: C_15  and  C_24 
REMARK   10  A    between atoms: C_16  and  C_23 
REMARK   11  A    between atoms: C_24  and  N_25 
ROOT
HETATM    1  H           1     -27.505  -8.216 -18.827  0.00  0.00     0.163 HD
HETATM    2  O           1     -28.597  -5.284 -19.055  0.00  0.00    -0.271 OA
HETATM    3  N           1     -27.625  -7.289 -19.213  0.00  0.00    -0.345 N 
HETATM    4  C           1     -28.453  -6.392 -18.594  0.00  0.00     0.249 C 
ENDROOT
BRANCH   3   5
HETATM    5  C           1     -26.921  -6.910 -20.424  0.00  0.00     0.185 C 
BRANCH   5   6
HETATM    6  C           1     -25.555  -6.345 -20.059  0.00  0.00     0.038 C 
BRANCH   6   7
HETATM    7  C           1     -24.821  -7.330 -19.159  0.00  0.00     0.030 C 
BRANCH   7   8
HETATM    8  C           1     -23.365  -7.430 -19.594  0.00  0.00     0.230 C 
BRANCH   8   9
HETATM    9  N           1     -23.219  -8.528 -20.605  0.00  0.00    -0.079 N 
HETATM   10  H           1     -23.874  -9.307 -20.370  0.00  0.00     0.274 HD
HETATM   11  H           1     -22.236  -8.882 -20.594  0.00  0.00     0.274 HD
HETATM   12  H           1     -23.445  -8.159 -21.556  0.00  0.00     0.274 HD
ENDBRANCH   8   9
ENDBRANCH   7   8
ENDBRANCH   6   7
ENDBRANCH   5   6
BRANCH   5  13
HETATM   13  C           1     -26.746  -8.124 -21.303  0.00  0.00     0.196 C 
HETATM   14  O           1     -27.647  -8.988 -21.364  0.00  0.00    -0.646 OA
HETATM   15  O           1     -25.698  -8.265 -21.971  0.00  0.00    -0.646 OA
ENDBRANCH   5  13
ENDBRANCH   3   5
BRANCH   4  16
HETATM   16  C           1     -29.185  -6.786 -17.335  0.00  0.00     0.275 C 
BRANCH  16  17
HETATM   17  N           1     -29.264  -8.282 -17.251  0.00  0.00    -0.066 N 
HETATM   18  H           1     -30.246  -8.566 -17.033  0.00  0.00     0.275 HD
HETATM   19  H           1     -28.974  -8.698 -18.165  0.00  0.00     0.275 HD
HETATM   20  H           1     -28.628  -8.623 -16.496  0.00  0.00     0.275 HD
ENDBRANCH  16  17
BRANCH  16  21
HETATM   21  C           1     -28.436  -6.249 -16.122  0.00  0.00     0.053 C 
BRANCH  21  22
HETATM   22  C           1     -27.456  -7.303 -15.623  0.00  0.00     0.115 C 
BRANCH  22  23
HETATM   23  C           1     -26.044  -6.794 -15.782  0.00  0.00     0.172 C 
HETATM   24  O           1     -25.833  -5.709 -16.367  0.00  0.00    -0.648 OA
HETATM   25  O           1     -25.087  -7.456 -15.329  0.00  0.00    -0.648 OA
ENDBRANCH  22  23
ENDBRANCH  21  22
ENDBRANCH  16  21
ENDBRANCH   4  16
TORSDOF 11
ENDMDL
MODEL 5
REMARK VINA RESULT:      -6.1     10.863     13.260
REMARK  11 active torsions:
REMARK  status: ('A' for Active; 'I' for Inactive)
REMARK    1  A    between atoms: N_4  and  C_9 
REMARK    2  A    between atoms: N_7  and  C_16 
REMARK       I    between atoms: N_7  and  C_8 
REMARK    3  A    between atoms: C_8  and  C_9 
REMARK    4  A    between atoms: C_9  and  C_10 
REMARK    5  A    between atoms: C_10  and  C_11 
REMARK    6  A    between atoms: C_11  and  C_12 
REMARK    7  A    between atoms: C_14  and  C_15 
REMARK    8  A    between atoms: C_14  and  C_16 
REMARK    9  A    between atoms: C_15  and  C_24 
REMARK   10  A    between atoms: C_16  and  C_23 
REMARK   11  A    between atoms: C_24  and  N_25 
ROOT
HETATM    1  H           1     -27.839  -6.990 -19.423  0.00  0.00     0.163 HD
HETATM    2  O           1     -27.209  -6.229 -16.445  0.00  0.00    -0.271 OA
HETATM    3  N           1     -28.020  -6.811 -18.443  0.00  0.00    -0.345 N 
HETATM    4  C           1     -26.994  -6.442 -17.615  0.00  0.00     0.249 C 
ENDROOT
BRANCH   3   5
HETATM    5  C           1     -29.364  -6.947 -17.916  0.00  0.00     0.185 C 
BRANCH   5   6
HETATM    6  C           1     -30.074  -5.601 -17.985  0.00  0.00     0.038 C 
BRANCH   6   7
HETATM    7  C           1     -30.766  -5.322 -16.657  0.00  0.00     0.030 C 
BRANCH   7   8
HETATM    8  C           1     -32.081  -4.599 -16.910  0.00  0.00     0.230 C 
BRANCH   8   9
HETATM    9  N           1     -31.803  -3.238 -17.475  0.00  0.00    -0.079 N 
HETATM   10  H           1     -30.866  -3.237 -17.935  0.00  0.00     0.274 HD
HETATM   11  H           1     -31.814  -2.532 -16.703  0.00  0.00     0.274 HD
HETATM   12  H           1     -32.536  -2.995 -18.178  0.00  0.00     0.274 HD
ENDBRANCH   8   9
ENDBRANCH   7   8
ENDBRANCH   6   7
ENDBRANCH   5   6
BRANCH   5  13
HETATM   13  C           1     -30.124  -7.960 -18.736  0.00  0.00     0.196 C 
HETATM   14  O           1     -29.507  -8.855 -19.354  0.00  0.00    -0.646 OA
HETATM   15  O           1     -31.372  -7.905 -18.798  0.00  0.00    -0.646 OA
ENDBRANCH   5  13
ENDBRANCH   3   5
BRANCH   4  16
HETATM   16  C           1     -25.595  -6.300 -18.163  0.00  0.00     0.275 C 
BRANCH  16  17
HETATM   17  N           1     -24.723  -7.379 -17.591  0.00  0.00    -0.066 N 
HETATM   18  H           1     -25.274  -7.945 -16.908  0.00  0.00     0.275 HD
HETATM   19  H           1     -24.381  -7.996 -18.361  0.00  0.00     0.275 HD
HETATM   20  H           1     -23.907  -6.945 -17.104  0.00  0.00     0.275 HD
ENDBRANCH  16  17
BRANCH  16  21
HETATM   21  C           1     -25.629  -6.428 -19.681  0.00  0.00     0.053 C 
BRANCH  21  22
HETATM   22  C           1     -24.649  -7.506 -20.122  0.00  0.00     0.115 C 
BRANCH  22  23
HETATM   23  C           1     -25.132  -8.132 -21.408  0.00  0.00     0.172 C 
HETATM   24  O           1     -26.280  -8.621 -21.472  0.00  0.00    -0.648 OA
HETATM   25  O           1     -24.384  -8.158 -22.408  0.00  0.00    -0.648 OA
ENDBRANCH  22  23
ENDBRANCH  21  22
ENDBRANCH  16  21
ENDBRANCH   4  16
TORSDOF 11
ENDMDL
MODEL 6
REMARK VINA RESULT:      -6.1     12.905     14.960
REMARK  11 active torsions:
REMARK  status: ('A' for Active; 'I' for Inactive)
REMARK    1  A    between atoms: N_4  and  C_9 
REMARK    2  A    between atoms: N_7  and  C_16 
REMARK       I    between atoms: N_7  and  C_8 
REMARK    3  A    between atoms: C_8  and  C_9 
REMARK    4  A    between atoms: C_9  and  C_10 
REMARK    5  A    between atoms: C_10  and  C_11 
REMARK    6  A    between atoms: C_11  and  C_12 
REMARK    7  A    between atoms: C_14  and  C_15 
REMARK    8  A    between atoms: C_14  and  C_16 
REMARK    9  A    between atoms: C_15  and  C_24 
REMARK   10  A    between atoms: C_16  and  C_23 
REMARK   11  A    between atoms: C_24  and  N_25 
ROOT
HETATM    1  H           1     -35.629  -2.689 -11.439  0.00  0.00     0.163 HD
HETATM    2  O           1     -34.659  -0.652 -13.619  0.00  0.00    -0.271 OA
HETATM    3  N           1     -35.060  -2.322 -12.192  0.00  0.00    -0.345 N 
HETATM    4  C           1     -35.336  -1.089 -12.720  0.00  0.00     0.249 C 
ENDROOT
BRANCH   3   5
HETATM    5  C           1     -33.955  -3.102 -12.713  0.00  0.00     0.185 C 
BRANCH   5   6
HETATM    6  C           1     -33.352  -3.939 -11.592  0.00  0.00     0.038 C 
BRANCH   6   7
HETATM    7  C           1     -34.410  -4.197 -10.526  0.00  0.00     0.030 C 
BRANCH   7   8
HETATM    8  C           1     -34.352  -5.657 -10.096  0.00  0.00     0.230 C 
BRANCH   8   9
HETATM    9  N           1     -33.746  -6.478 -11.195  0.00  0.00    -0.079 N 
HETATM   10  H           1     -33.687  -5.906 -12.066  0.00  0.00     0.274 HD
HETATM   11  H           1     -34.340  -7.320 -11.369  0.00  0.00     0.274 HD
HETATM   12  H           1     -32.786  -6.783 -10.914  0.00  0.00     0.274 HD
ENDBRANCH   8   9
ENDBRANCH   7   8
ENDBRANCH   6   7
ENDBRANCH   5   6
BRANCH   5  13
HETATM   13  C           1     -34.455  -4.013 -13.808  0.00  0.00     0.196 C 
HETATM   14  O           1     -34.287  -3.701 -15.007  0.00  0.00    -0.646 OA
HETATM   15  O           1     -35.037  -5.080 -13.515  0.00  0.00    -0.646 OA
ENDBRANCH   5  13
ENDBRANCH   3   5
BRANCH   4  16
HETATM   16  C           1     -36.487  -0.277 -12.178  0.00  0.00     0.275 C 
BRANCH  16  17
HETATM   17  N           1     -37.624  -0.305 -13.157  0.00  0.00    -0.066 N 
HETATM   18  H           1     -38.333  -1.006 -12.846  0.00  0.00     0.275 HD
HETATM   19  H           1     -38.064   0.641 -13.206  0.00  0.00     0.275 HD
HETATM   20  H           1     -37.263  -0.570 -14.101  0.00  0.00     0.275 HD
ENDBRANCH  16  17
BRANCH  16  21
HETATM   21  C           1     -36.947  -0.870 -10.852  0.00  0.00     0.053 C 
BRANCH  21  22
HETATM   22  C           1     -38.048  -0.000 -10.261  0.00  0.00     0.115 C 
BRANCH  22  23
HETATM   23  C           1     -37.435   1.055  -9.373  0.00  0.00     0.172 C 
HETATM   24  O           1     -38.074   2.095  -9.105  0.00  0.00    -0.648 OA
HETATM   25  O           1     -36.289   0.888  -8.905  0.00  0.00    -0.648 OA
ENDBRANCH  22  23
ENDBRANCH  21  22
ENDBRANCH  16  21
ENDBRANCH   4  16
TORSDOF 11
ENDMDL
MODEL 7
REMARK VINA RESULT:      -5.9     12.883     15.638
REMARK  11 active torsions:
REMARK  status: ('A' for Active; 'I' for Inactive)
REMARK    1  A    between atoms: N_4  and  C_9 
REMARK    2  A    between atoms: N_7  and  C_16 
REMARK       I    between atoms: N_7  and  C_8 
REMARK    3  A    between atoms: C_8  and  C_9 
REMARK    4  A    between atoms: C_9  and  C_10 
REMARK    5  A    between atoms: C_10  and  C_11 
REMARK    6  A    between atoms: C_11  and  C_12 
REMARK    7  A    between atoms: C_14  and  C_15 
REMARK    8  A    between atoms: C_14  and  C_16 
REMARK    9  A    between atoms: C_15  and  C_24 
REMARK   10  A    between atoms: C_16  and  C_23 
REMARK   11  A    between atoms: C_24  and  N_25 
ROOT
HETATM    1  H           1     -35.182  -2.799 -11.209  0.00  0.00     0.163 HD
HETATM    2  O           1     -34.706  -1.263 -13.902  0.00  0.00    -0.271 OA
HETATM    3  N           1     -34.759  -2.584 -12.103  0.00  0.00    -0.345 N 
HETATM    4  C           1     -35.210  -1.519 -12.835  0.00  0.00     0.249 C 
ENDROOT
BRANCH   3   5
HETATM    5  C           1     -33.678  -3.407 -12.610  0.00  0.00     0.185 C 
BRANCH   5   6
HETATM    6  C           1     -33.188  -4.336 -11.507  0.00  0.00     0.038 C 
BRANCH   6   7
HETATM    7  C           1     -34.322  -4.599 -10.523  0.00  0.00     0.030 C 
BRANCH   7   8
HETATM    8  C           1     -34.335  -6.073 -10.145  0.00  0.00     0.230 C 
BRANCH   8   9
HETATM    9  N           1     -34.701  -6.895 -11.346  0.00  0.00    -0.079 N 
HETATM   10  H           1     -34.064  -6.656 -12.138  0.00  0.00     0.274 HD
HETATM   11  H           1     -35.689  -6.692 -11.618  0.00  0.00     0.274 HD
HETATM   12  H           1     -34.605  -7.910 -11.117  0.00  0.00     0.274 HD
ENDBRANCH   8   9
ENDBRANCH   7   8
ENDBRANCH   6   7
ENDBRANCH   5   6
BRANCH   5  13
HETATM   13  C           1     -34.174  -4.226 -13.775  0.00  0.00     0.196 C 
HETATM   14  O           1     -33.684  -4.057 -14.913  0.00  0.00    -0.646 OA
HETATM   15  O           1     -35.076  -5.076 -13.603  0.00  0.00    -0.646 OA
ENDBRANCH   5  13
ENDBRANCH   3   5
BRANCH   4  16
HETATM   16  C           1     -36.336  -0.663 -12.307  0.00  0.00     0.275 C 
BRANCH  16  17
HETATM   17  N           1     -35.888   0.036 -11.057  0.00  0.00    -0.066 N 
HETATM   18  H           1     -36.530   0.837 -10.858  0.00  0.00     0.275 HD
HETATM   19  H           1     -35.907  -0.635 -10.257  0.00  0.00     0.275 HD
HETATM   20  H           1     -34.915   0.394 -11.188  0.00  0.00     0.275 HD
ENDBRANCH  16  17
BRANCH  16  21
HETATM   21  C           1     -36.722   0.371 -13.356  0.00  0.00     0.053 C 
BRANCH  21  22
HETATM   22  C           1     -37.994  -0.076 -14.065  0.00  0.00     0.115 C 
BRANCH  22  23
HETATM   23  C           1     -37.778  -0.040 -15.558  0.00  0.00     0.172 C 
HETATM   24  O           1     -37.684   1.056 -16.150  0.00  0.00    -0.648 OA
HETATM   25  O           1     -37.691  -1.108 -16.201  0.00  0.00    -0.648 OA
ENDBRANCH  22  23
ENDBRANCH  21  22
ENDBRANCH  16  21
ENDBRANCH   4  16
TORSDOF 11
ENDMDL
MODEL 8
REMARK VINA RESULT:      -5.8      3.002      3.961
REMARK  11 active torsions:
REMARK  status: ('A' for Active; 'I' for Inactive)
REMARK    1  A    between atoms: N_4  and  C_9 
REMARK    2  A    between atoms: N_7  and  C_16 
REMARK       I    between atoms: N_7  and  C_8 
REMARK    3  A    between atoms: C_8  and  C_9 
REMARK    4  A    between atoms: C_9  and  C_10 
REMARK    5  A    between atoms: C_10  and  C_11 
REMARK    6  A    between atoms: C_11  and  C_12 
REMARK    7  A    between atoms: C_14  and  C_15 
REMARK    8  A    between atoms: C_14  and  C_16 
REMARK    9  A    between atoms: C_15  and  C_24 
REMARK   10  A    between atoms: C_16  and  C_23 
REMARK   11  A    between atoms: C_24  and  N_25 
ROOT
HETATM    1  H           1     -22.085  -4.963  -5.366  0.00  0.00     0.163 HD
HETATM    2  O           1     -21.065  -7.762  -6.349  0.00  0.00    -0.271 OA
HETATM    3  N           1     -21.692  -5.647  -6.000  0.00  0.00    -0.345 N 
HETATM    4  C           1     -21.535  -6.945  -5.593  0.00  0.00     0.249 C 
ENDROOT
BRANCH   3   5
HETATM    5  C           1     -21.295  -5.253  -7.338  0.00  0.00     0.185 C 
BRANCH   5   6
HETATM    6  C           1     -22.365  -4.352  -7.940  0.00  0.00     0.038 C 
BRANCH   6   7
HETATM    7  C           1     -22.559  -4.705  -9.409  0.00  0.00     0.030 C 
BRANCH   7   8
HETATM    8  C           1     -23.992  -4.398  -9.820  0.00  0.00     0.230 C 
BRANCH   8   9
HETATM    9  N           1     -24.538  -3.303  -8.953  0.00  0.00    -0.079 N 
HETATM   10  H           1     -24.077  -3.338  -8.016  0.00  0.00     0.274 HD
HETATM   11  H           1     -25.570  -3.430  -8.840  0.00  0.00     0.274 HD
HETATM   12  H           1     -24.349  -2.377  -9.399  0.00  0.00     0.274 HD
ENDBRANCH   8   9
ENDBRANCH   7   8
ENDBRANCH   6   7
ENDBRANCH   5   6
BRANCH   5  13
HETATM   13  C           1     -19.986  -4.506  -7.272  0.00  0.00     0.196 C 
HETATM   14  O           1     -19.602  -3.829  -8.251  0.00  0.00    -0.646 OA
HETATM   15  O           1     -19.284  -4.563  -6.239  0.00  0.00    -0.646 OA
ENDBRANCH   5  13
ENDBRANCH   3   5
BRANCH   4  16
HETATM   16  C           1     -21.949  -7.355  -4.201  0.00  0.00     0.275 C 
BRANCH  16  17
HETATM   17  N           1     -21.572  -8.789  -3.970  0.00  0.00    -0.066 N 
HETATM   18  H           1     -22.262  -9.410  -4.450  0.00  0.00     0.275 HD
HETATM   19  H           1     -20.617  -8.964  -4.355  0.00  0.00     0.275 HD
HETATM   20  H           1     -21.577  -8.990  -2.945  0.00  0.00     0.275 HD
ENDBRANCH  16  17
BRANCH  16  21
HETATM   21  C           1     -21.240  -6.474  -3.181  0.00  0.00     0.053 C 
BRANCH  21  22
HETATM   22  C           1     -22.207  -6.114  -2.061  0.00  0.00     0.115 C 
BRANCH  22  23
HETATM   23  C           1     -22.135  -7.163  -0.977  0.00  0.00     0.172 C 
HETATM   24  O           1     -21.125  -7.891  -0.878  0.00  0.00    -0.648 OA
HETATM   25  O           1     -23.086  -7.301  -0.179  0.00  0.00    -0.648 OA
ENDBRANCH  22  23
ENDBRANCH  21  22
ENDBRANCH  16  21
ENDBRANCH   4  16
TORSDOF 11
ENDMDL
MODEL 9
REMARK VINA RESULT:      -5.7     10.244     13.023
REMARK  11 active torsions:
REMARK  status: ('A' for Active; 'I' for Inactive)
REMARK    1  A    between atoms: N_4  and  C_9 
REMARK    2  A    between atoms: N_7  and  C_16 
REMARK       I    between atoms: N_7  and  C_8 
REMARK    3  A    between atoms: C_8  and  C_9 
REMARK    4  A    between atoms: C_9  and  C_10 
REMARK    5  A    between atoms: C_10  and  C_11 
REMARK    6  A    between atoms: C_11  and  C_12 
REMARK    7  A    between atoms: C_14  and  C_15 
REMARK    8  A    between atoms: C_14  and  C_16 
REMARK    9  A    between atoms: C_15  and  C_24 
REMARK   10  A    between atoms: C_16  and  C_23 
REMARK   11  A    between atoms: C_24  and  N_25 
ROOT
HETATM    1  H           1     -26.200  -7.033 -16.776  0.00  0.00     0.163 HD
HETATM    2  O           1     -27.236  -6.057 -19.572  0.00  0.00    -0.271 OA
HETATM    3  N           1     -26.860  -6.699 -17.466  0.00  0.00    -0.345 N 
HETATM    4  C           1     -26.448  -6.457 -18.748  0.00  0.00     0.249 C 
ENDROOT
BRANCH   3   5
HETATM    5  C           1     -28.244  -6.473 -17.095  0.00  0.00     0.185 C 
BRANCH   5   6
HETATM    6  C           1     -29.115  -7.567 -17.699  0.00  0.00     0.038 C 
BRANCH   6   7
HETATM    7  C           1     -30.351  -6.940 -18.332  0.00  0.00     0.030 C 
BRANCH   7   8
HETATM    8  C           1     -31.453  -6.823 -17.288  0.00  0.00     0.230 C 
BRANCH   8   9
HETATM    9  N           1     -31.553  -5.400 -16.824  0.00  0.00    -0.079 N 
HETATM   10  H           1     -32.256  -5.334 -16.054  0.00  0.00     0.274 HD
HETATM   11  H           1     -31.851  -4.794 -17.622  0.00  0.00     0.274 HD
HETATM   12  H           1     -30.622  -5.081 -16.473  0.00  0.00     0.274 HD
ENDBRANCH   8   9
ENDBRANCH   7   8
ENDBRANCH   6   7
ENDBRANCH   5   6
BRANCH   5  13
HETATM   13  C           1     -28.372  -6.500 -15.592  0.00  0.00     0.196 C 
HETATM   14  O           1     -27.883  -7.448 -14.939  0.00  0.00    -0.646 OA
HETATM   15  O           1     -28.967  -5.574 -14.998  0.00  0.00    -0.646 OA
ENDBRANCH   5  13
ENDBRANCH   3   5
BRANCH   4  16
HETATM   16  C           1     -25.008  -6.692 -19.134  0.00  0.00     0.275 C 
BRANCH  16  17
HETATM   17  N           1     -24.309  -7.430 -18.030  0.00  0.00    -0.066 N 
HETATM   18  H           1     -25.004  -7.697 -17.296  0.00  0.00     0.275 HD
HETATM   19  H           1     -23.860  -8.290 -18.416  0.00  0.00     0.275 HD
HETATM   20  H           1     -23.577  -6.814 -17.609  0.00  0.00     0.275 HD
ENDBRANCH  16  17
BRANCH  16  21
HETATM   21  C           1     -24.953  -7.521 -20.411  0.00  0.00     0.053 C 
BRANCH  21  22
HETATM   22  C           1     -23.525  -7.997 -20.647  0.00  0.00     0.115 C 
BRANCH  22  23
HETATM   23  C           1     -23.358  -8.389 -22.095  0.00  0.00     0.172 C 
HETATM   24  O           1     -22.275  -8.873 -22.490  0.00  0.00    -0.648 OA
HETATM   25  O           1     -24.302  -8.231 -22.898  0.00  0.00    -0.648 OA
ENDBRANCH  22  23
ENDBRANCH  21  22
ENDBRANCH  16  21
ENDBRANCH   4  16
TORSDOF 11
ENDMDL
