MODEL 1
REMARK VINA RESULT:      -6.2      0.000      0.000
REMARK  8 active torsions:
REMARK  status: ('A' for Active; 'I' for Inactive)
REMARK    1  A    between atoms: C_1  and  C_15 
REMARK    2  A    between atoms: C_1  and  O_16 
REMARK    3  A    between atoms: C_3  and  C_4 
REMARK    4  A    between atoms: C_4  and  C_5 
REMARK    5  A    between atoms: C_5  and  C_20 
REMARK    6  A    between atoms: C_5  and  N_17 
REMARK    7  A    between atoms: N_9  and  C_15 
REMARK    8  A    between atoms: C_15  and  C_22 
REMARK       I    between atoms: N_17  and  C_22 
ROOT
HETATM    1  C           1     -23.351  -3.969 -10.392  0.00  0.00     0.191 C 
ENDROOT
BRANCH   1   2
HETATM    2  C           1     -23.467  -4.615 -11.765  0.00  0.00     0.094 C 
BRANCH   2   3
HETATM    3  C           1     -23.448  -3.553 -12.820  0.00  0.00     0.028 A 
HETATM    4  C           1     -24.424  -2.600 -12.987  0.00  0.00     0.114 A 
HETATM    5  N           1     -24.008  -1.848 -14.052  0.00  0.00    -0.360 N 
HETATM    6  C           1     -22.818  -2.366 -14.478  0.00  0.00     0.180 A 
HETATM    7  H           1     -24.511  -1.024 -14.465  0.00  0.00     0.166 HD
HETATM    8  N           1     -22.454  -3.398 -13.753  0.00  0.00    -0.354 N 
ATOM      9  HN          1     -21.613  -3.964 -13.860  1.00  0.00     0.166 HD
ENDBRANCH   2   3
ENDBRANCH   1   2
BRANCH   1  10
HETATM   10  C           1     -24.724  -3.841  -9.777  0.00  0.00     0.197 C 
HETATM   11  O           1     -25.396  -4.866  -9.531  0.00  0.00    -0.646 OA
HETATM   12  O           1     -25.187  -2.710  -9.515  0.00  0.00    -0.646 OA
ENDBRANCH   1  10
BRANCH   1  13
HETATM   13  N           1     -22.516  -4.793  -9.540  0.00  0.00    -0.344 N 
HETATM   14  H           1     -22.592  -5.802  -9.578  0.00  0.00     0.163 HD
HETATM   15  C           1     -21.622  -4.207  -8.684  0.00  0.00     0.251 C 
HETATM   16  O           1     -21.961  -3.921  -7.560  0.00  0.00    -0.271 OA
BRANCH  15  17
HETATM   17  C           1     -20.214  -3.919  -9.144  0.00  0.00     0.297 C 
BRANCH  17  18
HETATM   18  C           1     -19.922  -4.711 -10.412  0.00  0.00     0.206 C 
BRANCH  18  19
HETATM   19  O           1     -20.072  -3.877 -11.530  0.00  0.00    -0.398 OA
HETATM   20  H           1     -19.384  -4.100 -12.133  0.00  0.00     0.209 HD
ENDBRANCH  18  19
ENDBRANCH  17  18
BRANCH  17  21
HETATM   21  N           1     -19.247  -4.322  -8.071  0.00  0.00    -0.064 N 
HETATM   22  H           1     -18.340  -4.604  -8.507  0.00  0.00     0.275 HD
HETATM   23  H           1     -19.087  -3.514  -7.426  0.00  0.00     0.275 HD
HETATM   24  H           1     -19.639  -5.126  -7.532  0.00  0.00     0.275 HD
ENDBRANCH  17  21
ENDBRANCH  15  17
ENDBRANCH   1  13
TORSDOF 8
ENDMDL
MODEL 2
REMARK VINA RESULT:      -5.9      1.841      2.555
REMARK  8 active torsions:
REMARK  status: ('A' for Active; 'I' for Inactive)
REMARK    1  A    between atoms: C_1  and  C_15 
REMARK    2  A    between atoms: C_1  and  O_16 
REMARK    3  A    between atoms: C_3  and  C_4 
REMARK    4  A    between atoms: C_4  and  C_5 
REMARK    5  A    between atoms: C_5  and  C_20 
REMARK    6  A    between atoms: C_5  and  N_17 
REMARK    7  A    between atoms: N_9  and  C_15 
REMARK    8  A    between atoms: C_15  and  C_22 
REMARK       I    between atoms: N_17  and  C_22 
ROOT
HETATM    1  C           1     -23.358  -3.336  -9.213  0.00  0.00     0.191 C 
ENDROOT
BRANCH   1   2
HETATM    2  C           1     -22.189  -3.735 -10.103  0.00  0.00     0.094 C 
BRANCH   2   3
HETATM    3  C           1     -22.487  -3.354 -11.520  0.00  0.00     0.028 A 
HETATM    4  C           1     -21.787  -3.803 -12.614  0.00  0.00     0.114 A 
HETATM    5  N           1     -22.389  -3.211 -13.689  0.00  0.00    -0.360 N 
HETATM    6  C           1     -23.412  -2.440 -13.213  0.00  0.00     0.180 A 
HETATM    7  H           1     -22.116  -3.327 -14.696  0.00  0.00     0.166 HD
HETATM    8  N           1     -23.495  -2.507 -11.904  0.00  0.00    -0.354 N 
ATOM      9  HN          1     -24.165  -2.030 -11.302  1.00  0.00     0.166 HD
ENDBRANCH   2   3
ENDBRANCH   1   2
BRANCH   1  10
HETATM   10  C           1     -24.636  -3.913  -9.771  0.00  0.00     0.197 C 
HETATM   11  O           1     -24.692  -5.122 -10.081  0.00  0.00    -0.646 OA
HETATM   12  O           1     -25.638  -3.180  -9.923  0.00  0.00    -0.646 OA
ENDBRANCH   1  10
BRANCH   1  13
HETATM   13  N           1     -23.142  -3.848  -7.873  0.00  0.00    -0.344 N 
HETATM   14  H           1     -23.932  -4.022  -7.265  0.00  0.00     0.163 HD
HETATM   15  C           1     -21.870  -4.096  -7.432  0.00  0.00     0.251 C 
HETATM   16  O           1     -21.244  -3.227  -6.873  0.00  0.00    -0.271 OA
BRANCH  15  17
HETATM   17  C           1     -21.250  -5.456  -7.643  0.00  0.00     0.297 C 
BRANCH  17  18
HETATM   18  C           1     -21.352  -6.266  -6.357  0.00  0.00     0.206 C 
BRANCH  18  19
HETATM   19  O           1     -22.340  -5.712  -5.532  0.00  0.00    -0.398 OA
HETATM   20  H           1     -22.312  -6.183  -4.716  0.00  0.00     0.209 HD
ENDBRANCH  18  19
ENDBRANCH  17  18
BRANCH  17  21
HETATM   21  N           1     -19.806  -5.293  -8.017  0.00  0.00    -0.064 N 
HETATM   22  H           1     -19.210  -5.831  -7.348  0.00  0.00     0.275 HD
HETATM   23  H           1     -19.655  -5.656  -8.986  0.00  0.00     0.275 HD
HETATM   24  H           1     -19.548  -4.282  -7.979  0.00  0.00     0.275 HD
ENDBRANCH  17  21
ENDBRANCH  15  17
ENDBRANCH   1  13
TORSDOF 8
ENDMDL
MODEL 3
REMARK VINA RESULT:      -5.6      1.117      2.103
REMARK  8 active torsions:
REMARK  status: ('A' for Active; 'I' for Inactive)
REMARK    1  A    between atoms: C_1  and  C_15 
REMARK    2  A    between atoms: C_1  and  O_16 
REMARK    3  A    between atoms: C_3  and  C_4 
REMARK    4  A    between atoms: C_4  and  C_5 
REMARK    5  A    between atoms: C_5  and  C_20 
REMARK    6  A    between atoms: C_5  and  N_17 
REMARK    7  A    between atoms: N_9  and  C_15 
REMARK    8  A    between atoms: C_15  and  C_22 
REMARK       I    between atoms: N_17  and  C_22 
ROOT
HETATM    1  C           1     -23.136  -3.097 -10.728  0.00  0.00     0.191 C 
ENDROOT
BRANCH   1   2
HETATM    2  C           1     -22.784  -3.964 -11.929  0.00  0.00     0.094 C 
BRANCH   2   3
HETATM    3  C           1     -22.974  -3.175 -13.187  0.00  0.00     0.028 A 
HETATM    4  C           1     -23.919  -2.192 -13.358  0.00  0.00     0.114 A 
HETATM    5  N           1     -23.740  -1.745 -14.639  0.00  0.00    -0.360 N 
HETATM    6  C           1     -22.711  -2.461 -15.182  0.00  0.00     0.180 A 
HETATM    7  H           1     -24.292  -0.990 -15.116  0.00  0.00     0.166 HD
HETATM    8  N           1     -22.228  -3.334 -14.327  0.00  0.00    -0.354 N 
ATOM      9  HN          1     -21.462  -3.990 -14.480  1.00  0.00     0.166 HD
ENDBRANCH   2   3
ENDBRANCH   1   2
BRANCH   1  10
HETATM   10  C           1     -24.359  -3.657 -10.043  0.00  0.00     0.197 C 
HETATM   11  O           1     -25.111  -2.902  -9.393  0.00  0.00    -0.646 OA
HETATM   12  O           1     -24.617  -4.878 -10.127  0.00  0.00    -0.646 OA
ENDBRANCH   1  10
BRANCH   1  13
HETATM   13  N           1     -22.024  -3.086  -9.797  0.00  0.00    -0.344 N 
HETATM   14  H           1     -21.768  -2.229  -9.324  0.00  0.00     0.163 HD
HETATM   15  C           1     -21.321  -4.237  -9.558  0.00  0.00     0.251 C 
HETATM   16  O           1     -20.357  -4.508 -10.233  0.00  0.00    -0.271 OA
BRANCH  15  17
HETATM   17  C           1     -21.750  -5.165  -8.448  0.00  0.00     0.297 C 
BRANCH  17  18
HETATM   18  C           1     -22.385  -4.356  -7.324  0.00  0.00     0.206 C 
BRANCH  18  19
HETATM   19  O           1     -21.580  -3.244  -7.034  0.00  0.00    -0.398 OA
HETATM   20  H           1     -21.970  -2.504  -7.467  0.00  0.00     0.209 HD
ENDBRANCH  18  19
ENDBRANCH  17  18
BRANCH  17  21
HETATM   21  N           1     -20.551  -5.896  -7.919  0.00  0.00    -0.064 N 
HETATM   22  H           1     -20.612  -5.958  -6.877  0.00  0.00     0.275 HD
HETATM   23  H           1     -20.526  -6.860  -8.323  0.00  0.00     0.275 HD
HETATM   24  H           1     -19.682  -5.382  -8.187  0.00  0.00     0.275 HD
ENDBRANCH  17  21
ENDBRANCH  15  17
ENDBRANCH   1  13
TORSDOF 8
ENDMDL
MODEL 4
REMARK VINA RESULT:      -5.5     16.545     18.245
REMARK  8 active torsions:
REMARK  status: ('A' for Active; 'I' for Inactive)
REMARK    1  A    between atoms: C_1  and  C_15 
REMARK    2  A    between atoms: C_1  and  O_16 
REMARK    3  A    between atoms: C_3  and  C_4 
REMARK    4  A    between atoms: C_4  and  C_5 
REMARK    5  A    between atoms: C_5  and  C_20 
REMARK    6  A    between atoms: C_5  and  N_17 
REMARK    7  A    between atoms: N_9  and  C_15 
REMARK    8  A    between atoms: C_15  and  C_22 
REMARK       I    between atoms: N_17  and  C_22 
ROOT
HETATM    1  C           1     -11.233   5.387 -19.955  0.00  0.00     0.191 C 
ENDROOT
BRANCH   1   2
HETATM    2  C           1     -11.080   4.964 -21.409  0.00  0.00     0.094 C 
BRANCH   2   3
HETATM    3  C           1     -12.287   4.186 -21.832  0.00  0.00     0.028 A 
HETATM    4  C           1     -12.625   2.944 -21.350  0.00  0.00     0.114 A 
HETATM    5  N           1     -13.782   2.612 -22.000  0.00  0.00    -0.360 N 
HETATM    6  C           1     -14.093   3.648 -22.835  0.00  0.00     0.180 A 
HETATM    7  H           1     -14.329   1.725 -21.880  0.00  0.00     0.166 HD
HETATM    8  N           1     -13.207   4.614 -22.755  0.00  0.00    -0.354 N 
ATOM      9  HN          1     -13.204   5.494 -23.270  1.00  0.00     0.166 HD
ENDBRANCH   2   3
ENDBRANCH   1   2
BRANCH   1  10
HETATM   10  C           1      -9.881   5.755 -19.392  0.00  0.00     0.197 C 
HETATM   11  O           1      -9.716   5.820 -18.156  0.00  0.00    -0.646 OA
HETATM   12  O           1      -8.928   5.994 -20.165  0.00  0.00    -0.646 OA
ENDBRANCH   1  10
BRANCH   1  13
HETATM   13  N           1     -12.117   6.533 -19.874  0.00  0.00    -0.344 N 
HETATM   14  H           1     -12.824   6.577 -19.151  0.00  0.00     0.163 HD
HETATM   15  C           1     -11.994   7.557 -20.775  0.00  0.00     0.251 C 
HETATM   16  O           1     -12.619   7.531 -21.808  0.00  0.00    -0.271 OA
BRANCH  15  17
HETATM   17  C           1     -11.078   8.719 -20.476  0.00  0.00     0.297 C 
BRANCH  17  18
HETATM   18  C           1     -11.334   9.217 -19.059  0.00  0.00     0.206 C 
BRANCH  18  19
HETATM   19  O           1     -10.337   8.727 -18.204  0.00  0.00    -0.398 OA
HETATM   20  H           1     -10.248   9.348 -17.502  0.00  0.00     0.209 HD
ENDBRANCH  18  19
ENDBRANCH  17  18
BRANCH  17  21
HETATM   21  N           1     -11.346   9.828 -21.450  0.00  0.00    -0.064 N 
HETATM   22  H           1     -10.518  10.465 -21.489  0.00  0.00     0.275 HD
HETATM   23  H           1     -11.519   9.423 -22.398  0.00  0.00     0.275 HD
HETATM   24  H           1     -12.186  10.368 -21.142  0.00  0.00     0.275 HD
ENDBRANCH  17  21
ENDBRANCH  15  17
ENDBRANCH   1  13
TORSDOF 8
ENDMDL
MODEL 5
REMARK VINA RESULT:      -5.4      2.236      5.415
REMARK  8 active torsions:
REMARK  status: ('A' for Active; 'I' for Inactive)
REMARK    1  A    between atoms: C_1  and  C_15 
REMARK    2  A    between atoms: C_1  and  O_16 
REMARK    3  A    between atoms: C_3  and  C_4 
REMARK    4  A    between atoms: C_4  and  C_5 
REMARK    5  A    between atoms: C_5  and  C_20 
REMARK    6  A    between atoms: C_5  and  N_17 
REMARK    7  A    between atoms: N_9  and  C_15 
REMARK    8  A    between atoms: C_15  and  C_22 
REMARK       I    between atoms: N_17  and  C_22 
ROOT
HETATM    1  C           1     -22.280  -4.725  -9.967  0.00  0.00     0.191 C 
ENDROOT
BRANCH   1   2
HETATM    2  C           1     -21.439  -4.055  -8.890  0.00  0.00     0.094 C 
BRANCH   2   3
HETATM    3  C           1     -21.347  -4.955  -7.697  0.00  0.00     0.028 A 
HETATM    4  C           1     -22.167  -4.879  -6.597  0.00  0.00     0.114 A 
HETATM    5  N           1     -21.735  -5.874  -5.763  0.00  0.00    -0.360 N 
HETATM    6  C           1     -20.690  -6.501  -6.380  0.00  0.00     0.180 A 
HETATM    7  H           1     -22.133  -6.112  -4.821  0.00  0.00     0.166 HD
HETATM    8  N           1     -20.432  -5.966  -7.552  0.00  0.00    -0.354 N 
ATOM      9  HN          1     -19.706  -6.244  -8.212  1.00  0.00     0.166 HD
ENDBRANCH   2   3
ENDBRANCH   1   2
BRANCH   1  10
HETATM   10  C           1     -23.726  -4.326  -9.798  0.00  0.00     0.197 C 
HETATM   11  O           1     -24.635  -5.115 -10.134  0.00  0.00    -0.646 OA
HETATM   12  O           1     -24.014  -3.207  -9.320  0.00  0.00    -0.646 OA
ENDBRANCH   1  10
BRANCH   1  13
HETATM   13  N           1     -21.815  -4.305 -11.275  0.00  0.00    -0.344 N 
HETATM   14  H           1     -21.025  -4.771 -11.705  0.00  0.00     0.163 HD
HETATM   15  C           1     -22.445  -3.280 -11.929  0.00  0.00     0.251 C 
HETATM   16  O           1     -22.073  -2.142 -11.768  0.00  0.00    -0.271 OA
BRANCH  15  17
HETATM   17  C           1     -23.602  -3.573 -12.853  0.00  0.00     0.297 C 
BRANCH  17  18
HETATM   18  C           1     -23.372  -2.880 -14.190  0.00  0.00     0.206 C 
BRANCH  18  19
HETATM   19  O           1     -24.015  -1.633 -14.188  0.00  0.00    -0.398 OA
HETATM   20  H           1     -24.283  -1.461 -15.074  0.00  0.00     0.209 HD
ENDBRANCH  18  19
ENDBRANCH  17  18
BRANCH  17  21
HETATM   21  N           1     -24.872  -3.063 -12.239  0.00  0.00    -0.064 N 
HETATM   22  H           1     -24.721  -2.892 -11.219  0.00  0.00     0.275 HD
HETATM   23  H           1     -25.149  -2.170 -12.705  0.00  0.00     0.275 HD
HETATM   24  H           1     -25.629  -3.772 -12.365  0.00  0.00     0.275 HD
ENDBRANCH  17  21
ENDBRANCH  15  17
ENDBRANCH   1  13
TORSDOF 8
ENDMDL
MODEL 6
REMARK VINA RESULT:      -5.3     15.922     18.238
REMARK  8 active torsions:
REMARK  status: ('A' for Active; 'I' for Inactive)
REMARK    1  A    between atoms: C_1  and  C_15 
REMARK    2  A    between atoms: C_1  and  O_16 
REMARK    3  A    between atoms: C_3  and  C_4 
REMARK    4  A    between atoms: C_4  and  C_5 
REMARK    5  A    between atoms: C_5  and  C_20 
REMARK    6  A    between atoms: C_5  and  N_17 
REMARK    7  A    between atoms: N_9  and  C_15 
REMARK    8  A    between atoms: C_15  and  C_22 
REMARK       I    between atoms: N_17  and  C_22 
ROOT
HETATM    1  C           1     -11.382   6.186 -21.086  0.00  0.00     0.191 C 
ENDROOT
BRANCH   1   2
HETATM    2  C           1     -10.912   4.857 -21.661  0.00  0.00     0.094 C 
BRANCH   2   3
HETATM    3  C           1     -12.084   3.940 -21.823  0.00  0.00     0.028 A 
HETATM    4  C           1     -12.991   4.005 -22.853  0.00  0.00     0.114 A 
HETATM    5  N           1     -13.881   2.995 -22.608  0.00  0.00    -0.360 N 
HETATM    6  C           1     -13.484   2.370 -21.460  0.00  0.00     0.180 A 
HETATM    7  H           1     -14.715   2.747 -23.194  0.00  0.00     0.166 HD
HETATM    8  N           1     -12.400   2.919 -20.963  0.00  0.00    -0.354 N 
ATOM      9  HN          1     -11.900   2.646 -20.117  1.00  0.00     0.166 HD
ENDBRANCH   2   3
ENDBRANCH   1   2
BRANCH   1  10
HETATM   10  C           1     -12.212   5.935 -19.851  0.00  0.00     0.197 C 
HETATM   11  O           1     -13.344   6.453 -19.743  0.00  0.00    -0.646 OA
HETATM   12  O           1     -11.766   5.209 -18.936  0.00  0.00    -0.646 OA
ENDBRANCH   1  10
BRANCH   1  13
HETATM   13  N           1     -10.231   6.996 -20.738  0.00  0.00    -0.344 N 
HETATM   14  H           1      -9.299   6.685 -20.984  0.00  0.00     0.163 HD
HETATM   15  C           1     -10.404   8.183 -20.077  0.00  0.00     0.251 C 
HETATM   16  O           1     -10.405   8.207 -18.870  0.00  0.00    -0.271 OA
BRANCH  15  17
HETATM   17  C           1     -10.593   9.461 -20.858  0.00  0.00     0.297 C 
BRANCH  17  18
HETATM   18  C           1     -12.079   9.700 -21.090  0.00  0.00     0.206 C 
BRANCH  18  19
HETATM   19  O           1     -12.795   9.356 -19.935  0.00  0.00    -0.398 OA
HETATM   20  H           1     -12.178   9.339 -19.224  0.00  0.00     0.209 HD
ENDBRANCH  18  19
ENDBRANCH  17  18
BRANCH  17  21
HETATM   21  N           1      -9.893   9.345 -22.180  0.00  0.00    -0.064 N 
HETATM   22  H           1      -9.131   8.634 -22.110  0.00  0.00     0.275 HD
HETATM   23  H           1     -10.579   9.049 -22.911  0.00  0.00     0.275 HD
HETATM   24  H           1      -9.484  10.270 -22.440  0.00  0.00     0.275 HD
ENDBRANCH  17  21
ENDBRANCH  15  17
ENDBRANCH   1  13
TORSDOF 8
ENDMDL
MODEL 7
REMARK VINA RESULT:      -4.9      6.372      8.167
REMARK  8 active torsions:
REMARK  status: ('A' for Active; 'I' for Inactive)
REMARK    1  A    between atoms: C_1  and  C_15 
REMARK    2  A    between atoms: C_1  and  O_16 
REMARK    3  A    between atoms: C_3  and  C_4 
REMARK    4  A    between atoms: C_4  and  C_5 
REMARK    5  A    between atoms: C_5  and  C_20 
REMARK    6  A    between atoms: C_5  and  N_17 
REMARK    7  A    between atoms: N_9  and  C_15 
REMARK    8  A    between atoms: C_15  and  C_22 
REMARK       I    between atoms: N_17  and  C_22 
ROOT
HETATM    1  C           1     -21.062  -7.186  -3.280  0.00  0.00     0.191 C 
ENDROOT
BRANCH   1   2
HETATM    2  C           1     -21.905  -6.824  -4.494  0.00  0.00     0.094 C 
BRANCH   2   3
HETATM    3  C           1     -21.039  -6.176  -5.529  0.00  0.00     0.028 A 
HETATM    4  C           1     -20.464  -4.935  -5.401  0.00  0.00     0.114 A 
HETATM    5  N           1     -19.769  -4.744  -6.564  0.00  0.00    -0.360 N 
HETATM    6  C           1     -19.947  -5.857  -7.335  0.00  0.00     0.180 A 
HETATM    7  H           1     -19.202  -3.897  -6.817  0.00  0.00     0.166 HD
HETATM    8  N           1     -20.711  -6.741  -6.735  0.00  0.00    -0.354 N 
ATOM      9  HN          1     -21.000  -7.652  -7.091  1.00  0.00     0.166 HD
ENDBRANCH   2   3
ENDBRANCH   1   2
BRANCH   1  10
HETATM   10  C           1     -21.813  -6.831  -2.020  0.00  0.00     0.197 C 
HETATM   11  O           1     -22.603  -5.863  -2.016  0.00  0.00    -0.646 OA
HETATM   12  O           1     -21.644  -7.505  -0.981  0.00  0.00    -0.646 OA
ENDBRANCH   1  10
BRANCH   1  13
HETATM   13  N           1     -20.784  -8.609  -3.291  0.00  0.00    -0.344 N 
HETATM   14  H           1     -21.544  -9.274  -3.208  0.00  0.00     0.163 HD
HETATM   15  C           1     -19.496  -9.054  -3.415  0.00  0.00     0.251 C 
HETATM   16  O           1     -18.824  -9.240  -2.429  0.00  0.00    -0.271 OA
BRANCH  15  17
HETATM   17  C           1     -18.916  -9.315  -4.784  0.00  0.00     0.297 C 
BRANCH  17  18
HETATM   18  C           1     -19.737 -10.387  -5.488  0.00  0.00     0.206 C 
BRANCH  18  19
HETATM   19  O           1     -20.919  -9.820  -5.987  0.00  0.00    -0.398 OA
HETATM   20  H           1     -20.696  -9.388  -6.793  0.00  0.00     0.209 HD
ENDBRANCH  18  19
ENDBRANCH  17  18
BRANCH  17  21
HETATM   21  N           1     -17.498  -9.785  -4.643  0.00  0.00    -0.064 N 
HETATM   22  H           1     -16.957  -9.094  -4.075  0.00  0.00     0.275 HD
HETATM   23  H           1     -17.486 -10.714  -4.165  0.00  0.00     0.275 HD
HETATM   24  H           1     -17.064  -9.873  -5.590  0.00  0.00     0.275 HD
ENDBRANCH  17  21
ENDBRANCH  15  17
ENDBRANCH   1  13
TORSDOF 8
ENDMDL
MODEL 8
REMARK VINA RESULT:      -4.9      4.757      7.568
REMARK  8 active torsions:
REMARK  status: ('A' for Active; 'I' for Inactive)
REMARK    1  A    between atoms: C_1  and  C_15 
REMARK    2  A    between atoms: C_1  and  O_16 
REMARK    3  A    between atoms: C_3  and  C_4 
REMARK    4  A    between atoms: C_4  and  C_5 
REMARK    5  A    between atoms: C_5  and  C_20 
REMARK    6  A    between atoms: C_5  and  N_17 
REMARK    7  A    between atoms: N_9  and  C_15 
REMARK    8  A    between atoms: C_15  and  C_22 
REMARK       I    between atoms: N_17  and  C_22 
ROOT
HETATM    1  C           1     -21.394  -7.138  -5.950  0.00  0.00     0.191 C 
ENDROOT
BRANCH   1   2
HETATM    2  C           1     -20.366  -7.996  -5.225  0.00  0.00     0.094 C 
BRANCH   2   3
HETATM    3  C           1     -20.911  -9.378  -5.039  0.00  0.00     0.028 A 
HETATM    4  C           1     -21.548  -9.820  -3.905  0.00  0.00     0.114 A 
HETATM    5  N           1     -21.873 -11.124  -4.165  0.00  0.00    -0.360 N 
HETATM    6  C           1     -21.427 -11.413  -5.424  0.00  0.00     0.180 A 
HETATM    7  H           1     -22.373 -11.781  -3.516  0.00  0.00     0.166 HD
HETATM    8  N           1     -20.841 -10.376  -5.977  0.00  0.00    -0.354 N 
ATOM      9  HN          1     -20.422 -10.325  -6.906  1.00  0.00     0.166 HD
ENDBRANCH   2   3
ENDBRANCH   1   2
BRANCH   1  10
HETATM   10  C           1     -22.147  -6.299  -4.948  0.00  0.00     0.197 C 
HETATM   11  O           1     -21.572  -5.892  -3.916  0.00  0.00    -0.646 OA
HETATM   12  O           1     -23.347  -6.011  -5.150  0.00  0.00    -0.646 OA
ENDBRANCH   1  10
BRANCH   1  13
HETATM   13  N           1     -20.718  -6.270  -6.896  0.00  0.00    -0.344 N 
HETATM   14  H           1     -19.870  -6.582  -7.352  0.00  0.00     0.163 HD
HETATM   15  C           1     -21.229  -5.030  -7.171  0.00  0.00     0.251 C 
HETATM   16  O           1     -20.885  -4.076  -6.515  0.00  0.00    -0.271 OA
BRANCH  15  17
HETATM   17  C           1     -22.219  -4.855  -8.297  0.00  0.00     0.297 C 
BRANCH  17  18
HETATM   18  C           1     -21.589  -4.018  -9.403  0.00  0.00     0.206 C 
BRANCH  18  19
HETATM   19  O           1     -20.199  -4.207  -9.399  0.00  0.00    -0.398 OA
HETATM   20  H           1     -19.941  -4.359 -10.292  0.00  0.00     0.209 HD
ENDBRANCH  18  19
ENDBRANCH  17  18
BRANCH  17  21
HETATM   21  N           1     -23.443  -4.158  -7.780  0.00  0.00    -0.064 N 
HETATM   22  H           1     -23.238  -3.141  -7.656  0.00  0.00     0.275 HD
HETATM   23  H           1     -24.224  -4.275  -8.465  0.00  0.00     0.275 HD
HETATM   24  H           1     -23.718  -4.573  -6.862  0.00  0.00     0.275 HD
ENDBRANCH  17  21
ENDBRANCH  15  17
ENDBRANCH   1  13
TORSDOF 8
ENDMDL
MODEL 9
REMARK VINA RESULT:      -4.9      5.835      9.047
REMARK  8 active torsions:
REMARK  status: ('A' for Active; 'I' for Inactive)
REMARK    1  A    between atoms: C_1  and  C_15 
REMARK    2  A    between atoms: C_1  and  O_16 
REMARK    3  A    between atoms: C_3  and  C_4 
REMARK    4  A    between atoms: C_4  and  C_5 
REMARK    5  A    between atoms: C_5  and  C_20 
REMARK    6  A    between atoms: C_5  and  N_17 
REMARK    7  A    between atoms: N_9  and  C_15 
REMARK    8  A    between atoms: C_15  and  C_22 
REMARK       I    between atoms: N_17  and  C_22 
ROOT
HETATM    1  C           1     -20.142  -8.071  -4.657  0.00  0.00     0.191 C 
ENDROOT
BRANCH   1   2
HETATM    2  C           1     -21.198  -8.782  -3.823  0.00  0.00     0.094 C 
BRANCH   2   3
HETATM    3  C           1     -21.607  -7.904  -2.681  0.00  0.00     0.028 A 
HETATM    4  C           1     -21.795  -8.338  -1.391  0.00  0.00     0.114 A 
HETATM    5  N           1     -22.158  -7.221  -0.690  0.00  0.00    -0.360 N 
HETATM    6  C           1     -22.176  -6.175  -1.567  0.00  0.00     0.180 A 
HETATM    7  H           1     -22.383  -7.177   0.335  0.00  0.00     0.166 HD
HETATM    8  N           1     -21.847  -6.558  -2.780  0.00  0.00    -0.354 N 
ATOM      9  HN          1     -21.783  -5.977  -3.616  1.00  0.00     0.166 HD
ENDBRANCH   2   3
ENDBRANCH   1   2
BRANCH   1  10
HETATM   10  C           1     -19.005  -9.021  -4.948  0.00  0.00     0.197 C 
HETATM   11  O           1     -18.890  -9.528  -6.084  0.00  0.00    -0.646 OA
HETATM   12  O           1     -18.179  -9.299  -4.051  0.00  0.00    -0.646 OA
ENDBRANCH   1  10
BRANCH   1  13
HETATM   13  N           1     -20.731  -7.627  -5.906  0.00  0.00    -0.344 N 
HETATM   14  H           1     -21.411  -8.208  -6.380  0.00  0.00     0.163 HD
HETATM   15  C           1     -20.368  -6.421  -6.443  0.00  0.00     0.251 C 
HETATM   16  O           1     -19.438  -6.357  -7.211  0.00  0.00    -0.271 OA
BRANCH  15  17
HETATM   17  C           1     -21.132  -5.172  -6.077  0.00  0.00     0.297 C 
BRANCH  17  18
HETATM   18  C           1     -22.616  -5.388  -6.340  0.00  0.00     0.206 C 
BRANCH  18  19
HETATM   19  O           1     -23.202  -6.014  -5.230  0.00  0.00    -0.398 OA
HETATM   20  H           1     -23.938  -5.484  -4.973  0.00  0.00     0.209 HD
ENDBRANCH  18  19
ENDBRANCH  17  18
BRANCH  17  21
HETATM   21  N           1     -20.640  -4.025  -6.909  0.00  0.00    -0.064 N 
HETATM   22  H           1     -21.455  -3.468  -7.252  0.00  0.00     0.275 HD
HETATM   23  H           1     -20.021  -3.414  -6.329  0.00  0.00     0.275 HD
HETATM   24  H           1     -20.102  -4.392  -7.726  0.00  0.00     0.275 HD
ENDBRANCH  17  21
ENDBRANCH  15  17
ENDBRANCH   1  13
TORSDOF 8
ENDMDL
