MODEL 1
REMARK VINA RESULT:      -7.2      0.000      0.000
REMARK  5 active torsions:
REMARK  status: ('A' for Active; 'I' for Inactive)
REMARK    1  A    between atoms: C_4  and  C_13 
REMARK    2  A    between atoms: C_4  and  C_7 
REMARK    3  A    between atoms: C_4  and  N_20 
REMARK    4  A    between atoms: C_7  and  C_16 
REMARK       I    between atoms: C_18  and  N_20 
REMARK    5  A    between atoms: C_18  and  C_23 
ROOT
HETATM    1  C           1     -20.884  -5.097  -6.516  0.00  0.00     0.189 C 
ENDROOT
BRANCH   1   2
HETATM    2  C           1     -19.541  -5.356  -7.155  0.00  0.00     0.197 C 
HETATM    3  O           1     -18.746  -4.410  -7.343  0.00  0.00    -0.646 OA
HETATM    4  O           1     -19.225  -6.515  -7.498  0.00  0.00    -0.646 OA
ENDBRANCH   1   2
BRANCH   1   5
HETATM    5  C           1     -21.417  -3.748  -6.981  0.00  0.00     0.073 C 
BRANCH   5   6
HETATM    6  C           1     -22.373  -3.951  -8.114  0.00  0.00    -0.047 A 
HETATM    7  C           1     -22.052  -3.919  -9.499  0.00  0.00    -0.006 A 
HETATM    8  C           1     -23.234  -4.155 -10.201  0.00  0.00     0.038 A 
HETATM    9  C           1     -20.864  -3.712 -10.225  0.00  0.00     0.014 A 
HETATM   10  N           1     -24.232  -4.322  -9.267  0.00  0.00    -0.385 N 
HETATM   11  C           1     -23.288  -4.194 -11.599  0.00  0.00     0.030 A 
HETATM   12  H           1     -25.240  -4.516  -9.493  0.00  0.00     0.160 HD
HETATM   13  C           1     -23.722  -4.201  -8.001  0.00  0.00     0.093 A 
HETATM   14  C           1     -22.095  -3.985 -12.297  0.00  0.00     0.002 A 
HETATM   15  C           1     -20.899  -3.747 -11.623  0.00  0.00     0.001 A 
ENDBRANCH   5   6
ENDBRANCH   1   5
BRANCH   1  16
HETATM   16  N           1     -20.738  -5.088  -5.074  0.00  0.00    -0.344 N 
HETATM   17  H           1     -20.375  -4.267  -4.607  0.00  0.00     0.163 HD
HETATM   18  C           1     -21.093  -6.190  -4.343  0.00  0.00     0.252 C 
HETATM   19  O           1     -20.972  -6.182  -3.141  0.00  0.00    -0.271 OA
BRANCH  18  20
HETATM   20  C           1     -21.636  -7.414  -5.039  0.00  0.00     0.370 C 
HETATM   21  C           1     -22.221  -8.392  -4.035  0.00  0.00     0.048 C 
HETATM   22  C           1     -21.095  -9.374  -3.733  0.00  0.00     0.033 C 
HETATM   23  C           1     -19.926  -8.911  -4.586  0.00  0.00     0.271 C 
HETATM   24  N           1     -20.560  -8.170  -5.674  0.00  0.00     0.097 N 
HETATM   25  H           1     -20.936  -8.827  -6.358  0.00  0.00     0.317 HD
ENDBRANCH  18  20
ENDBRANCH   1  16
TORSDOF 5
ENDMDL
MODEL 2
REMARK VINA RESULT:      -7.1      2.947      7.717
REMARK  5 active torsions:
REMARK  status: ('A' for Active; 'I' for Inactive)
REMARK    1  A    between atoms: C_4  and  C_13 
REMARK    2  A    between atoms: C_4  and  C_7 
REMARK    3  A    between atoms: C_4  and  N_20 
REMARK    4  A    between atoms: C_7  and  C_16 
REMARK       I    between atoms: C_18  and  N_20 
REMARK    5  A    between atoms: C_18  and  C_23 
ROOT
HETATM    1  C           1     -19.946  -8.815  -4.822  0.00  0.00     0.189 C 
ENDROOT
BRANCH   1   2
HETATM    2  C           1     -20.126 -10.134  -5.533  0.00  0.00     0.197 C 
HETATM    3  O           1     -19.183 -10.952  -5.578  0.00  0.00    -0.646 OA
HETATM    4  O           1     -21.217 -10.406  -6.078  0.00  0.00    -0.646 OA
ENDBRANCH   1   2
BRANCH   1   5
HETATM    5  C           1     -19.387  -9.061  -3.427  0.00  0.00     0.073 C 
BRANCH   5   6
HETATM    6  C           1     -20.451  -9.657  -2.558  0.00  0.00    -0.047 A 
HETATM    7  C           1     -21.270  -8.952  -1.634  0.00  0.00    -0.006 A 
HETATM    8  C           1     -22.119  -9.888  -1.041  0.00  0.00     0.038 A 
HETATM    9  C           1     -21.371  -7.604  -1.243  0.00  0.00     0.014 A 
HETATM   10  N           1     -21.817 -11.113  -1.593  0.00  0.00    -0.385 N 
HETATM   11  C           1     -23.068  -9.540  -0.074  0.00  0.00     0.030 A 
HETATM   12  H           1     -22.293 -12.017  -1.345  0.00  0.00     0.160 HD
HETATM   13  C           1     -20.810 -10.985  -2.512  0.00  0.00     0.093 A 
HETATM   14  C           1     -23.150  -8.195   0.298  0.00  0.00     0.002 A 
HETATM   15  C           1     -22.315  -7.239  -0.277  0.00  0.00     0.001 A 
ENDBRANCH   5   6
ENDBRANCH   1   5
BRANCH   1  16
HETATM   16  N           1     -21.227  -8.144  -4.716  0.00  0.00    -0.344 N 
HETATM   17  H           1     -22.020  -8.627  -4.314  0.00  0.00     0.163 HD
HETATM   18  C           1     -21.364  -6.857  -5.161  0.00  0.00     0.252 C 
HETATM   19  O           1     -22.432  -6.299  -5.073  0.00  0.00    -0.271 OA
BRANCH  18  20
HETATM   20  C           1     -20.182  -6.135  -5.760  0.00  0.00     0.370 C 
HETATM   21  C           1     -20.330  -4.632  -5.604  0.00  0.00     0.048 C 
HETATM   22  C           1     -20.960  -4.156  -6.908  0.00  0.00     0.033 C 
HETATM   23  C           1     -21.132  -5.412  -7.746  0.00  0.00     0.271 C 
HETATM   24  N           1     -20.134  -6.331  -7.207  0.00  0.00     0.097 N 
HETATM   25  H           1     -19.214  -6.087  -7.573  0.00  0.00     0.317 HD
ENDBRANCH  18  20
ENDBRANCH   1  16
TORSDOF 5
ENDMDL
MODEL 3
REMARK VINA RESULT:      -7.0      2.380      3.773
REMARK  5 active torsions:
REMARK  status: ('A' for Active; 'I' for Inactive)
REMARK    1  A    between atoms: C_4  and  C_13 
REMARK    2  A    between atoms: C_4  and  C_7 
REMARK    3  A    between atoms: C_4  and  N_20 
REMARK    4  A    between atoms: C_7  and  C_16 
REMARK       I    between atoms: C_18  and  N_20 
REMARK    5  A    between atoms: C_18  and  C_23 
ROOT
HETATM    1  C           1     -21.252  -6.967  -4.449  0.00  0.00     0.189 C 
ENDROOT
BRANCH   1   2
HETATM    2  C           1     -21.524  -6.727  -2.984  0.00  0.00     0.197 C 
HETATM    3  O           1     -20.810  -7.276  -2.119  0.00  0.00    -0.646 OA
HETATM    4  O           1     -22.464  -5.980  -2.637  0.00  0.00    -0.646 OA
ENDBRANCH   1   2
BRANCH   1   5
HETATM    5  C           1     -22.066  -5.987  -5.285  0.00  0.00     0.073 C 
BRANCH   5   6
HETATM    6  C           1     -21.276  -5.578  -6.488  0.00  0.00    -0.047 A 
HETATM    7  C           1     -21.780  -4.902  -7.633  0.00  0.00    -0.006 A 
HETATM    8  C           1     -20.708  -4.719  -8.508  0.00  0.00     0.038 A 
HETATM    9  C           1     -23.051  -4.428  -8.010  0.00  0.00     0.014 A 
HETATM   10  N           1     -19.598  -5.267  -7.906  0.00  0.00    -0.385 N 
HETATM   11  C           1     -20.845  -4.081  -9.746  0.00  0.00     0.030 A 
HETATM   12  H           1     -18.634  -5.282  -8.324  0.00  0.00     0.160 HD
HETATM   13  C           1     -19.930  -5.790  -6.684  0.00  0.00     0.093 A 
HETATM   14  C           1     -22.116  -3.619 -10.098  0.00  0.00     0.002 A 
HETATM   15  C           1     -23.204  -3.788  -9.245  0.00  0.00     0.001 A 
ENDBRANCH   5   6
ENDBRANCH   1   5
BRANCH   1  16
HETATM   16  N           1     -21.628  -8.324  -4.794  0.00  0.00    -0.344 N 
HETATM   17  H           1     -22.604  -8.569  -4.892  0.00  0.00     0.163 HD
HETATM   18  C           1     -20.661  -9.273  -4.989  0.00  0.00     0.252 C 
HETATM   19  O           1     -20.974 -10.404  -5.277  0.00  0.00    -0.271 OA
BRANCH  18  20
HETATM   20  C           1     -19.204  -8.907  -4.845  0.00  0.00     0.370 C 
HETATM   21  C           1     -18.327  -9.848  -5.653  0.00  0.00     0.048 C 
HETATM   22  C           1     -17.891 -10.928  -4.670  0.00  0.00     0.033 C 
HETATM   23  C           1     -18.536 -10.545  -3.349  0.00  0.00     0.271 C 
HETATM   24  N           1     -18.752  -9.106  -3.470  0.00  0.00     0.097 N 
HETATM   25  H           1     -17.874  -8.615  -3.304  0.00  0.00     0.317 HD
ENDBRANCH  18  20
ENDBRANCH   1  16
TORSDOF 5
ENDMDL
MODEL 4
REMARK VINA RESULT:      -6.9     13.796     16.149
REMARK  5 active torsions:
REMARK  status: ('A' for Active; 'I' for Inactive)
REMARK    1  A    between atoms: C_4  and  C_13 
REMARK    2  A    between atoms: C_4  and  C_7 
REMARK    3  A    between atoms: C_4  and  N_20 
REMARK    4  A    between atoms: C_7  and  C_16 
REMARK       I    between atoms: C_18  and  N_20 
REMARK    5  A    between atoms: C_18  and  C_23 
ROOT
HETATM    1  C           1     -36.411  -0.612 -10.331  0.00  0.00     0.189 C 
ENDROOT
BRANCH   1   2
HETATM    2  C           1     -36.745   0.023  -9.004  0.00  0.00     0.197 C 
HETATM    3  O           1     -35.836   0.274  -8.184  0.00  0.00    -0.646 OA
HETATM    4  O           1     -37.932   0.298  -8.724  0.00  0.00    -0.646 OA
ENDBRANCH   1   2
BRANCH   1   5
HETATM    5  C           1     -37.150   0.117 -11.445  0.00  0.00     0.073 C 
BRANCH   5   6
HETATM    6  C           1     -36.305   0.132 -12.681  0.00  0.00    -0.047 A 
HETATM    7  C           1     -36.746  -0.153 -14.002  0.00  0.00    -0.006 A 
HETATM    8  C           1     -35.639  -0.024 -14.842  0.00  0.00     0.038 A 
HETATM    9  C           1     -37.986  -0.510 -14.566  0.00  0.00     0.014 A 
HETATM   10  N           1     -34.570   0.326 -14.049  0.00  0.00    -0.385 N 
HETATM   11  C           1     -35.711  -0.235 -16.224  0.00  0.00     0.030 A 
HETATM   12  H           1     -33.593   0.496 -14.399  0.00  0.00     0.160 HD
HETATM   13  C           1     -34.961   0.424 -12.740  0.00  0.00     0.093 A 
HETATM   14  C           1     -36.953  -0.589 -16.760  0.00  0.00     0.002 A 
HETATM   15  C           1     -38.075  -0.725 -15.945  0.00  0.00     0.001 A 
ENDBRANCH   5   6
ENDBRANCH   1   5
BRANCH   1  16
HETATM   16  N           1     -36.814  -2.005 -10.315  0.00  0.00    -0.344 N 
HETATM   17  H           1     -37.756  -2.255 -10.044  0.00  0.00     0.163 HD
HETATM   18  C           1     -35.921  -2.980 -10.668  0.00  0.00     0.252 C 
HETATM   19  O           1     -36.258  -4.140 -10.655  0.00  0.00    -0.271 OA
BRANCH  18  20
HETATM   20  C           1     -34.516  -2.606 -11.073  0.00  0.00     0.370 C 
HETATM   21  C           1     -34.280  -2.903 -12.544  0.00  0.00     0.048 C 
HETATM   22  C           1     -33.649  -4.290 -12.574  0.00  0.00     0.033 C 
HETATM   23  C           1     -33.549  -4.711 -11.118  0.00  0.00     0.271 C 
HETATM   24  N           1     -33.537  -3.446 -10.389  0.00  0.00     0.097 N 
HETATM   25  H           1     -32.606  -3.032 -10.441  0.00  0.00     0.317 HD
ENDBRANCH  18  20
ENDBRANCH   1  16
TORSDOF 5
ENDMDL
MODEL 5
REMARK VINA RESULT:      -6.9     13.240     16.127
REMARK  5 active torsions:
REMARK  status: ('A' for Active; 'I' for Inactive)
REMARK    1  A    between atoms: C_4  and  C_13 
REMARK    2  A    between atoms: C_4  and  C_7 
REMARK    3  A    between atoms: C_4  and  N_20 
REMARK    4  A    between atoms: C_7  and  C_16 
REMARK       I    between atoms: C_18  and  N_20 
REMARK    5  A    between atoms: C_18  and  C_23 
ROOT
HETATM    1  C           1     -35.428  -1.503 -11.225  0.00  0.00     0.189 C 
ENDROOT
BRANCH   1   2
HETATM    2  C           1     -36.740  -1.177 -10.552  0.00  0.00     0.197 C 
HETATM    3  O           1     -37.802  -1.204 -11.209  0.00  0.00    -0.646 OA
HETATM    4  O           1     -36.762  -0.879  -9.339  0.00  0.00    -0.646 OA
ENDBRANCH   1   2
BRANCH   1   5
HETATM    5  C           1     -34.469  -2.103 -10.205  0.00  0.00     0.073 C 
BRANCH   5   6
HETATM    6  C           1     -33.821  -3.323 -10.784  0.00  0.00    -0.047 A 
HETATM    7  C           1     -34.164  -4.672 -10.495  0.00  0.00    -0.006 A 
HETATM    8  C           1     -33.313  -5.483 -11.247  0.00  0.00     0.038 A 
HETATM    9  C           1     -35.120  -5.283  -9.661  0.00  0.00     0.014 A 
HETATM   10  N           1     -32.487  -4.645 -11.964  0.00  0.00    -0.385 N 
HETATM   11  C           1     -33.371  -6.880 -11.208  0.00  0.00     0.030 A 
HETATM   12  H           1     -31.736  -4.965 -12.625  0.00  0.00     0.160 HD
HETATM   13  C           1     -32.786  -3.337 -11.691  0.00  0.00     0.093 A 
HETATM   14  C           1     -34.329  -7.464 -10.373  0.00  0.00     0.002 A 
HETATM   15  C           1     -35.191  -6.680  -9.610  0.00  0.00     0.001 A 
ENDBRANCH   5   6
ENDBRANCH   1   5
BRANCH   1  16
HETATM   16  N           1     -34.853  -0.292 -11.775  0.00  0.00    -0.344 N 
HETATM   17  H           1     -34.338   0.340 -11.176  0.00  0.00     0.163 HD
HETATM   18  C           1     -35.005  -0.004 -13.105  0.00  0.00     0.252 C 
HETATM   19  O           1     -34.525   1.005 -13.562  0.00  0.00    -0.271 OA
BRANCH  18  20
HETATM   20  C           1     -35.772  -0.948 -13.998  0.00  0.00     0.370 C 
HETATM   21  C           1     -35.301  -0.833 -15.437  0.00  0.00     0.048 C 
HETATM   22  C           1     -36.256   0.158 -16.091  0.00  0.00     0.033 C 
HETATM   23  C           1     -37.229   0.554 -14.993  0.00  0.00     0.271 C 
HETATM   24  N           1     -37.181  -0.571 -14.063  0.00  0.00     0.097 N 
HETATM   25  H           1     -37.744  -1.339 -14.430  0.00  0.00     0.317 HD
ENDBRANCH  18  20
ENDBRANCH   1  16
TORSDOF 5
ENDMDL
MODEL 6
REMARK VINA RESULT:      -6.9      3.036      4.804
REMARK  5 active torsions:
REMARK  status: ('A' for Active; 'I' for Inactive)
REMARK    1  A    between atoms: C_4  and  C_13 
REMARK    2  A    between atoms: C_4  and  C_7 
REMARK    3  A    between atoms: C_4  and  N_20 
REMARK    4  A    between atoms: C_7  and  C_16 
REMARK       I    between atoms: C_18  and  N_20 
REMARK    5  A    between atoms: C_18  and  C_23 
ROOT
HETATM    1  C           1     -20.646  -9.410  -4.214  0.00  0.00     0.189 C 
ENDROOT
BRANCH   1   2
HETATM    2  C           1     -20.620 -10.540  -5.214  0.00  0.00     0.197 C 
HETATM    3  O           1     -19.724 -10.583  -6.084  0.00  0.00    -0.646 OA
HETATM    4  O           1     -21.494 -11.432  -5.173  0.00  0.00    -0.646 OA
ENDBRANCH   1   2
BRANCH   1   5
HETATM    5  C           1     -19.901  -8.210  -4.782  0.00  0.00     0.073 C 
BRANCH   5   6
HETATM    6  C           1     -20.884  -7.161  -5.200  0.00  0.00    -0.047 A 
HETATM    7  C           1     -20.673  -6.158  -6.184  0.00  0.00    -0.006 A 
HETATM    8  C           1     -21.841  -5.398  -6.255  0.00  0.00     0.038 A 
HETATM    9  C           1     -19.595  -5.822  -7.026  0.00  0.00     0.014 A 
HETATM   10  N           1     -22.724  -5.929  -5.341  0.00  0.00    -0.385 N 
HETATM   11  C           1     -21.986  -4.314  -7.128  0.00  0.00     0.030 A 
HETATM   12  H           1     -23.694  -5.568  -5.164  0.00  0.00     0.160 HD
HETATM   13  C           1     -22.155  -6.996  -4.697  0.00  0.00     0.093 A 
HETATM   14  C           1     -20.902  -4.000  -7.954  0.00  0.00     0.002 A 
HETATM   15  C           1     -19.724  -4.741  -7.905  0.00  0.00     0.001 A 
ENDBRANCH   5   6
ENDBRANCH   1   5
BRANCH   1  16
HETATM   16  N           1     -20.007  -9.838  -2.985  0.00  0.00    -0.344 N 
HETATM   17  H           1     -19.008  -9.991  -2.961  0.00  0.00     0.163 HD
HETATM   18  C           1     -20.757 -10.034  -1.856  0.00  0.00     0.252 C 
HETATM   19  O           1     -20.223 -10.390  -0.832  0.00  0.00    -0.271 OA
BRANCH  18  20
HETATM   20  C           1     -22.248  -9.806  -1.891  0.00  0.00     0.370 C 
HETATM   21  C           1     -22.816  -9.729  -0.485  0.00  0.00     0.048 C 
HETATM   22  C           1     -23.296 -11.142  -0.172  0.00  0.00     0.033 C 
HETATM   23  C           1     -22.983 -11.951  -1.419  0.00  0.00     0.271 C 
HETATM   24  N           1     -22.935 -10.951  -2.481  0.00  0.00     0.097 N 
HETATM   25  H           1     -23.885 -10.700  -2.755  0.00  0.00     0.317 HD
ENDBRANCH  18  20
ENDBRANCH   1  16
TORSDOF 5
ENDMDL
MODEL 7
REMARK VINA RESULT:      -6.9     14.035     16.454
REMARK  5 active torsions:
REMARK  status: ('A' for Active; 'I' for Inactive)
REMARK    1  A    between atoms: C_4  and  C_13 
REMARK    2  A    between atoms: C_4  and  C_7 
REMARK    3  A    between atoms: C_4  and  N_20 
REMARK    4  A    between atoms: C_7  and  C_16 
REMARK       I    between atoms: C_18  and  N_20 
REMARK    5  A    between atoms: C_18  and  C_23 
ROOT
HETATM    1  C           1     -36.821  -1.025 -10.910  0.00  0.00     0.189 C 
ENDROOT
BRANCH   1   2
HETATM    2  C           1     -36.767   0.090 -11.926  0.00  0.00     0.197 C 
HETATM    3  O           1     -35.680   0.651 -12.179  0.00  0.00    -0.646 OA
HETATM    4  O           1     -37.809   0.451 -12.513  0.00  0.00    -0.646 OA
ENDBRANCH   1   2
BRANCH   1   5
HETATM    5  C           1     -37.974  -0.780  -9.946  0.00  0.00     0.073 C 
BRANCH   5   6
HETATM    6  C           1     -37.536   0.167  -8.872  0.00  0.00    -0.047 A 
HETATM    7  C           1     -37.614  -0.061  -7.470  0.00  0.00    -0.006 A 
HETATM    8  C           1     -37.101   1.073  -6.840  0.00  0.00     0.038 A 
HETATM    9  C           1     -38.075  -1.128  -6.675  0.00  0.00     0.014 A 
HETATM   10  N           1     -36.728   1.952  -7.832  0.00  0.00    -0.385 N 
HETATM   11  C           1     -37.024   1.194  -5.448  0.00  0.00     0.030 A 
HETATM   12  H           1     -36.304   2.899  -7.667  0.00  0.00     0.160 HD
HETATM   13  C           1     -36.987   1.414  -9.065  0.00  0.00     0.093 A 
HETATM   14  C           1     -37.487   0.122  -4.680  0.00  0.00     0.002 A 
HETATM   15  C           1     -38.005  -1.023  -5.282  0.00  0.00     0.001 A 
ENDBRANCH   5   6
ENDBRANCH   1   5
BRANCH   1  16
HETATM   16  N           1     -35.575  -1.066 -10.170  0.00  0.00    -0.344 N 
HETATM   17  H           1     -35.383  -0.370  -9.462  0.00  0.00     0.163 HD
HETATM   18  C           1     -34.657  -2.048 -10.431  0.00  0.00     0.252 C 
HETATM   19  O           1     -33.618  -2.082  -9.815  0.00  0.00    -0.271 OA
BRANCH  18  20
HETATM   20  C           1     -34.942  -3.087 -11.487  0.00  0.00     0.370 C 
HETATM   21  C           1     -35.100  -4.463 -10.864  0.00  0.00     0.048 C 
HETATM   22  C           1     -33.722  -5.106 -10.964  0.00  0.00     0.033 C 
HETATM   23  C           1     -32.849  -4.067 -11.647  0.00  0.00     0.271 C 
HETATM   24  N           1     -33.801  -3.242 -12.385  0.00  0.00     0.097 N 
HETATM   25  H           1     -34.077  -3.725 -13.240  0.00  0.00     0.317 HD
ENDBRANCH  18  20
ENDBRANCH   1  16
TORSDOF 5
ENDMDL
MODEL 8
REMARK VINA RESULT:      -6.7     19.331     21.010
REMARK  5 active torsions:
REMARK  status: ('A' for Active; 'I' for Inactive)
REMARK    1  A    between atoms: C_4  and  C_13 
REMARK    2  A    between atoms: C_4  and  C_7 
REMARK    3  A    between atoms: C_4  and  N_20 
REMARK    4  A    between atoms: C_7  and  C_16 
REMARK       I    between atoms: C_18  and  N_20 
REMARK    5  A    between atoms: C_18  and  C_23 
ROOT
HETATM    1  C           1     -11.162   6.953 -20.461  0.00  0.00     0.189 C 
ENDROOT
BRANCH   1   2
HETATM    2  C           1     -10.028   5.966 -20.326  0.00  0.00     0.197 C 
HETATM    3  O           1     -10.273   4.746 -20.207  0.00  0.00    -0.646 OA
HETATM    4  O           1      -8.845   6.368 -20.332  0.00  0.00    -0.646 OA
ENDBRANCH   1   2
BRANCH   1   5
HETATM    5  C           1     -10.751   8.286 -19.851  0.00  0.00     0.073 C 
BRANCH   5   6
HETATM    6  C           1     -11.671   9.363 -20.334  0.00  0.00    -0.047 A 
HETATM    7  C           1     -12.753   9.930 -19.606  0.00  0.00    -0.006 A 
HETATM    8  C           1     -13.341  10.894 -20.427  0.00  0.00     0.038 A 
HETATM    9  C           1     -13.292   9.715 -18.324  0.00  0.00     0.014 A 
HETATM   10  N           1     -12.633  10.903 -21.608  0.00  0.00    -0.385 N 
HETATM   11  C           1     -14.444  11.656 -20.027  0.00  0.00     0.030 A 
HETATM   12  H           1     -12.840  11.528 -22.427  0.00  0.00     0.160 HD
HETATM   13  C           1     -11.621   9.981 -21.563  0.00  0.00     0.093 A 
HETATM   14  C           1     -14.961  11.424 -18.749  0.00  0.00     0.002 A 
HETATM   15  C           1     -14.394  10.468 -17.908  0.00  0.00     0.001 A 
ENDBRANCH   5   6
ENDBRANCH   1   5
BRANCH   1  16
HETATM   16  N           1     -12.330   6.445 -19.769  0.00  0.00    -0.344 N 
HETATM   17  H           1     -12.378   6.487 -18.760  0.00  0.00     0.163 HD
HETATM   18  C           1     -13.368   5.909 -20.482  0.00  0.00     0.252 C 
HETATM   19  O           1     -14.341   5.485 -19.904  0.00  0.00    -0.271 OA
BRANCH  18  20
HETATM   20  C           1     -13.297   5.846 -21.988  0.00  0.00     0.370 C 
HETATM   21  C           1     -14.679   5.651 -22.587  0.00  0.00     0.048 C 
HETATM   22  C           1     -14.819   4.146 -22.784  0.00  0.00     0.033 C 
HETATM   23  C           1     -13.505   3.559 -22.294  0.00  0.00     0.271 C 
HETATM   24  N           1     -12.560   4.664 -22.425  0.00  0.00     0.097 N 
HETATM   25  H           1     -12.276   4.755 -23.400  0.00  0.00     0.317 HD
ENDBRANCH  18  20
ENDBRANCH   1  16
TORSDOF 5
ENDMDL
MODEL 9
REMARK VINA RESULT:      -6.4      5.037      7.385
REMARK  5 active torsions:
REMARK  status: ('A' for Active; 'I' for Inactive)
REMARK    1  A    between atoms: C_4  and  C_13 
REMARK    2  A    between atoms: C_4  and  C_7 
REMARK    3  A    between atoms: C_4  and  N_20 
REMARK    4  A    between atoms: C_7  and  C_16 
REMARK       I    between atoms: C_18  and  N_20 
REMARK    5  A    between atoms: C_18  and  C_23 
ROOT
HETATM    1  C           1     -20.144  -9.770  -4.859  0.00  0.00     0.189 C 
ENDROOT
BRANCH   1   2
HETATM    2  C           1     -20.788 -11.110  -5.117  0.00  0.00     0.197 C 
HETATM    3  O           1     -20.676 -12.029  -4.278  0.00  0.00    -0.646 OA
HETATM    4  O           1     -21.432 -11.301  -6.171  0.00  0.00    -0.646 OA
ENDBRANCH   1   2
BRANCH   1   5
HETATM    5  C           1     -21.085  -8.659  -5.306  0.00  0.00     0.073 C 
BRANCH   5   6
HETATM    6  C           1     -21.352  -7.736  -4.158  0.00  0.00    -0.047 A 
HETATM    7  C           1     -21.702  -8.122  -2.835  0.00  0.00    -0.006 A 
HETATM    8  C           1     -21.858  -6.951  -2.092  0.00  0.00     0.038 A 
HETATM    9  C           1     -21.901  -9.360  -2.196  0.00  0.00     0.014 A 
HETATM   10  N           1     -21.610  -5.897  -2.943  0.00  0.00    -0.385 N 
HETATM   11  C           1     -22.205  -6.957  -0.736  0.00  0.00     0.030 A 
HETATM   12  H           1     -21.649  -4.883  -2.671  0.00  0.00     0.160 HD
HETATM   13  C           1     -21.303  -6.361  -4.195  0.00  0.00     0.093 A 
HETATM   14  C           1     -22.397  -8.199  -0.124  0.00  0.00     0.002 A 
HETATM   15  C           1     -22.249  -9.384  -0.841  0.00  0.00     0.001 A 
ENDBRANCH   5   6
ENDBRANCH   1   5
BRANCH   1  16
HETATM   16  N           1     -18.903  -9.679  -5.602  0.00  0.00    -0.344 N 
HETATM   17  H           1     -18.921  -9.596  -6.610  0.00  0.00     0.163 HD
HETATM   18  C           1     -17.705  -9.705  -4.939  0.00  0.00     0.252 C 
HETATM   19  O           1     -16.671  -9.629  -5.559  0.00  0.00    -0.271 OA
BRANCH  18  20
HETATM   20  C           1     -17.677  -9.828  -3.435  0.00  0.00     0.370 C 
HETATM   21  C           1     -16.294  -9.516  -2.892  0.00  0.00     0.048 C 
HETATM   22  C           1     -15.603 -10.868  -2.763  0.00  0.00     0.033 C 
HETATM   23  C           1     -16.630 -11.885  -3.231  0.00  0.00     0.271 C 
HETATM   24  N           1     -17.908 -11.210  -3.023  0.00  0.00     0.097 N 
HETATM   25  H           1     -18.160 -11.255  -2.035  0.00  0.00     0.317 HD
ENDBRANCH  18  20
ENDBRANCH   1  16
TORSDOF 5
ENDMDL
