MODEL 1
REMARK VINA RESULT:      -6.3      0.000      0.000
REMARK  9 active torsions:
REMARK  status: ('A' for Active; 'I' for Inactive)
REMARK    1  A    between atoms: C_2  and  C_15 
REMARK    2  A    between atoms: C_2  and  C_3 
REMARK    3  A    between atoms: C_3  and  C_10 
REMARK    4  A    between atoms: C_3  and  N_4 
REMARK       I    between atoms: N_4  and  C_5 
REMARK    5  A    between atoms: C_5  and  C_6 
REMARK    6  A    between atoms: C_6  and  C_17 
REMARK    7  A    between atoms: C_6  and  N_18 
REMARK    8  A    between atoms: S_12  and  C_16 
REMARK    9  A    between atoms: C_16  and  C_17 
ROOT
HETATM    1  N           1     -34.982  -1.610 -13.176  0.00  0.00    -0.344 N 
HETATM    2  C           1     -34.286  -2.393 -12.295  0.00  0.00     0.249 C 
HETATM    3  H           1     -35.340  -2.010 -14.035  0.00  0.00     0.163 HD
HETATM    4  O           1     -33.861  -1.916 -11.270  0.00  0.00    -0.271 OA
ENDROOT
BRANCH   2   5
HETATM    5  C           1     -34.051  -3.851 -12.603  0.00  0.00     0.275 C 
BRANCH   5   6
HETATM    6  C           1     -32.795  -4.326 -11.885  0.00  0.00     0.053 C 
BRANCH   6   7
HETATM    7  C           1     -33.047  -5.698 -11.275  0.00  0.00     0.076 C 
BRANCH   7   8
HETATM    8  S           1     -34.693  -5.727 -10.508  0.00  0.00    -0.173 SA
HETATM    9  C           1     -34.710  -7.505 -10.142  0.00  0.00     0.089 C 
ENDBRANCH   7   8
ENDBRANCH   6   7
ENDBRANCH   5   6
BRANCH   5  10
HETATM   10  N           1     -33.877  -4.026 -14.083  0.00  0.00    -0.066 N 
HETATM   11  H           1     -33.128  -4.732 -14.265  0.00  0.00     0.275 HD
HETATM   12  H           1     -34.776  -4.358 -14.501  0.00  0.00     0.275 HD
HETATM   13  H           1     -33.607  -3.113 -14.513  0.00  0.00     0.275 HD
ENDBRANCH   5  10
ENDBRANCH   2   5
BRANCH   1  14
HETATM   14  C           1     -35.208  -0.209 -12.880  0.00  0.00     0.195 C 
BRANCH  14  15
HETATM   15  C           1     -35.483   0.545 -14.174  0.00  0.00     0.149 C 
BRANCH  15  16
HETATM   16  C           1     -35.720  -0.442 -15.291  0.00  0.00     0.175 C 
HETATM   17  O           1     -36.885  -0.803 -15.569  0.00  0.00    -0.648 OA
HETATM   18  O           1     -34.753  -0.897 -15.939  0.00  0.00    -0.648 OA
ENDBRANCH  15  16
ENDBRANCH  14  15
BRANCH  14  19
HETATM   19  C           1     -36.395  -0.076 -11.957  0.00  0.00     0.197 C 
HETATM   20  O           1     -37.519  -0.481 -12.321  0.00  0.00    -0.646 OA
HETATM   21  O           1     -36.253   0.439 -10.827  0.00  0.00    -0.646 OA
ENDBRANCH  14  19
ENDBRANCH   1  14
TORSDOF 9
ENDMDL
MODEL 2
REMARK VINA RESULT:      -6.0      1.584      3.028
REMARK  9 active torsions:
REMARK  status: ('A' for Active; 'I' for Inactive)
REMARK    1  A    between atoms: C_2  and  C_15 
REMARK    2  A    between atoms: C_2  and  C_3 
REMARK    3  A    between atoms: C_3  and  C_10 
REMARK    4  A    between atoms: C_3  and  N_4 
REMARK       I    between atoms: N_4  and  C_5 
REMARK    5  A    between atoms: C_5  and  C_6 
REMARK    6  A    between atoms: C_6  and  C_17 
REMARK    7  A    between atoms: C_6  and  N_18 
REMARK    8  A    between atoms: S_12  and  C_16 
REMARK    9  A    between atoms: C_16  and  C_17 
ROOT
HETATM    1  N           1     -35.000  -1.187 -12.397  0.00  0.00    -0.344 N 
HETATM    2  C           1     -34.384  -2.407 -12.473  0.00  0.00     0.249 C 
HETATM    3  H           1     -34.874  -0.607 -11.577  0.00  0.00     0.163 HD
HETATM    4  O           1     -34.533  -3.098 -13.453  0.00  0.00    -0.271 OA
ENDROOT
BRANCH   2   5
HETATM    5  C           1     -33.518  -2.888 -11.335  0.00  0.00     0.275 C 
BRANCH   5   6
HETATM    6  C           1     -34.242  -3.993 -10.577  0.00  0.00     0.053 C 
BRANCH   6   7
HETATM    7  C           1     -33.630  -5.340 -10.933  0.00  0.00     0.076 C 
BRANCH   7   8
HETATM    8  S           1     -34.941  -6.487 -11.443  0.00  0.00    -0.173 SA
HETATM    9  C           1     -34.712  -7.668 -10.085  0.00  0.00     0.089 C 
ENDBRANCH   7   8
ENDBRANCH   6   7
ENDBRANCH   5   6
BRANCH   5  10
HETATM   10  N           1     -33.237  -1.746 -10.405  0.00  0.00    -0.066 N 
HETATM   11  H           1     -32.386  -1.960  -9.837  0.00  0.00     0.275 HD
HETATM   12  H           1     -33.073  -0.876 -10.962  0.00  0.00     0.275 HD
HETATM   13  H           1     -34.054  -1.605  -9.769  0.00  0.00     0.275 HD
ENDBRANCH   5  10
ENDBRANCH   2   5
BRANCH   1  14
HETATM   14  C           1     -35.832  -0.725 -13.491  0.00  0.00     0.195 C 
BRANCH  14  15
HETATM   15  C           1     -37.082  -0.059 -12.932  0.00  0.00     0.149 C 
BRANCH  15  16
HETATM   16  C           1     -37.108  -0.218 -11.431  0.00  0.00     0.175 C 
HETATM   17  O           1     -36.442   0.557 -10.709  0.00  0.00    -0.648 OA
HETATM   18  O           1     -37.794  -1.123 -10.909  0.00  0.00    -0.648 OA
ENDBRANCH  15  16
ENDBRANCH  14  15
BRANCH  14  19
HETATM   19  C           1     -35.060   0.270 -14.323  0.00  0.00     0.197 C 
HETATM   20  O           1     -34.718  -0.021 -15.489  0.00  0.00    -0.646 OA
HETATM   21  O           1     -34.763   1.387 -13.846  0.00  0.00    -0.646 OA
ENDBRANCH  14  19
ENDBRANCH   1  14
TORSDOF 9
ENDMDL
MODEL 3
REMARK VINA RESULT:      -5.7     12.506     14.305
REMARK  9 active torsions:
REMARK  status: ('A' for Active; 'I' for Inactive)
REMARK    1  A    between atoms: C_2  and  C_15 
REMARK    2  A    between atoms: C_2  and  C_3 
REMARK    3  A    between atoms: C_3  and  C_10 
REMARK    4  A    between atoms: C_3  and  N_4 
REMARK       I    between atoms: N_4  and  C_5 
REMARK    5  A    between atoms: C_5  and  C_6 
REMARK    6  A    between atoms: C_6  and  C_17 
REMARK    7  A    between atoms: C_6  and  N_18 
REMARK    8  A    between atoms: S_12  and  C_16 
REMARK    9  A    between atoms: C_16  and  C_17 
ROOT
HETATM    1  N           1     -22.277  -4.888  -8.916  0.00  0.00    -0.344 N 
HETATM    2  C           1     -21.716  -4.686  -7.684  0.00  0.00     0.249 C 
HETATM    3  H           1     -22.328  -5.822  -9.302  0.00  0.00     0.163 HD
HETATM    4  O           1     -21.656  -3.571  -7.223  0.00  0.00    -0.271 OA
ENDROOT
BRANCH   2   5
HETATM    5  C           1     -21.174  -5.856  -6.901  0.00  0.00     0.275 C 
BRANCH   5   6
HETATM    6  C           1     -21.098  -5.489  -5.425  0.00  0.00     0.053 C 
BRANCH   6   7
HETATM    7  C           1     -22.086  -6.338  -4.638  0.00  0.00     0.076 C 
BRANCH   7   8
HETATM    8  S           1     -21.241  -7.097  -3.222  0.00  0.00    -0.173 SA
HETATM    9  C           1     -22.244  -6.295  -1.938  0.00  0.00     0.089 C 
ENDBRANCH   7   8
ENDBRANCH   6   7
ENDBRANCH   5   6
BRANCH   5  10
HETATM   10  N           1     -19.802  -6.199  -7.401  0.00  0.00    -0.066 N 
HETATM   11  H           1     -19.423  -7.006  -6.856  0.00  0.00     0.275 HD
HETATM   12  H           1     -19.856  -6.459  -8.413  0.00  0.00     0.275 HD
HETATM   13  H           1     -19.172  -5.374  -7.285  0.00  0.00     0.275 HD
ENDBRANCH   5  10
ENDBRANCH   2   5
BRANCH   1  14
HETATM   14  C           1     -22.798  -3.763  -9.669  0.00  0.00     0.195 C 
BRANCH  14  15
HETATM   15  C           1     -22.269  -3.819 -11.095  0.00  0.00     0.149 C 
BRANCH  15  16
HETATM   16  C           1     -20.766  -3.678 -11.081  0.00  0.00     0.175 C 
HETATM   17  O           1     -20.240  -2.571 -11.331  0.00  0.00    -0.648 OA
HETATM   18  O           1     -20.047  -4.666 -10.820  0.00  0.00    -0.648 OA
ENDBRANCH  15  16
ENDBRANCH  14  15
BRANCH  14  19
HETATM   19  C           1     -24.305  -3.827  -9.688  0.00  0.00     0.197 C 
HETATM   20  O           1     -24.978  -2.786  -9.525  0.00  0.00    -0.646 OA
HETATM   21  O           1     -24.883  -4.921  -9.867  0.00  0.00    -0.646 OA
ENDBRANCH  14  19
ENDBRANCH   1  14
TORSDOF 9
ENDMDL
MODEL 4
REMARK VINA RESULT:      -5.5     12.238     14.089
REMARK  9 active torsions:
REMARK  status: ('A' for Active; 'I' for Inactive)
REMARK    1  A    between atoms: C_2  and  C_15 
REMARK    2  A    between atoms: C_2  and  C_3 
REMARK    3  A    between atoms: C_3  and  C_10 
REMARK    4  A    between atoms: C_3  and  N_4 
REMARK       I    between atoms: N_4  and  C_5 
REMARK    5  A    between atoms: C_5  and  C_6 
REMARK    6  A    between atoms: C_6  and  C_17 
REMARK    7  A    between atoms: C_6  and  N_18 
REMARK    8  A    between atoms: S_12  and  C_16 
REMARK    9  A    between atoms: C_16  and  C_17 
ROOT
HETATM    1  N           1     -21.833  -3.838  -9.743  0.00  0.00    -0.344 N 
HETATM    2  C           1     -20.667  -4.279  -9.177  0.00  0.00     0.249 C 
HETATM    3  H           1     -22.407  -3.161  -9.257  0.00  0.00     0.163 HD
HETATM    4  O           1     -19.981  -5.086  -9.759  0.00  0.00    -0.271 OA
ENDROOT
BRANCH   2   5
HETATM    5  C           1     -20.238  -3.758  -7.828  0.00  0.00     0.275 C 
BRANCH   5   6
HETATM    6  C           1     -19.518  -4.859  -7.062  0.00  0.00     0.053 C 
BRANCH   6   7
HETATM    7  C           1     -20.166  -5.036  -5.697  0.00  0.00     0.076 C 
BRANCH   7   8
HETATM    8  S           1     -20.743  -6.748  -5.516  0.00  0.00    -0.173 SA
HETATM    9  C           1     -21.670  -6.485  -3.977  0.00  0.00     0.089 C 
ENDBRANCH   7   8
ENDBRANCH   6   7
ENDBRANCH   5   6
BRANCH   5  10
HETATM   10  N           1     -21.447  -3.320  -7.055  0.00  0.00    -0.066 N 
HETATM   11  H           1     -22.305  -3.477  -7.630  0.00  0.00     0.275 HD
HETATM   12  H           1     -21.514  -3.876  -6.172  0.00  0.00     0.275 HD
HETATM   13  H           1     -21.364  -2.305  -6.824  0.00  0.00     0.275 HD
ENDBRANCH   5  10
ENDBRANCH   2   5
BRANCH   1  14
HETATM   14  C           1     -22.245  -4.339 -11.040  0.00  0.00     0.195 C 
BRANCH  14  15
HETATM   15  C           1     -23.669  -4.870 -10.949  0.00  0.00     0.149 C 
BRANCH  15  16
HETATM   16  C           1     -24.459  -4.028  -9.977  0.00  0.00     0.175 C 
HETATM   17  O           1     -25.328  -3.235 -10.400  0.00  0.00    -0.648 OA
HETATM   18  O           1     -24.245  -4.123  -8.749  0.00  0.00    -0.648 OA
ENDBRANCH  15  16
ENDBRANCH  14  15
BRANCH  14  19
HETATM   19  C           1     -22.187  -3.221 -12.052  0.00  0.00     0.197 C 
HETATM   20  O           1     -22.783  -3.336 -13.145  0.00  0.00    -0.646 OA
HETATM   21  O           1     -21.545  -2.180 -11.798  0.00  0.00    -0.646 OA
ENDBRANCH  14  19
ENDBRANCH   1  14
TORSDOF 9
ENDMDL
MODEL 5
REMARK VINA RESULT:      -5.2     12.148     14.776
REMARK  9 active torsions:
REMARK  status: ('A' for Active; 'I' for Inactive)
REMARK    1  A    between atoms: C_2  and  C_15 
REMARK    2  A    between atoms: C_2  and  C_3 
REMARK    3  A    between atoms: C_3  and  C_10 
REMARK    4  A    between atoms: C_3  and  N_4 
REMARK       I    between atoms: N_4  and  C_5 
REMARK    5  A    between atoms: C_5  and  C_6 
REMARK    6  A    between atoms: C_6  and  C_17 
REMARK    7  A    between atoms: C_6  and  N_18 
REMARK    8  A    between atoms: S_12  and  C_16 
REMARK    9  A    between atoms: C_16  and  C_17 
ROOT
HETATM    1  N           1     -22.230  -5.272  -8.517  0.00  0.00    -0.344 N 
HETATM    2  C           1     -23.139  -4.306  -8.855  0.00  0.00     0.249 C 
HETATM    3  H           1     -22.305  -6.198  -8.916  0.00  0.00     0.163 HD
HETATM    4  O           1     -23.050  -3.199  -8.379  0.00  0.00    -0.271 OA
ENDROOT
BRANCH   2   5
HETATM    5  C           1     -24.252  -4.623  -9.823  0.00  0.00     0.275 C 
BRANCH   5   6
HETATM    6  C           1     -23.707  -4.621 -11.244  0.00  0.00     0.053 C 
BRANCH   6   7
HETATM    7  C           1     -24.310  -3.458 -12.019  0.00  0.00     0.076 C 
BRANCH   7   8
HETATM    8  S           1     -23.016  -2.645 -12.999  0.00  0.00    -0.173 SA
HETATM    9  C           1     -21.689  -2.838 -11.775  0.00  0.00     0.089 C 
ENDBRANCH   7   8
ENDBRANCH   6   7
ENDBRANCH   5   6
BRANCH   5  10
HETATM   10  N           1     -25.330  -3.586  -9.700  0.00  0.00    -0.066 N 
HETATM   11  H           1     -25.244  -3.101  -8.779  0.00  0.00     0.275 HD
HETATM   12  H           1     -25.229  -2.888 -10.471  0.00  0.00     0.275 HD
HETATM   13  H           1     -26.266  -4.047  -9.766  0.00  0.00     0.275 HD
ENDBRANCH   5  10
ENDBRANCH   2   5
BRANCH   1  14
HETATM   14  C           1     -21.161  -4.967  -7.586  0.00  0.00     0.195 C 
BRANCH  14  15
HETATM   15  C           1     -20.937  -6.157  -6.663  0.00  0.00     0.149 C 
BRANCH  15  16
HETATM   16  C           1     -21.734  -5.967  -5.395  0.00  0.00     0.175 C 
HETATM   17  O           1     -22.983  -5.910  -5.444  0.00  0.00    -0.648 OA
HETATM   18  O           1     -21.147  -5.866  -4.296  0.00  0.00    -0.648 OA
ENDBRANCH  15  16
ENDBRANCH  14  15
BRANCH  14  19
HETATM   19  C           1     -19.894  -4.681  -8.355  0.00  0.00     0.197 C 
HETATM   20  O           1     -18.873  -4.282  -7.752  0.00  0.00    -0.646 OA
HETATM   21  O           1     -19.864  -4.842  -9.594  0.00  0.00    -0.646 OA
ENDBRANCH  14  19
ENDBRANCH   1  14
TORSDOF 9
ENDMDL
MODEL 6
REMARK VINA RESULT:      -5.1      4.118      5.692
REMARK  9 active torsions:
REMARK  status: ('A' for Active; 'I' for Inactive)
REMARK    1  A    between atoms: C_2  and  C_15 
REMARK    2  A    between atoms: C_2  and  C_3 
REMARK    3  A    between atoms: C_3  and  C_10 
REMARK    4  A    between atoms: C_3  and  N_4 
REMARK       I    between atoms: N_4  and  C_5 
REMARK    5  A    between atoms: C_5  and  C_6 
REMARK    6  A    between atoms: C_6  and  C_17 
REMARK    7  A    between atoms: C_6  and  N_18 
REMARK    8  A    between atoms: S_12  and  C_16 
REMARK    9  A    between atoms: C_16  and  C_17 
ROOT
HETATM    1  N           1     -33.306  -4.014 -14.268  0.00  0.00    -0.344 N 
HETATM    2  C           1     -33.860  -4.507 -15.418  0.00  0.00     0.249 C 
HETATM    3  H           1     -32.357  -3.664 -14.273  0.00  0.00     0.163 HD
HETATM    4  O           1     -34.994  -4.923 -15.413  0.00  0.00    -0.271 OA
ENDROOT
BRANCH   2   5
HETATM    5  C           1     -33.055  -4.530 -16.694  0.00  0.00     0.275 C 
BRANCH   5   6
HETATM    6  C           1     -31.593  -4.807 -16.369  0.00  0.00     0.053 C 
BRANCH   6   7
HETATM    7  C           1     -30.920  -5.459 -17.568  0.00  0.00     0.076 C 
BRANCH   7   8
HETATM    8  S           1     -29.734  -6.707 -16.993  0.00  0.00    -0.173 SA
HETATM    9  C           1     -29.855  -7.783 -18.451  0.00  0.00     0.089 C 
ENDBRANCH   7   8
ENDBRANCH   6   7
ENDBRANCH   5   6
BRANCH   5  10
HETATM   10  N           1     -33.170  -3.201 -17.381  0.00  0.00    -0.066 N 
HETATM   11  H           1     -34.129  -3.099 -17.784  0.00  0.00     0.275 HD
HETATM   12  H           1     -33.002  -2.436 -16.688  0.00  0.00     0.275 HD
HETATM   13  H           1     -32.462  -3.142 -18.146  0.00  0.00     0.275 HD
ENDBRANCH   5  10
ENDBRANCH   2   5
BRANCH   1  14
HETATM   14  C           1     -34.080  -3.993 -13.042  0.00  0.00     0.195 C 
BRANCH  14  15
HETATM   15  C           1     -33.187  -4.383 -11.872  0.00  0.00     0.149 C 
BRANCH  15  16
HETATM   16  C           1     -33.860  -5.466 -11.064  0.00  0.00     0.175 C 
HETATM   17  O           1     -34.985  -5.261 -10.559  0.00  0.00    -0.648 OA
HETATM   18  O           1     -33.293  -6.568 -10.901  0.00  0.00    -0.648 OA
ENDBRANCH  15  16
ENDBRANCH  14  15
BRANCH  14  19
HETATM   19  C           1     -34.626  -2.604 -12.817  0.00  0.00     0.197 C 
HETATM   20  O           1     -34.687  -2.135 -11.660  0.00  0.00    -0.646 OA
HETATM   21  O           1     -35.018  -1.921 -13.788  0.00  0.00    -0.646 OA
ENDBRANCH  14  19
ENDBRANCH   1  14
TORSDOF 9
ENDMDL
MODEL 7
REMARK VINA RESULT:      -4.9     14.452     16.854
REMARK  9 active torsions:
REMARK  status: ('A' for Active; 'I' for Inactive)
REMARK    1  A    between atoms: C_2  and  C_15 
REMARK    2  A    between atoms: C_2  and  C_3 
REMARK    3  A    between atoms: C_3  and  C_10 
REMARK    4  A    between atoms: C_3  and  N_4 
REMARK       I    between atoms: N_4  and  C_5 
REMARK    5  A    between atoms: C_5  and  C_6 
REMARK    6  A    between atoms: C_6  and  C_17 
REMARK    7  A    between atoms: C_6  and  N_18 
REMARK    8  A    between atoms: S_12  and  C_16 
REMARK    9  A    between atoms: C_16  and  C_17 
ROOT
HETATM    1  N           1     -20.922  -6.730  -4.796  0.00  0.00    -0.344 N 
HETATM    2  C           1     -21.643  -5.894  -5.606  0.00  0.00     0.249 C 
HETATM    3  H           1     -19.913  -6.766  -4.876  0.00  0.00     0.163 HD
HETATM    4  O           1     -22.846  -5.850  -5.509  0.00  0.00    -0.271 OA
ENDROOT
BRANCH   2   5
HETATM    5  C           1     -20.935  -5.027  -6.617  0.00  0.00     0.275 C 
BRANCH   5   6
HETATM    6  C           1     -21.964  -4.258  -7.436  0.00  0.00     0.053 C 
BRANCH   6   7
HETATM    7  C           1     -21.472  -4.119  -8.870  0.00  0.00     0.076 C 
BRANCH   7   8
HETATM    8  S           1     -22.843  -4.441 -10.015  0.00  0.00    -0.173 SA
HETATM    9  C           1     -21.867  -4.299 -11.539  0.00  0.00     0.089 C 
ENDBRANCH   7   8
ENDBRANCH   6   7
ENDBRANCH   5   6
BRANCH   5  10
HETATM   10  N           1     -20.117  -5.892  -7.530  0.00  0.00    -0.066 N 
HETATM   11  H           1     -20.671  -6.118  -8.386  0.00  0.00     0.275 HD
HETATM   12  H           1     -19.246  -5.381  -7.804  0.00  0.00     0.275 HD
HETATM   13  H           1     -19.862  -6.777  -7.036  0.00  0.00     0.275 HD
ENDBRANCH   5  10
ENDBRANCH   2   5
BRANCH   1  14
HETATM   14  C           1     -21.602  -7.563  -3.824  0.00  0.00     0.195 C 
BRANCH  14  15
HETATM   15  C           1     -20.940  -8.934  -3.780  0.00  0.00     0.149 C 
BRANCH  15  16
HETATM   16  C           1     -20.403  -9.278  -5.148  0.00  0.00     0.175 C 
HETATM   17  O           1     -19.191  -9.108  -5.405  0.00  0.00    -0.648 OA
HETATM   18  O           1     -21.170  -9.734  -6.024  0.00  0.00    -0.648 OA
ENDBRANCH  15  16
ENDBRANCH  14  15
BRANCH  14  19
HETATM   19  C           1     -21.516  -6.918  -2.462  0.00  0.00     0.197 C 
HETATM   20  O           1     -22.203  -5.906  -2.205  0.00  0.00    -0.646 OA
HETATM   21  O           1     -20.758  -7.396  -1.591  0.00  0.00    -0.646 OA
ENDBRANCH  14  19
ENDBRANCH   1  14
TORSDOF 9
ENDMDL
MODEL 8
REMARK VINA RESULT:      -4.8     15.605     18.043
REMARK  9 active torsions:
REMARK  status: ('A' for Active; 'I' for Inactive)
REMARK    1  A    between atoms: C_2  and  C_15 
REMARK    2  A    between atoms: C_2  and  C_3 
REMARK    3  A    between atoms: C_3  and  C_10 
REMARK    4  A    between atoms: C_3  and  N_4 
REMARK       I    between atoms: N_4  and  C_5 
REMARK    5  A    between atoms: C_5  and  C_6 
REMARK    6  A    between atoms: C_6  and  C_17 
REMARK    7  A    between atoms: C_6  and  N_18 
REMARK    8  A    between atoms: S_12  and  C_16 
REMARK    9  A    between atoms: C_16  and  C_17 
ROOT
HETATM    1  N           1     -21.702  -8.275  -2.993  0.00  0.00    -0.344 N 
HETATM    2  C           1     -20.968  -7.948  -4.101  0.00  0.00     0.249 C 
HETATM    3  H           1     -22.688  -8.051  -2.955  0.00  0.00     0.163 HD
HETATM    4  O           1     -19.791  -8.217  -4.147  0.00  0.00    -0.271 OA
ENDROOT
BRANCH   2   5
HETATM    5  C           1     -21.628  -7.252  -5.266  0.00  0.00     0.275 C 
BRANCH   5   6
HETATM    6  C           1     -20.572  -6.525  -6.088  0.00  0.00     0.053 C 
BRANCH   6   7
HETATM    7  C           1     -20.642  -5.032  -5.799  0.00  0.00     0.076 C 
BRANCH   7   8
HETATM    8  S           1     -20.605  -4.109  -7.362  0.00  0.00    -0.173 SA
HETATM    9  C           1     -22.377  -4.260  -7.725  0.00  0.00     0.089 C 
ENDBRANCH   7   8
ENDBRANCH   6   7
ENDBRANCH   5   6
BRANCH   5  10
HETATM   10  N           1     -22.630  -6.262  -4.752  0.00  0.00    -0.066 N 
HETATM   11  H           1     -22.131  -5.433  -4.358  0.00  0.00     0.275 HD
HETATM   12  H           1     -23.248  -5.954  -5.537  0.00  0.00     0.275 HD
HETATM   13  H           1     -23.209  -6.708  -4.005  0.00  0.00     0.275 HD
ENDBRANCH   5  10
ENDBRANCH   2   5
BRANCH   1  14
HETATM   14  C           1     -21.067  -8.944  -1.874  0.00  0.00     0.195 C 
BRANCH  14  15
HETATM   15  C           1     -21.097  -8.031  -0.655  0.00  0.00     0.149 C 
BRANCH  15  16
HETATM   16  C           1     -22.341  -7.178  -0.696  0.00  0.00     0.175 C 
HETATM   17  O           1     -23.358  -7.523  -0.055  0.00  0.00    -0.648 OA
HETATM   18  O           1     -22.356  -6.125  -1.370  0.00  0.00    -0.648 OA
ENDBRANCH  15  16
ENDBRANCH  14  15
BRANCH  14  19
HETATM   19  C           1     -21.809 -10.221  -1.566  0.00  0.00     0.197 C 
HETATM   20  O           1     -22.639 -10.675  -2.382  0.00  0.00    -0.646 OA
HETATM   21  O           1     -21.593 -10.826  -0.494  0.00  0.00    -0.646 OA
ENDBRANCH  14  19
ENDBRANCH   1  14
TORSDOF 9
ENDMDL
MODEL 9
REMARK VINA RESULT:      -4.8     13.019     14.936
REMARK  9 active torsions:
REMARK  status: ('A' for Active; 'I' for Inactive)
REMARK    1  A    between atoms: C_2  and  C_15 
REMARK    2  A    between atoms: C_2  and  C_3 
REMARK    3  A    between atoms: C_3  and  C_10 
REMARK    4  A    between atoms: C_3  and  N_4 
REMARK       I    between atoms: N_4  and  C_5 
REMARK    5  A    between atoms: C_5  and  C_6 
REMARK    6  A    between atoms: C_6  and  C_17 
REMARK    7  A    between atoms: C_6  and  N_18 
REMARK    8  A    between atoms: S_12  and  C_16 
REMARK    9  A    between atoms: C_16  and  C_17 
ROOT
HETATM    1  N           1     -22.008  -4.759  -7.297  0.00  0.00    -0.344 N 
HETATM    2  C           1     -21.446  -5.824  -6.646  0.00  0.00     0.249 C 
HETATM    3  H           1     -22.482  -4.037  -6.770  0.00  0.00     0.163 HD
HETATM    4  O           1     -20.879  -6.685  -7.276  0.00  0.00    -0.271 OA
ENDROOT
BRANCH   2   5
HETATM    5  C           1     -21.535  -5.923  -5.144  0.00  0.00     0.275 C 
BRANCH   5   6
HETATM    6  C           1     -20.673  -7.081  -4.658  0.00  0.00     0.053 C 
BRANCH   6   7
HETATM    7  C           1     -21.557  -8.135  -4.008  0.00  0.00     0.076 C 
BRANCH   7   8
HETATM    8  S           1     -20.963  -8.472  -2.326  0.00  0.00    -0.173 SA
HETATM    9  C           1     -21.861  -7.115  -1.522  0.00  0.00     0.089 C 
ENDBRANCH   7   8
ENDBRANCH   6   7
ENDBRANCH   5   6
BRANCH   5  10
HETATM   10  N           1     -22.960  -6.160  -4.742  0.00  0.00    -0.066 N 
HETATM   11  H           1     -23.448  -6.702  -5.491  0.00  0.00     0.275 HD
HETATM   12  H           1     -22.984  -6.702  -3.849  0.00  0.00     0.275 HD
HETATM   13  H           1     -23.441  -5.242  -4.608  0.00  0.00     0.275 HD
ENDBRANCH   5  10
ENDBRANCH   2   5
BRANCH   1  14
HETATM   14  C           1     -21.923  -4.664  -8.741  0.00  0.00     0.195 C 
BRANCH  14  15
HETATM   15  C           1     -22.880  -3.589  -9.236  0.00  0.00     0.149 C 
BRANCH  15  16
HETATM   16  C           1     -24.020  -4.235  -9.985  0.00  0.00     0.175 C 
HETATM   17  O           1     -25.137  -3.675 -10.029  0.00  0.00    -0.648 OA
HETATM   18  O           1     -23.848  -5.330 -10.562  0.00  0.00    -0.648 OA
ENDBRANCH  15  16
ENDBRANCH  14  15
BRANCH  14  19
HETATM   19  C           1     -20.512  -4.304  -9.139  0.00  0.00     0.197 C 
HETATM   20  O           1     -20.040  -4.721 -10.218  0.00  0.00    -0.646 OA
HETATM   21  O           1     -19.814  -3.589  -8.388  0.00  0.00    -0.646 OA
ENDBRANCH  14  19
ENDBRANCH   1  14
TORSDOF 9
ENDMDL
