MODEL 1
REMARK VINA RESULT:      -5.4      0.000      0.000
REMARK  4 active torsions:
REMARK  status: ('A' for Active; 'I' for Inactive)
REMARK    1  A    between atoms: N_1  and  C_6 
REMARK       I    between atoms: N_1  and  C_2 
REMARK    2  A    between atoms: C_2  and  C_10 
REMARK    3  A    between atoms: C_4  and  C_6 
REMARK    4  A    between atoms: C_10  and  N_11 
ROOT
HETATM    1  N           1     -28.542  -7.627 -16.614  0.00  0.00    -0.350 N 
HETATM    2  C           1     -29.606  -6.921 -17.108  0.00  0.00     0.243 C 
HETATM    3  H           1     -28.268  -8.499 -17.049  0.00  0.00     0.163 HD
HETATM    4  O           1     -29.932  -5.881 -16.589  0.00  0.00    -0.272 OA
ENDROOT
BRANCH   2   5
HETATM    5  C           1     -30.371  -7.443 -18.300  0.00  0.00     0.332 C 
BRANCH   5   6
HETATM    6  N           1     -29.597  -8.555 -18.943  0.00  0.00    -0.071 N 
HETATM    7  H           1     -28.581  -8.437 -18.737  0.00  0.00     0.274 HD
HETATM    8  H           1     -29.750  -8.532 -19.977  0.00  0.00     0.274 HD
HETATM    9  H           1     -29.925  -9.472 -18.564  0.00  0.00     0.274 HD
ENDBRANCH   5   6
ENDBRANCH   2   5
BRANCH   1  10
HETATM   10  C           1     -27.807  -7.126 -15.469  0.00  0.00     0.235 C 
BRANCH  10  11
HETATM   11  C           1     -26.414  -6.733 -15.896  0.00  0.00     0.191 C 
HETATM   12  O           1     -25.426  -7.358 -15.455  0.00  0.00    -0.647 OA
HETATM   13  O           1     -26.249  -5.782 -16.690  0.00  0.00    -0.647 OA
ENDBRANCH  10  11
ENDBRANCH   1  10
TORSDOF 4
ENDMDL
MODEL 2
REMARK VINA RESULT:      -5.1      7.279      7.936
REMARK  4 active torsions:
REMARK  status: ('A' for Active; 'I' for Inactive)
REMARK    1  A    between atoms: N_1  and  C_6 
REMARK       I    between atoms: N_1  and  C_2 
REMARK    2  A    between atoms: C_2  and  C_10 
REMARK    3  A    between atoms: C_4  and  C_6 
REMARK    4  A    between atoms: C_10  and  N_11 
ROOT
HETATM    1  N           1     -23.641  -2.420 -12.896  0.00  0.00    -0.350 N 
HETATM    2  C           1     -23.561  -2.401 -14.262  0.00  0.00     0.243 C 
HETATM    3  H           1     -23.530  -1.562 -12.370  0.00  0.00     0.163 HD
HETATM    4  O           1     -23.693  -3.424 -14.888  0.00  0.00    -0.272 OA
ENDROOT
BRANCH   2   5
HETATM    5  C           1     -23.308  -1.101 -14.986  0.00  0.00     0.332 C 
BRANCH   5   6
HETATM    6  N           1     -24.566  -0.283 -15.001  0.00  0.00    -0.071 N 
HETATM    7  H           1     -24.399   0.602 -15.529  0.00  0.00     0.274 HD
HETATM    8  H           1     -24.845  -0.057 -14.019  0.00  0.00     0.274 HD
HETATM    9  H           1     -25.329  -0.826 -15.463  0.00  0.00     0.274 HD
ENDBRANCH   5   6
ENDBRANCH   2   5
BRANCH   1  10
HETATM   10  C           1     -23.884  -3.668 -12.200  0.00  0.00     0.235 C 
BRANCH  10  11
HETATM   11  C           1     -24.217  -3.385 -10.756  0.00  0.00     0.191 C 
HETATM   12  O           1     -23.312  -3.393  -9.893  0.00  0.00    -0.647 OA
HETATM   13  O           1     -25.396  -3.143 -10.423  0.00  0.00    -0.647 OA
ENDBRANCH  10  11
ENDBRANCH   1  10
TORSDOF 4
ENDMDL
MODEL 3
REMARK VINA RESULT:      -5.1      7.698      8.395
REMARK  4 active torsions:
REMARK  status: ('A' for Active; 'I' for Inactive)
REMARK    1  A    between atoms: N_1  and  C_6 
REMARK       I    between atoms: N_1  and  C_2 
REMARK    2  A    between atoms: C_2  and  C_10 
REMARK    3  A    between atoms: C_4  and  C_6 
REMARK    4  A    between atoms: C_10  and  N_11 
ROOT
HETATM    1  N           1     -23.503  -2.682 -11.890  0.00  0.00    -0.350 N 
HETATM    2  C           1     -23.953  -3.651 -11.036  0.00  0.00     0.243 C 
HETATM    3  H           1     -23.772  -1.717 -11.749  0.00  0.00     0.163 HD
HETATM    4  O           1     -23.632  -4.802 -11.205  0.00  0.00    -0.272 OA
ENDROOT
BRANCH   2   5
HETATM    5  C           1     -24.852  -3.281  -9.881  0.00  0.00     0.332 C 
BRANCH   5   6
HETATM    6  N           1     -24.217  -3.714  -8.593  0.00  0.00    -0.071 N 
HETATM    7  H           1     -24.366  -2.977  -7.868  0.00  0.00     0.274 HD
HETATM    8  H           1     -23.193  -3.857  -8.741  0.00  0.00     0.274 HD
HETATM    9  H           1     -24.651  -4.609  -8.274  0.00  0.00     0.274 HD
ENDBRANCH   5   6
ENDBRANCH   2   5
BRANCH   1  10
HETATM   10  C           1     -22.639  -3.037 -12.999  0.00  0.00     0.235 C 
BRANCH  10  11
HETATM   11  C           1     -23.223  -2.505 -14.285  0.00  0.00     0.191 C 
HETATM   12  O           1     -22.652  -2.735 -15.373  0.00  0.00    -0.647 OA
HETATM   13  O           1     -24.278  -1.836 -14.262  0.00  0.00    -0.647 OA
ENDBRANCH  10  11
ENDBRANCH   1  10
TORSDOF 4
ENDMDL
MODEL 4
REMARK VINA RESULT:      -4.9      8.302      9.013
REMARK  4 active torsions:
REMARK  status: ('A' for Active; 'I' for Inactive)
REMARK    1  A    between atoms: N_1  and  C_6 
REMARK       I    between atoms: N_1  and  C_2 
REMARK    2  A    between atoms: C_2  and  C_10 
REMARK    3  A    between atoms: C_4  and  C_6 
REMARK    4  A    between atoms: C_10  and  N_11 
ROOT
HETATM    1  N           1     -30.587 -15.546 -19.970  0.00  0.00    -0.350 N 
HETATM    2  C           1     -30.933 -15.228 -21.255  0.00  0.00     0.243 C 
HETATM    3  H           1     -30.268 -16.481 -19.748  0.00  0.00     0.163 HD
HETATM    4  O           1     -31.314 -14.114 -21.520  0.00  0.00    -0.272 OA
ENDROOT
BRANCH   2   5
HETATM    5  C           1     -30.838 -16.270 -22.343  0.00  0.00     0.332 C 
BRANCH   5   6
HETATM    6  N           1     -32.114 -17.057 -22.397  0.00  0.00    -0.071 N 
HETATM    7  H           1     -32.923 -16.418 -22.226  0.00  0.00     0.274 HD
HETATM    8  H           1     -32.095 -17.801 -21.663  0.00  0.00     0.274 HD
HETATM    9  H           1     -32.211 -17.498 -23.338  0.00  0.00     0.274 HD
ENDBRANCH   5   6
ENDBRANCH   2   5
BRANCH   1  10
HETATM   10  C           1     -30.678 -14.545 -18.925  0.00  0.00     0.235 C 
BRANCH  10  11
HETATM   11  C           1     -29.301 -14.013 -18.615  0.00  0.00     0.191 C 
HETATM   12  O           1     -28.938 -12.911 -19.081  0.00  0.00    -0.647 OA
HETATM   13  O           1     -28.524 -14.672 -17.892  0.00  0.00    -0.647 OA
ENDBRANCH  10  11
ENDBRANCH   1  10
TORSDOF 4
ENDMDL
MODEL 5
REMARK VINA RESULT:      -4.8      8.664      9.902
REMARK  4 active torsions:
REMARK  status: ('A' for Active; 'I' for Inactive)
REMARK    1  A    between atoms: N_1  and  C_6 
REMARK       I    between atoms: N_1  and  C_2 
REMARK    2  A    between atoms: C_2  and  C_10 
REMARK    3  A    between atoms: C_4  and  C_6 
REMARK    4  A    between atoms: C_10  and  N_11 
ROOT
HETATM    1  N           1     -30.550 -15.582 -20.261  0.00  0.00    -0.350 N 
HETATM    2  C           1     -29.789 -14.616 -19.660  0.00  0.00     0.243 C 
HETATM    3  H           1     -31.097 -16.220 -19.697  0.00  0.00     0.163 HD
HETATM    4  O           1     -29.137 -13.855 -20.333  0.00  0.00    -0.272 OA
ENDROOT
BRANCH   2   5
HETATM    5  C           1     -29.766 -14.501 -18.155  0.00  0.00     0.332 C 
BRANCH   5   6
HETATM    6  N           1     -28.442 -14.978 -17.636  0.00  0.00    -0.071 N 
HETATM    7  H           1     -28.485 -15.060 -16.596  0.00  0.00     0.274 HD
HETATM    8  H           1     -27.697 -14.294 -17.903  0.00  0.00     0.274 HD
HETATM    9  H           1     -28.221 -15.911 -18.051  0.00  0.00     0.274 HD
ENDBRANCH   5   6
ENDBRANCH   2   5
BRANCH   1  10
HETATM   10  C           1     -30.572 -15.692 -21.706  0.00  0.00     0.235 C 
BRANCH  10  11
HETATM   11  C           1     -31.832 -15.056 -22.241  0.00  0.00     0.191 C 
HETATM   12  O           1     -32.768 -15.774 -22.653  0.00  0.00    -0.647 OA
HETATM   13  O           1     -31.938 -13.811 -22.273  0.00  0.00    -0.647 OA
ENDBRANCH  10  11
ENDBRANCH   1  10
TORSDOF 4
ENDMDL
MODEL 6
REMARK VINA RESULT:      -4.7      7.598      8.368
REMARK  4 active torsions:
REMARK  status: ('A' for Active; 'I' for Inactive)
REMARK    1  A    between atoms: N_1  and  C_6 
REMARK       I    between atoms: N_1  and  C_2 
REMARK    2  A    between atoms: C_2  and  C_10 
REMARK    3  A    between atoms: C_4  and  C_6 
REMARK    4  A    between atoms: C_10  and  N_11 
ROOT
HETATM    1  N           1     -22.353  -3.305 -13.181  0.00  0.00    -0.350 N 
HETATM    2  C           1     -23.387  -2.590 -13.723  0.00  0.00     0.243 C 
HETATM    3  H           1     -21.444  -3.297 -13.625  0.00  0.00     0.163 HD
HETATM    4  O           1     -24.471  -2.600 -13.194  0.00  0.00    -0.272 OA
ENDROOT
BRANCH   2   5
HETATM    5  C           1     -23.170  -1.788 -14.984  0.00  0.00     0.332 C 
BRANCH   5   6
HETATM    6  N           1     -24.125  -0.632 -15.012  0.00  0.00    -0.071 N 
HETATM    7  H           1     -23.854   0.062 -14.280  0.00  0.00     0.274 HD
HETATM    8  H           1     -25.094  -0.977 -14.826  0.00  0.00     0.274 HD
HETATM    9  H           1     -24.093  -0.177 -15.952  0.00  0.00     0.274 HD
ENDBRANCH   5   6
ENDBRANCH   2   5
BRANCH   1  10
HETATM   10  C           1     -22.561  -4.076 -11.971  0.00  0.00     0.235 C 
BRANCH  10  11
HETATM   11  C           1     -21.412  -3.843 -11.021  0.00  0.00     0.191 C 
HETATM   12  O           1     -20.528  -3.005 -11.303  0.00  0.00    -0.647 OA
HETATM   13  O           1     -21.343  -4.488  -9.953  0.00  0.00    -0.647 OA
ENDBRANCH  10  11
ENDBRANCH   1  10
TORSDOF 4
ENDMDL
MODEL 7
REMARK VINA RESULT:      -4.7      7.585      9.074
REMARK  4 active torsions:
REMARK  status: ('A' for Active; 'I' for Inactive)
REMARK    1  A    between atoms: N_1  and  C_6 
REMARK       I    between atoms: N_1  and  C_2 
REMARK    2  A    between atoms: C_2  and  C_10 
REMARK    3  A    between atoms: C_4  and  C_6 
REMARK    4  A    between atoms: C_10  and  N_11 
ROOT
HETATM    1  N           1     -23.041  -3.150 -11.229  0.00  0.00    -0.350 N 
HETATM    2  C           1     -22.348  -3.828 -10.263  0.00  0.00     0.243 C 
HETATM    3  H           1     -23.914  -2.693 -11.001  0.00  0.00     0.163 HD
HETATM    4  O           1     -21.306  -4.373 -10.536  0.00  0.00    -0.272 OA
ENDROOT
BRANCH   2   5
HETATM    5  C           1     -22.887  -3.894  -8.854  0.00  0.00     0.332 C 
BRANCH   5   6
HETATM    6  N           1     -24.341  -3.523  -8.856  0.00  0.00    -0.071 N 
HETATM    7  H           1     -24.441  -2.509  -9.082  0.00  0.00     0.274 HD
HETATM    8  H           1     -24.749  -3.714  -7.913  0.00  0.00     0.274 HD
HETATM    9  H           1     -24.844  -4.091  -9.575  0.00  0.00     0.274 HD
ENDBRANCH   5   6
ENDBRANCH   2   5
BRANCH   1  10
HETATM   10  C           1     -22.523  -3.087 -12.582  0.00  0.00     0.235 C 
BRANCH  10  11
HETATM   11  C           1     -23.669  -2.949 -13.555  0.00  0.00     0.191 C 
HETATM   12  O           1     -23.456  -3.023 -14.784  0.00  0.00    -0.647 OA
HETATM   13  O           1     -24.829  -2.761 -13.131  0.00  0.00    -0.647 OA
ENDBRANCH  10  11
ENDBRANCH   1  10
TORSDOF 4
ENDMDL
MODEL 8
REMARK VINA RESULT:      -4.6      2.032      4.200
REMARK  4 active torsions:
REMARK  status: ('A' for Active; 'I' for Inactive)
REMARK    1  A    between atoms: N_1  and  C_6 
REMARK       I    between atoms: N_1  and  C_2 
REMARK    2  A    between atoms: C_2  and  C_10 
REMARK    3  A    between atoms: C_4  and  C_6 
REMARK    4  A    between atoms: C_10  and  N_11 
ROOT
HETATM    1  N           1     -26.938  -7.446 -16.092  0.00  0.00    -0.350 N 
HETATM    2  C           1     -25.693  -6.883 -16.024  0.00  0.00     0.243 C 
HETATM    3  H           1     -27.041  -8.416 -16.364  0.00  0.00     0.163 HD
HETATM    4  O           1     -25.570  -5.726 -15.699  0.00  0.00    -0.272 OA
ENDROOT
BRANCH   2   5
HETATM    5  C           1     -24.472  -7.707 -16.354  0.00  0.00     0.332 C 
BRANCH   5   6
HETATM    6  N           1     -24.129  -7.535 -17.804  0.00  0.00    -0.071 N 
HETATM    7  H           1     -23.125  -7.779 -17.955  0.00  0.00     0.274 HD
HETATM    8  H           1     -24.294  -6.542 -18.085  0.00  0.00     0.274 HD
HETATM    9  H           1     -24.731  -8.165 -18.381  0.00  0.00     0.274 HD
ENDBRANCH   5   6
ENDBRANCH   2   5
BRANCH   1  10
HETATM   10  C           1     -28.111  -6.655 -15.775  0.00  0.00     0.235 C 
BRANCH  10  11
HETATM   11  C           1     -29.155  -6.847 -16.847  0.00  0.00     0.191 C 
HETATM   12  O           1     -29.615  -5.857 -17.455  0.00  0.00    -0.647 OA
HETATM   13  O           1     -29.559  -7.996 -17.127  0.00  0.00    -0.647 OA
ENDBRANCH  10  11
ENDBRANCH   1  10
TORSDOF 4
ENDMDL
MODEL 9
REMARK VINA RESULT:      -4.6      7.441      8.755
REMARK  4 active torsions:
REMARK  status: ('A' for Active; 'I' for Inactive)
REMARK    1  A    between atoms: N_1  and  C_6 
REMARK       I    between atoms: N_1  and  C_2 
REMARK    2  A    between atoms: C_2  and  C_10 
REMARK    3  A    between atoms: C_4  and  C_6 
REMARK    4  A    between atoms: C_10  and  N_11 
ROOT
HETATM    1  N           1     -22.591  -3.547 -12.844  0.00  0.00    -0.350 N 
HETATM    2  C           1     -22.655  -3.440 -11.481  0.00  0.00     0.243 C 
HETATM    3  H           1     -21.729  -3.834 -13.290  0.00  0.00     0.163 HD
HETATM    4  O           1     -23.683  -3.097 -10.949  0.00  0.00    -0.272 OA
ENDROOT
BRANCH   2   5
HETATM    5  C           1     -21.439  -3.750 -10.642  0.00  0.00     0.332 C 
BRANCH   5   6
HETATM    6  N           1     -20.202  -3.601 -11.477  0.00  0.00    -0.071 N 
HETATM    7  H           1     -20.472  -3.387 -12.463  0.00  0.00     0.274 HD
HETATM    8  H           1     -19.655  -4.491 -11.450  0.00  0.00     0.274 HD
HETATM    9  H           1     -19.618  -2.822 -11.098  0.00  0.00     0.274 HD
ENDBRANCH   5   6
ENDBRANCH   2   5
BRANCH   1  10
HETATM   10  C           1     -23.758  -3.248 -13.650  0.00  0.00     0.235 C 
BRANCH  10  11
HETATM   11  C           1     -23.389  -2.258 -14.727  0.00  0.00     0.191 C 
HETATM   12  O           1     -24.051  -1.207 -14.862  0.00  0.00    -0.647 OA
HETATM   13  O           1     -22.421  -2.489 -15.483  0.00  0.00    -0.647 OA
ENDBRANCH  10  11
ENDBRANCH   1  10
TORSDOF 4
ENDMDL
