MODEL 1
REMARK VINA RESULT:      -5.9      0.000      0.000
REMARK  9 active torsions:
REMARK  status: ('A' for Active; 'I' for Inactive)
REMARK    1  A    between atoms: N_5  and  C_19 
REMARK    2  A    between atoms: C_7  and  C_9 
REMARK    3  A    between atoms: C_7  and  C_8 
REMARK    4  A    between atoms: C_7  and  N_21 
REMARK    5  A    between atoms: C_9  and  S_17 
REMARK    6  A    between atoms: C_15  and  C_16 
REMARK    7  A    between atoms: C_16  and  C_18 
REMARK    8  A    between atoms: C_18  and  C_19 
REMARK    9  A    between atoms: C_19  and  C_20 
REMARK       I    between atoms: C_20  and  N_21 
ROOT
HETATM    1  H           1     -35.134  -0.161 -11.865  0.00  0.00     0.163 HD
HETATM    2  O           1     -34.638  -2.831 -13.435  0.00  0.00    -0.271 OA
HETATM    3  C           1     -34.515  -2.010 -12.557  0.00  0.00     0.249 C 
HETATM    4  N           1     -35.238  -0.849 -12.599  0.00  0.00    -0.344 N 
ENDROOT
BRANCH   3   5
HETATM    5  C           1     -33.561  -2.265 -11.415  0.00  0.00     0.275 C 
BRANCH   5   6
HETATM    6  N           1     -34.246  -1.958 -10.116  0.00  0.00    -0.066 N 
HETATM    7  H           1     -33.727  -1.199  -9.620  0.00  0.00     0.275 HD
HETATM    8  H           1     -35.226  -1.646 -10.304  0.00  0.00     0.275 HD
HETATM    9  H           1     -34.261  -2.817  -9.521  0.00  0.00     0.275 HD
ENDBRANCH   5   6
BRANCH   5  10
HETATM   10  C           1     -33.132  -3.726 -11.429  0.00  0.00     0.053 C 
BRANCH  10  11
HETATM   11  C           1     -33.997  -4.520 -10.461  0.00  0.00     0.115 C 
BRANCH  11  12
HETATM   12  C           1     -34.408  -5.822 -11.105  0.00  0.00     0.172 C 
HETATM   13  O           1     -34.898  -5.824 -12.255  0.00  0.00    -0.648 OA
HETATM   14  O           1     -34.256  -6.899 -10.487  0.00  0.00    -0.648 OA
ENDBRANCH  11  12
ENDBRANCH  10  11
ENDBRANCH   5  10
ENDBRANCH   3   5
BRANCH   4  15
HETATM   15  C           1     -36.154  -0.604 -13.697  0.00  0.00     0.194 C 
BRANCH  15  16
HETATM   16  C           1     -37.472  -0.071 -13.149  0.00  0.00     0.106 C 
BRANCH  16  17
HETATM   17  S           1     -37.453  -0.155 -11.336  0.00  0.00    -0.180 SA
HETATM   18  H           1     -36.117  -0.089 -11.206  0.00  0.00     0.101 HD
ENDBRANCH  16  17
ENDBRANCH  15  16
BRANCH  15  19
HETATM   19  C           1     -35.551   0.412 -14.636  0.00  0.00     0.197 C 
HETATM   20  O           1     -34.342   0.713 -14.538  0.00  0.00    -0.646 OA
HETATM   21  O           1     -36.261   0.953 -15.511  0.00  0.00    -0.646 OA
ENDBRANCH  15  19
ENDBRANCH   4  15
TORSDOF 9
ENDMDL
MODEL 2
REMARK VINA RESULT:      -5.7     12.994     14.473
REMARK  9 active torsions:
REMARK  status: ('A' for Active; 'I' for Inactive)
REMARK    1  A    between atoms: N_5  and  C_19 
REMARK    2  A    between atoms: C_7  and  C_9 
REMARK    3  A    between atoms: C_7  and  C_8 
REMARK    4  A    between atoms: C_7  and  N_21 
REMARK    5  A    between atoms: C_9  and  S_17 
REMARK    6  A    between atoms: C_15  and  C_16 
REMARK    7  A    between atoms: C_16  and  C_18 
REMARK    8  A    between atoms: C_18  and  C_19 
REMARK    9  A    between atoms: C_19  and  C_20 
REMARK       I    between atoms: C_20  and  N_21 
ROOT
HETATM    1  H           1     -22.142  -5.622  -9.408  0.00  0.00     0.163 HD
HETATM    2  O           1     -21.802  -3.647  -6.995  0.00  0.00    -0.271 OA
HETATM    3  C           1     -21.735  -4.686  -7.608  0.00  0.00     0.249 C 
HETATM    4  N           1     -22.198  -4.752  -8.894  0.00  0.00    -0.344 N 
ENDROOT
BRANCH   3   5
HETATM    5  C           1     -21.140  -5.909  -6.956  0.00  0.00     0.275 C 
BRANCH   5   6
HETATM    6  N           1     -19.775  -6.163  -7.523  0.00  0.00    -0.066 N 
HETATM    7  H           1     -19.117  -5.421  -7.194  0.00  0.00     0.275 HD
HETATM    8  H           1     -19.433  -7.098  -7.205  0.00  0.00     0.275 HD
HETATM    9  H           1     -19.825  -6.148  -8.567  0.00  0.00     0.275 HD
ENDBRANCH   5   6
BRANCH   5  10
HETATM   10  C           1     -21.030  -5.681  -5.454  0.00  0.00     0.053 C 
BRANCH  10  11
HETATM   11  C           1     -22.112  -6.478  -4.738  0.00  0.00     0.115 C 
BRANCH  11  12
HETATM   12  C           1     -21.785  -6.563  -3.267  0.00  0.00     0.172 C 
HETATM   13  O           1     -20.842  -7.284  -2.877  0.00  0.00    -0.648 OA
HETATM   14  O           1     -22.458  -5.911  -2.439  0.00  0.00    -0.648 OA
ENDBRANCH  11  12
ENDBRANCH  10  11
ENDBRANCH   5  10
ENDBRANCH   3   5
BRANCH   4  15
HETATM   15  C           1     -22.769  -3.576  -9.521  0.00  0.00     0.194 C 
BRANCH  15  16
HETATM   16  C           1     -22.133  -3.371 -10.890  0.00  0.00     0.106 C 
BRANCH  16  17
HETATM   17  S           1     -20.527  -4.214 -10.945  0.00  0.00    -0.180 SA
HETATM   18  H           1     -20.142  -3.703 -12.128  0.00  0.00     0.101 HD
ENDBRANCH  16  17
ENDBRANCH  15  16
BRANCH  15  19
HETATM   19  C           1     -24.258  -3.766  -9.681  0.00  0.00     0.197 C 
HETATM   20  O           1     -25.032  -2.797  -9.527  0.00  0.00    -0.646 OA
HETATM   21  O           1     -24.718  -4.893  -9.967  0.00  0.00    -0.646 OA
ENDBRANCH  15  19
ENDBRANCH   4  15
TORSDOF 9
ENDMDL
MODEL 3
REMARK VINA RESULT:      -5.7     10.912     11.811
REMARK  9 active torsions:
REMARK  status: ('A' for Active; 'I' for Inactive)
REMARK    1  A    between atoms: N_5  and  C_19 
REMARK    2  A    between atoms: C_7  and  C_9 
REMARK    3  A    between atoms: C_7  and  C_8 
REMARK    4  A    between atoms: C_7  and  N_21 
REMARK    5  A    between atoms: C_9  and  S_17 
REMARK    6  A    between atoms: C_15  and  C_16 
REMARK    7  A    between atoms: C_16  and  C_18 
REMARK    8  A    between atoms: C_18  and  C_19 
REMARK    9  A    between atoms: C_19  and  C_20 
REMARK       I    between atoms: C_20  and  N_21 
ROOT
HETATM    1  H           1     -27.432  -8.177 -18.854  0.00  0.00     0.163 HD
HETATM    2  O           1     -28.618  -5.284 -19.094  0.00  0.00    -0.271 OA
HETATM    3  C           1     -28.442  -6.386 -18.631  0.00  0.00     0.249 C 
HETATM    4  N           1     -27.578  -7.254 -19.241  0.00  0.00    -0.344 N 
ENDROOT
BRANCH   3   5
HETATM    5  C           1     -29.177  -6.804 -17.381  0.00  0.00     0.275 C 
BRANCH   5   6
HETATM    6  N           1     -29.218  -8.302 -17.304  0.00  0.00    -0.066 N 
HETATM    7  H           1     -29.939  -8.595 -16.608  0.00  0.00     0.275 HD
HETATM    8  H           1     -29.459  -8.692 -18.243  0.00  0.00     0.275 HD
HETATM    9  H           1     -28.281  -8.660 -17.009  0.00  0.00     0.275 HD
ENDBRANCH   5   6
BRANCH   5  10
HETATM   10  C           1     -28.455  -6.253 -16.159  0.00  0.00     0.053 C 
BRANCH  10  11
HETATM   11  C           1     -27.478  -7.295 -15.632  0.00  0.00     0.115 C 
BRANCH  11  12
HETATM   12  C           1     -26.067  -6.775 -15.763  0.00  0.00     0.172 C 
HETATM   13  O           1     -25.848  -5.711 -16.382  0.00  0.00    -0.648 OA
HETATM   14  O           1     -25.118  -7.408 -15.250  0.00  0.00    -0.648 OA
ENDBRANCH  11  12
ENDBRANCH  10  11
ENDBRANCH   5  10
ENDBRANCH   3   5
BRANCH   4  15
HETATM   15  C           1     -26.872  -6.852 -20.442  0.00  0.00     0.194 C 
BRANCH  15  16
HETATM   16  C           1     -25.579  -6.143 -20.058  0.00  0.00     0.106 C 
BRANCH  16  17
HETATM   17  S           1     -24.500  -7.295 -19.161  0.00  0.00    -0.180 SA
HETATM   18  H           1     -25.266  -7.374 -18.059  0.00  0.00     0.101 HD
ENDBRANCH  16  17
ENDBRANCH  15  16
BRANCH  15  19
HETATM   19  C           1     -26.551  -8.073 -21.268  0.00  0.00     0.197 C 
HETATM   20  O           1     -27.406  -8.973 -21.411  0.00  0.00    -0.646 OA
HETATM   21  O           1     -25.430  -8.186 -21.808  0.00  0.00    -0.646 OA
ENDBRANCH  15  19
ENDBRANCH   4  15
TORSDOF 9
ENDMDL
MODEL 4
REMARK VINA RESULT:      -5.3      1.657      1.859
REMARK  9 active torsions:
REMARK  status: ('A' for Active; 'I' for Inactive)
REMARK    1  A    between atoms: N_5  and  C_19 
REMARK    2  A    between atoms: C_7  and  C_9 
REMARK    3  A    between atoms: C_7  and  C_8 
REMARK    4  A    between atoms: C_7  and  N_21 
REMARK    5  A    between atoms: C_9  and  S_17 
REMARK    6  A    between atoms: C_15  and  C_16 
REMARK    7  A    between atoms: C_16  and  C_18 
REMARK    8  A    between atoms: C_18  and  C_19 
REMARK    9  A    between atoms: C_19  and  C_20 
REMARK       I    between atoms: C_20  and  N_21 
ROOT
HETATM    1  H           1     -36.549   0.018 -12.270  0.00  0.00     0.163 HD
HETATM    2  O           1     -34.684  -2.282 -13.302  0.00  0.00    -0.271 OA
HETATM    3  C           1     -35.281  -1.600 -12.504  0.00  0.00     0.249 C 
HETATM    4  N           1     -36.050  -0.554 -12.938  0.00  0.00    -0.344 N 
ENDROOT
BRANCH   3   5
HETATM    5  C           1     -35.179  -1.901 -11.029  0.00  0.00     0.275 C 
BRANCH   5   6
HETATM    6  N           1     -36.175  -1.067 -10.279  0.00  0.00    -0.066 N 
HETATM    7  H           1     -35.704  -0.607  -9.468  0.00  0.00     0.275 HD
HETATM    8  H           1     -36.566  -0.335 -10.915  0.00  0.00     0.275 HD
HETATM    9  H           1     -36.949  -1.677  -9.933  0.00  0.00     0.275 HD
ENDBRANCH   5   6
BRANCH   5  10
HETATM   10  C           1     -35.472  -3.376 -10.790  0.00  0.00     0.053 C 
BRANCH  10  11
HETATM   11  C           1     -34.169  -4.116 -10.519  0.00  0.00     0.115 C 
BRANCH  11  12
HETATM   12  C           1     -34.143  -5.398 -11.316  0.00  0.00     0.172 C 
HETATM   13  O           1     -33.485  -6.377 -10.902  0.00  0.00    -0.648 OA
HETATM   14  O           1     -34.780  -5.480 -12.389  0.00  0.00    -0.648 OA
ENDBRANCH  11  12
ENDBRANCH  10  11
ENDBRANCH   5  10
ENDBRANCH   3   5
BRANCH   4  15
HETATM   15  C           1     -36.148  -0.265 -14.356  0.00  0.00     0.194 C 
BRANCH  15  16
HETATM   16  C           1     -37.586   0.101 -14.701  0.00  0.00     0.106 C 
BRANCH  16  17
HETATM   17  S           1     -38.073  -0.737 -16.235  0.00  0.00    -0.180 SA
HETATM   18  H           1     -38.343   0.384 -16.927  0.00  0.00     0.101 HD
ENDBRANCH  16  17
ENDBRANCH  15  16
BRANCH  15  19
HETATM   19  C           1     -35.239   0.890 -14.696  0.00  0.00     0.197 C 
HETATM   20  O           1     -34.105   0.967 -14.176  0.00  0.00    -0.646 OA
HETATM   21  O           1     -35.619   1.771 -15.498  0.00  0.00    -0.646 OA
ENDBRANCH  15  19
ENDBRANCH   4  15
TORSDOF 9
ENDMDL
MODEL 5
REMARK VINA RESULT:      -5.2      2.138      2.473
REMARK  9 active torsions:
REMARK  status: ('A' for Active; 'I' for Inactive)
REMARK    1  A    between atoms: N_5  and  C_19 
REMARK    2  A    between atoms: C_7  and  C_9 
REMARK    3  A    between atoms: C_7  and  C_8 
REMARK    4  A    between atoms: C_7  and  N_21 
REMARK    5  A    between atoms: C_9  and  S_17 
REMARK    6  A    between atoms: C_15  and  C_16 
REMARK    7  A    between atoms: C_16  and  C_18 
REMARK    8  A    between atoms: C_18  and  C_19 
REMARK    9  A    between atoms: C_19  and  C_20 
REMARK       I    between atoms: C_20  and  N_21 
ROOT
HETATM    1  H           1     -34.611  -1.893 -14.282  0.00  0.00     0.163 HD
HETATM    2  O           1     -35.536   0.275 -12.213  0.00  0.00    -0.271 OA
HETATM    3  C           1     -34.993  -0.725 -12.617  0.00  0.00     0.249 C 
HETATM    4  N           1     -35.065  -1.054 -13.944  0.00  0.00    -0.344 N 
ENDROOT
BRANCH   3   5
HETATM    5  C           1     -34.236  -1.612 -11.659  0.00  0.00     0.275 C 
BRANCH   5   6
HETATM    6  N           1     -35.010  -1.739 -10.380  0.00  0.00    -0.066 N 
HETATM    7  H           1     -35.587  -0.880 -10.235  0.00  0.00     0.275 HD
HETATM    8  H           1     -35.635  -2.574 -10.432  0.00  0.00     0.275 HD
HETATM    9  H           1     -34.344  -1.851  -9.582  0.00  0.00     0.275 HD
ENDBRANCH   5   6
BRANCH   5  10
HETATM   10  C           1     -34.053  -2.990 -12.279  0.00  0.00     0.053 C 
BRANCH  10  11
HETATM   11  C           1     -33.126  -3.823 -11.404  0.00  0.00     0.115 C 
BRANCH  11  12
HETATM   12  C           1     -33.843  -5.074 -10.958  0.00  0.00     0.172 C 
HETATM   13  O           1     -35.018  -5.005 -10.538  0.00  0.00    -0.648 OA
HETATM   14  O           1     -33.260  -6.179 -11.010  0.00  0.00    -0.648 OA
ENDBRANCH  11  12
ENDBRANCH  10  11
ENDBRANCH   5  10
ENDBRANCH   3   5
BRANCH   4  15
HETATM   15  C           1     -35.792  -0.202 -14.864  0.00  0.00     0.194 C 
BRANCH  15  16
HETATM   16  C           1     -35.053   1.120 -15.024  0.00  0.00     0.106 C 
BRANCH  16  17
HETATM   17  S           1     -36.074   2.274 -15.984  0.00  0.00    -0.180 SA
HETATM   18  H           1     -35.315   2.243 -17.093  0.00  0.00     0.101 HD
ENDBRANCH  16  17
ENDBRANCH  15  16
BRANCH  15  19
HETATM   19  C           1     -35.896  -0.886 -16.205  0.00  0.00     0.197 C 
HETATM   20  O           1     -36.946  -0.790 -16.877  0.00  0.00    -0.646 OA
HETATM   21  O           1     -34.932  -1.550 -16.645  0.00  0.00    -0.646 OA
ENDBRANCH  15  19
ENDBRANCH   4  15
TORSDOF 9
ENDMDL
MODEL 6
REMARK VINA RESULT:      -5.2     10.112     11.217
REMARK  9 active torsions:
REMARK  status: ('A' for Active; 'I' for Inactive)
REMARK    1  A    between atoms: N_5  and  C_19 
REMARK    2  A    between atoms: C_7  and  C_9 
REMARK    3  A    between atoms: C_7  and  C_8 
REMARK    4  A    between atoms: C_7  and  N_21 
REMARK    5  A    between atoms: C_9  and  S_17 
REMARK    6  A    between atoms: C_15  and  C_16 
REMARK    7  A    between atoms: C_16  and  C_18 
REMARK    8  A    between atoms: C_18  and  C_19 
REMARK    9  A    between atoms: C_19  and  C_20 
REMARK       I    between atoms: C_20  and  N_21 
ROOT
HETATM    1  H           1     -27.228  -8.174 -18.751  0.00  0.00     0.163 HD
HETATM    2  O           1     -28.452  -5.313 -19.145  0.00  0.00    -0.271 OA
HETATM    3  C           1     -28.289  -6.401 -18.645  0.00  0.00     0.249 C 
HETATM    4  N           1     -27.364  -7.262 -19.169  0.00  0.00    -0.344 N 
ENDROOT
BRANCH   3   5
HETATM    5  C           1     -29.108  -6.810 -17.445  0.00  0.00     0.275 C 
BRANCH   5   6
HETATM    6  N           1     -28.472  -6.267 -16.200  0.00  0.00    -0.066 N 
HETATM    7  H           1     -28.890  -5.337 -15.972  0.00  0.00     0.275 HD
HETATM    8  H           1     -28.638  -6.928 -15.408  0.00  0.00     0.275 HD
HETATM    9  H           1     -27.444  -6.159 -16.354  0.00  0.00     0.275 HD
ENDBRANCH   5   6
BRANCH   5  10
HETATM   10  C           1     -30.518  -6.253 -17.579  0.00  0.00     0.053 C 
BRANCH  10  11
HETATM   11  C           1     -30.820  -5.343 -16.397  0.00  0.00     0.115 C 
BRANCH  11  12
HETATM   12  C           1     -31.757  -4.243 -16.834  0.00  0.00     0.172 C 
HETATM   13  O           1     -32.948  -4.249 -16.454  0.00  0.00    -0.648 OA
HETATM   14  O           1     -31.340  -3.326 -17.575  0.00  0.00    -0.648 OA
ENDBRANCH  11  12
ENDBRANCH  10  11
ENDBRANCH   5  10
ENDBRANCH   3   5
BRANCH   4  15
HETATM   15  C           1     -26.577  -6.870 -20.322  0.00  0.00     0.194 C 
BRANCH  15  16
HETATM   16  C           1     -25.206  -6.389 -19.863  0.00  0.00     0.106 C 
BRANCH  16  17
HETATM   17  S           1     -24.859  -7.043 -18.205  0.00  0.00    -0.180 SA
HETATM   18  H           1     -24.338  -5.905 -17.713  0.00  0.00     0.101 HD
ENDBRANCH  16  17
ENDBRANCH  15  16
BRANCH  15  19
HETATM   19  C           1     -26.413  -8.053 -21.244  0.00  0.00     0.197 C 
HETATM   20  O           1     -27.387  -8.798 -21.485  0.00  0.00    -0.646 OA
HETATM   21  O           1     -25.302  -8.290 -21.766  0.00  0.00    -0.646 OA
ENDBRANCH  15  19
ENDBRANCH   4  15
TORSDOF 9
ENDMDL
MODEL 7
REMARK VINA RESULT:      -5.1      2.700      3.526
REMARK  9 active torsions:
REMARK  status: ('A' for Active; 'I' for Inactive)
REMARK    1  A    between atoms: N_5  and  C_19 
REMARK    2  A    between atoms: C_7  and  C_9 
REMARK    3  A    between atoms: C_7  and  C_8 
REMARK    4  A    between atoms: C_7  and  N_21 
REMARK    5  A    between atoms: C_9  and  S_17 
REMARK    6  A    between atoms: C_15  and  C_16 
REMARK    7  A    between atoms: C_16  and  C_18 
REMARK    8  A    between atoms: C_18  and  C_19 
REMARK    9  A    between atoms: C_19  and  C_20 
REMARK       I    between atoms: C_20  and  N_21 
ROOT
HETATM    1  H           1     -35.790  -0.503 -12.165  0.00  0.00     0.163 HD
HETATM    2  O           1     -34.691  -2.751 -14.055  0.00  0.00    -0.271 OA
HETATM    3  C           1     -34.948  -2.190 -13.017  0.00  0.00     0.249 C 
HETATM    4  N           1     -35.575  -0.974 -13.034  0.00  0.00    -0.344 N 
ENDROOT
BRANCH   3   5
HETATM    5  C           1     -34.577  -2.830 -11.702  0.00  0.00     0.275 C 
BRANCH   5   6
HETATM    6  N           1     -33.134  -3.237 -11.735  0.00  0.00    -0.066 N 
HETATM    7  H           1     -32.633  -2.813 -10.922  0.00  0.00     0.275 HD
HETATM    8  H           1     -33.064  -4.279 -11.684  0.00  0.00     0.275 HD
HETATM    9  H           1     -32.699  -2.903 -12.625  0.00  0.00     0.275 HD
ENDBRANCH   5   6
BRANCH   5  10
HETATM   10  C           1     -34.796  -1.833 -10.572  0.00  0.00     0.053 C 
BRANCH  10  11
HETATM   11  C           1     -36.249  -1.887 -10.120  0.00  0.00     0.115 C 
BRANCH  11  12
HETATM   12  C           1     -36.702  -0.506  -9.712  0.00  0.00     0.172 C 
HETATM   13  O           1     -36.397   0.484 -10.412  0.00  0.00    -0.648 OA
HETATM   14  O           1     -37.382  -0.353  -8.674  0.00  0.00    -0.648 OA
ENDBRANCH  11  12
ENDBRANCH  10  11
ENDBRANCH   5  10
ENDBRANCH   3   5
BRANCH   4  15
HETATM   15  C           1     -35.932  -0.359 -14.298  0.00  0.00     0.194 C 
BRANCH  15  16
HETATM   16  C           1     -37.435  -0.115 -14.338  0.00  0.00     0.106 C 
BRANCH  16  17
HETATM   17  S           1     -38.074  -0.535 -15.984  0.00  0.00    -0.180 SA
HETATM   18  H           1     -37.770   0.643 -16.557  0.00  0.00     0.101 HD
ENDBRANCH  16  17
ENDBRANCH  15  16
BRANCH  15  19
HETATM   19  C           1     -35.205   0.956 -14.440  0.00  0.00     0.197 C 
HETATM   20  O           1     -35.429   1.691 -15.425  0.00  0.00    -0.646 OA
HETATM   21  O           1     -34.377   1.309 -13.572  0.00  0.00    -0.646 OA
ENDBRANCH  15  19
ENDBRANCH   4  15
TORSDOF 9
ENDMDL
MODEL 8
REMARK VINA RESULT:      -5.1     12.819     14.805
REMARK  9 active torsions:
REMARK  status: ('A' for Active; 'I' for Inactive)
REMARK    1  A    between atoms: N_5  and  C_19 
REMARK    2  A    between atoms: C_7  and  C_9 
REMARK    3  A    between atoms: C_7  and  C_8 
REMARK    4  A    between atoms: C_7  and  N_21 
REMARK    5  A    between atoms: C_9  and  S_17 
REMARK    6  A    between atoms: C_15  and  C_16 
REMARK    7  A    between atoms: C_16  and  C_18 
REMARK    8  A    between atoms: C_18  and  C_19 
REMARK    9  A    between atoms: C_19  and  C_20 
REMARK       I    between atoms: C_20  and  N_21 
ROOT
HETATM    1  H           1     -22.591  -5.839  -6.897  0.00  0.00     0.163 HD
HETATM    2  O           1     -21.860  -3.156  -8.347  0.00  0.00    -0.271 OA
HETATM    3  C           1     -22.495  -4.150  -8.088  0.00  0.00     0.249 C 
HETATM    4  N           1     -22.059  -5.006  -7.113  0.00  0.00    -0.344 N 
ENDROOT
BRANCH   3   5
HETATM    5  C           1     -23.768  -4.449  -8.842  0.00  0.00     0.275 C 
BRANCH   5   6
HETATM    6  N           1     -24.571  -3.190  -8.984  0.00  0.00    -0.066 N 
HETATM    7  H           1     -24.207  -2.468  -8.320  0.00  0.00     0.275 HD
HETATM    8  H           1     -24.491  -2.834  -9.963  0.00  0.00     0.275 HD
HETATM    9  H           1     -25.573  -3.391  -8.766  0.00  0.00     0.275 HD
ENDBRANCH   5   6
BRANCH   5  10
HETATM   10  C           1     -23.426  -4.990 -10.223  0.00  0.00     0.053 C 
BRANCH  10  11
HETATM   11  C           1     -23.874  -3.996 -11.285  0.00  0.00     0.115 C 
BRANCH  11  12
HETATM   12  C           1     -22.664  -3.359 -11.922  0.00  0.00     0.172 C 
HETATM   13  O           1     -22.739  -2.201 -12.387  0.00  0.00    -0.648 OA
HETATM   14  O           1     -21.586  -3.990 -11.985  0.00  0.00    -0.648 OA
ENDBRANCH  11  12
ENDBRANCH  10  11
ENDBRANCH   5  10
ENDBRANCH   3   5
BRANCH   4  15
HETATM   15  C           1     -20.836  -4.719  -6.389  0.00  0.00     0.194 C 
BRANCH  15  16
HETATM   16  C           1     -20.890  -5.382  -5.019  0.00  0.00     0.106 C 
BRANCH  16  17
HETATM   17  S           1     -22.216  -6.621  -4.996  0.00  0.00    -0.180 SA
HETATM   18  H           1     -22.679  -6.308  -3.774  0.00  0.00     0.101 HD
ENDBRANCH  16  17
ENDBRANCH  15  16
BRANCH  15  19
HETATM   19  C           1     -19.658  -5.256  -7.163  0.00  0.00     0.197 C 
HETATM   20  O           1     -18.735  -4.488  -7.511  0.00  0.00    -0.646 OA
HETATM   21  O           1     -19.603  -6.470  -7.458  0.00  0.00    -0.646 OA
ENDBRANCH  15  19
ENDBRANCH   4  15
TORSDOF 9
ENDMDL
MODEL 9
REMARK VINA RESULT:      -5.1     14.167     16.528
REMARK  9 active torsions:
REMARK  status: ('A' for Active; 'I' for Inactive)
REMARK    1  A    between atoms: N_5  and  C_19 
REMARK    2  A    between atoms: C_7  and  C_9 
REMARK    3  A    between atoms: C_7  and  C_8 
REMARK    4  A    between atoms: C_7  and  N_21 
REMARK    5  A    between atoms: C_9  and  S_17 
REMARK    6  A    between atoms: C_15  and  C_16 
REMARK    7  A    between atoms: C_16  and  C_18 
REMARK    8  A    between atoms: C_18  and  C_19 
REMARK    9  A    between atoms: C_19  and  C_20 
REMARK       I    between atoms: C_20  and  N_21 
ROOT
HETATM    1  H           1     -19.830  -6.816  -4.743  0.00  0.00     0.163 HD
HETATM    2  O           1     -22.583  -5.641  -5.679  0.00  0.00    -0.271 OA
HETATM    3  C           1     -21.384  -5.790  -5.643  0.00  0.00     0.249 C 
HETATM    4  N           1     -20.834  -6.693  -4.775  0.00  0.00    -0.344 N 
ENDROOT
BRANCH   3   5
HETATM    5  C           1     -20.496  -4.978  -6.553  0.00  0.00     0.275 C 
BRANCH   5   6
HETATM    6  N           1     -19.893  -5.877  -7.592  0.00  0.00    -0.066 N 
HETATM    7  H           1     -18.873  -5.995  -7.400  0.00  0.00     0.275 HD
HETATM    8  H           1     -20.364  -6.809  -7.563  0.00  0.00     0.275 HD
HETATM    9  H           1     -20.023  -5.450  -8.537  0.00  0.00     0.275 HD
ENDBRANCH   5   6
BRANCH   5  10
HETATM   10  C           1     -21.321  -3.896  -7.236  0.00  0.00     0.053 C 
BRANCH  10  11
HETATM   11  C           1     -21.353  -4.151  -8.737  0.00  0.00     0.115 C 
BRANCH  11  12
HETATM   12  C           1     -22.777  -4.384  -9.179  0.00  0.00     0.172 C 
HETATM   13  O           1     -23.725  -4.040  -8.440  0.00  0.00    -0.648 OA
HETATM   14  O           1     -23.008  -4.920 -10.285  0.00  0.00    -0.648 OA
ENDBRANCH  11  12
ENDBRANCH  10  11
ENDBRANCH   5  10
ENDBRANCH   3   5
BRANCH   4  15
HETATM   15  C           1     -21.687  -7.473  -3.900  0.00  0.00     0.194 C 
BRANCH  15  16
HETATM   16  C           1     -21.199  -8.915  -3.867  0.00  0.00     0.106 C 
BRANCH  16  17
HETATM   17  S           1     -19.566  -9.021  -4.653  0.00  0.00    -0.180 SA
HETATM   18  H           1     -18.905  -8.352  -3.692  0.00  0.00     0.101 HD
ENDBRANCH  16  17
ENDBRANCH  15  16
BRANCH  15  19
HETATM   19  C           1     -21.641  -6.894  -2.507  0.00  0.00     0.197 C 
HETATM   20  O           1     -22.316  -5.880  -2.228  0.00  0.00    -0.646 OA
HETATM   21  O           1     -20.926  -7.428  -1.631  0.00  0.00    -0.646 OA
ENDBRANCH  15  19
ENDBRANCH   4  15
TORSDOF 9
ENDMDL
