MODEL 1
REMARK VINA RESULT:      -6.0      0.000      0.000
REMARK  9 active torsions:
REMARK  status: ('A' for Active; 'I' for Inactive)
REMARK    1  A    between atoms: N_3  and  C_7 
REMARK    2  A    between atoms: Se_5  and  C_19 
REMARK    3  A    between atoms: C_7  and  C_8 
REMARK    4  A    between atoms: C_7  and  C_20 
REMARK       I    between atoms: C_8  and  N_9 
REMARK    5  A    between atoms: N_9  and  C_13 
REMARK    6  A    between atoms: C_12  and  C_13 
REMARK    7  A    between atoms: C_13  and  C_14 
REMARK    8  A    between atoms: C_14  and  O_15 
REMARK    9  A    between atoms: C_19  and  C_20 
ROOT
HETATM    1  H           1     -33.985  -1.223 -14.350  0.00  0.00     0.163 HD
HETATM    2  O           1     -36.536  -1.362 -12.527  0.00  0.00    -0.271 OA
HETATM    3  C           1     -35.392  -1.553 -12.868  0.00  0.00     0.249 C 
HETATM    4  N           1     -34.943  -1.064 -14.065  0.00  0.00    -0.343 N 
ENDROOT
BRANCH   3   5
HETATM    5  C           1     -34.459  -2.330 -11.972  0.00  0.00     0.274 C 
BRANCH   5   6
HETATM    6  N           1     -33.882  -1.412 -10.934  0.00  0.00    -0.067 N 
HETATM    7  H           1     -34.484  -0.562 -10.847  0.00  0.00     0.275 HD
HETATM    8  H           1     -33.843  -1.908 -10.016  0.00  0.00     0.275 HD
HETATM    9  H           1     -32.918  -1.128 -11.219  0.00  0.00     0.275 HD
ENDBRANCH   5   6
BRANCH   5  10
HETATM   10  C           1     -35.227  -3.452 -11.287  0.00  0.00     0.042 C 
BRANCH  10  11
HETATM   11  C           1     -34.944  -4.769 -11.996  0.00  0.00     0.003 C 
BRANCH  11  12
HETATM   12 Se           1     -33.546  -5.735 -11.042  0.00  0.00     0.000 Se
HETATM   13  C           1     -34.775  -6.934 -10.120  0.00  0.00     0.000 C 
ENDBRANCH  11  12
ENDBRANCH  10  11
ENDBRANCH   5  10
ENDBRANCH   3   5
BRANCH   4  14
HETATM   14  C           1     -35.841  -0.317 -14.924  0.00  0.00     0.209 C 
BRANCH  14  15
HETATM   15  C           1     -35.837  -0.925 -16.306  0.00  0.00     0.198 C 
HETATM   16  O           1     -36.806  -0.739 -17.073  0.00  0.00    -0.646 OA
HETATM   17  O           1     -34.864  -1.614 -16.682  0.00  0.00    -0.646 OA
ENDBRANCH  14  15
BRANCH  14  18
HETATM   18  C           1     -35.377   1.132 -15.005  0.00  0.00     0.200 C 
BRANCH  18  19
HETATM   19  O           1     -36.152   1.820 -15.950  0.00  0.00    -0.398 OA
HETATM   20  H           1     -36.024   1.387 -16.776  0.00  0.00     0.209 HD
ENDBRANCH  18  19
ENDBRANCH  14  18
ENDBRANCH   4  14
TORSDOF 9
ENDMDL
MODEL 2
REMARK VINA RESULT:      -5.4     13.556     14.674
REMARK  9 active torsions:
REMARK  status: ('A' for Active; 'I' for Inactive)
REMARK    1  A    between atoms: N_3  and  C_7 
REMARK    2  A    between atoms: Se_5  and  C_19 
REMARK    3  A    between atoms: C_7  and  C_8 
REMARK    4  A    between atoms: C_7  and  C_20 
REMARK       I    between atoms: C_8  and  N_9 
REMARK    5  A    between atoms: N_9  and  C_13 
REMARK    6  A    between atoms: C_12  and  C_13 
REMARK    7  A    between atoms: C_13  and  C_14 
REMARK    8  A    between atoms: C_14  and  O_15 
REMARK    9  A    between atoms: C_19  and  C_20 
ROOT
HETATM    1  H           1     -22.246  -5.658  -9.304  0.00  0.00     0.163 HD
HETATM    2  O           1     -21.646  -3.592  -7.020  0.00  0.00    -0.271 OA
HETATM    3  C           1     -21.679  -4.662  -7.581  0.00  0.00     0.249 C 
HETATM    4  N           1     -22.219  -4.762  -8.835  0.00  0.00    -0.343 N 
ENDROOT
BRANCH   3   5
HETATM    5  C           1     -21.125  -5.888  -6.898  0.00  0.00     0.274 C 
BRANCH   5   6
HETATM    6  N           1     -19.767  -6.200  -7.455  0.00  0.00    -0.067 N 
HETATM    7  H           1     -19.830  -6.301  -8.493  0.00  0.00     0.275 HD
HETATM    8  H           1     -19.108  -5.425  -7.219  0.00  0.00     0.275 HD
HETATM    9  H           1     -19.418  -7.094  -7.040  0.00  0.00     0.275 HD
ENDBRANCH   5   6
BRANCH   5  10
HETATM   10  C           1     -21.012  -5.630  -5.401  0.00  0.00     0.042 C 
BRANCH  10  11
HETATM   11  C           1     -22.048  -6.467  -4.662  0.00  0.00     0.003 C 
BRANCH  11  12
HETATM   12 Se           1     -21.210  -7.338  -3.133  0.00  0.00     0.000 Se
HETATM   13  C           1     -22.211  -6.326  -1.800  0.00  0.00     0.000 C 
ENDBRANCH  11  12
ENDBRANCH  10  11
ENDBRANCH   5  10
ENDBRANCH   3   5
BRANCH   4  14
HETATM   14  C           1     -22.751  -3.583  -9.490  0.00  0.00     0.209 C 
BRANCH  14  15
HETATM   15  C           1     -24.231  -3.762  -9.724  0.00  0.00     0.198 C 
HETATM   16  O           1     -25.012  -2.801  -9.553  0.00  0.00    -0.646 OA
HETATM   17  O           1     -24.676  -4.872 -10.090  0.00  0.00    -0.646 OA
ENDBRANCH  14  15
BRANCH  14  18
HETATM   18  C           1     -22.046  -3.384 -10.826  0.00  0.00     0.200 C 
BRANCH  18  19
HETATM   19  O           1     -22.936  -2.810 -11.744  0.00  0.00    -0.398 OA
HETATM   20  H           1     -23.746  -3.285 -11.673  0.00  0.00     0.209 HD
ENDBRANCH  18  19
ENDBRANCH  14  18
ENDBRANCH   4  14
TORSDOF 9
ENDMDL
MODEL 3
REMARK VINA RESULT:      -4.8     13.988     15.649
REMARK  9 active torsions:
REMARK  status: ('A' for Active; 'I' for Inactive)
REMARK    1  A    between atoms: N_3  and  C_7 
REMARK    2  A    between atoms: Se_5  and  C_19 
REMARK    3  A    between atoms: C_7  and  C_8 
REMARK    4  A    between atoms: C_7  and  C_20 
REMARK       I    between atoms: C_8  and  N_9 
REMARK    5  A    between atoms: N_9  and  C_13 
REMARK    6  A    between atoms: C_12  and  C_13 
REMARK    7  A    between atoms: C_13  and  C_14 
REMARK    8  A    between atoms: C_14  and  O_15 
REMARK    9  A    between atoms: C_19  and  C_20 
ROOT
HETATM    1  H           1     -21.304  -5.229  -8.513  0.00  0.00     0.163 HD
HETATM    2  O           1     -23.814  -4.337  -6.856  0.00  0.00    -0.271 OA
HETATM    3  C           1     -23.130  -4.532  -7.832  0.00  0.00     0.249 C 
HETATM    4  N           1     -21.876  -5.065  -7.695  0.00  0.00    -0.343 N 
ENDROOT
BRANCH   3   5
HETATM    5  C           1     -23.658  -4.190  -9.203  0.00  0.00     0.274 C 
BRANCH   5   6
HETATM    6  N           1     -24.776  -3.198  -9.075  0.00  0.00    -0.067 N 
HETATM    7  H           1     -24.963  -2.759 -10.005  0.00  0.00     0.275 HD
HETATM    8  H           1     -25.637  -3.686  -8.740  0.00  0.00     0.275 HD
HETATM    9  H           1     -24.506  -2.457  -8.389  0.00  0.00     0.275 HD
ENDBRANCH   5   6
BRANCH   5  10
HETATM   10  C           1     -22.540  -3.587 -10.044  0.00  0.00     0.042 C 
BRANCH  10  11
HETATM   11  C           1     -22.654  -4.088 -11.477  0.00  0.00     0.003 C 
BRANCH  11  12
HETATM   12 Se           1     -23.996  -3.042 -12.427  0.00  0.00     0.000 Se
HETATM   13  C           1     -22.930  -2.841 -14.047  0.00  0.00     0.000 C 
ENDBRANCH  11  12
ENDBRANCH  10  11
ENDBRANCH   5  10
ENDBRANCH   3   5
BRANCH   4  14
HETATM   14  C           1     -21.370  -5.394  -6.377  0.00  0.00     0.209 C 
BRANCH  14  15
HETATM   15  C           1     -20.038  -4.715  -6.166  0.00  0.00     0.198 C 
HETATM   16  O           1     -19.295  -4.479  -7.143  0.00  0.00    -0.646 OA
HETATM   17  O           1     -19.679  -4.389  -5.013  0.00  0.00    -0.646 OA
ENDBRANCH  14  15
BRANCH  14  18
HETATM   18  C           1     -21.194  -6.903  -6.263  0.00  0.00     0.200 C 
BRANCH  18  19
HETATM   19  O           1     -19.828  -7.212  -6.194  0.00  0.00    -0.398 OA
HETATM   20  H           1     -19.442  -6.610  -5.581  0.00  0.00     0.209 HD
ENDBRANCH  18  19
ENDBRANCH  14  18
ENDBRANCH   4  14
TORSDOF 9
ENDMDL
MODEL 4
REMARK VINA RESULT:      -4.8      4.717      6.185
REMARK  9 active torsions:
REMARK  status: ('A' for Active; 'I' for Inactive)
REMARK    1  A    between atoms: N_3  and  C_7 
REMARK    2  A    between atoms: Se_5  and  C_19 
REMARK    3  A    between atoms: C_7  and  C_8 
REMARK    4  A    between atoms: C_7  and  C_20 
REMARK       I    between atoms: C_8  and  N_9 
REMARK    5  A    between atoms: N_9  and  C_13 
REMARK    6  A    between atoms: C_12  and  C_13 
REMARK    7  A    between atoms: C_13  and  C_14 
REMARK    8  A    between atoms: C_14  and  O_15 
REMARK    9  A    between atoms: C_19  and  C_20 
ROOT
HETATM    1  H           1     -32.369  -3.705 -14.288  0.00  0.00     0.163 HD
HETATM    2  O           1     -35.006  -4.910 -15.489  0.00  0.00    -0.271 OA
HETATM    3  C           1     -33.868  -4.504 -15.471  0.00  0.00     0.249 C 
HETATM    4  N           1     -33.322  -4.044 -14.303  0.00  0.00    -0.343 N 
ENDROOT
BRANCH   3   5
HETATM    5  C           1     -33.048  -4.503 -16.738  0.00  0.00     0.274 C 
BRANCH   5   6
HETATM    6  N           1     -33.135  -3.154 -17.389  0.00  0.00    -0.067 N 
HETATM    7  H           1     -33.667  -2.501 -16.771  0.00  0.00     0.275 HD
HETATM    8  H           1     -32.172  -2.781 -17.545  0.00  0.00     0.275 HD
HETATM    9  H           1     -33.627  -3.243 -18.307  0.00  0.00     0.275 HD
ENDBRANCH   5   6
BRANCH   5  10
HETATM   10  C           1     -31.594  -4.812 -16.404  0.00  0.00     0.042 C 
BRANCH  10  11
HETATM   11  C           1     -31.122  -5.998 -17.235  0.00  0.00     0.003 C 
BRANCH  11  12
HETATM   12 Se           1     -29.355  -6.554 -16.630  0.00  0.00     0.000 Se
HETATM   13  C           1     -28.531  -6.423 -18.392  0.00  0.00     0.000 C 
ENDBRANCH  11  12
ENDBRANCH  10  11
ENDBRANCH   5  10
ENDBRANCH   3   5
BRANCH   4  14
HETATM   14  C           1     -34.111  -4.045 -13.086  0.00  0.00     0.209 C 
BRANCH  14  15
HETATM   15  C           1     -34.572  -2.640 -12.785  0.00  0.00     0.198 C 
HETATM   16  O           1     -34.530  -2.206 -11.613  0.00  0.00    -0.646 OA
HETATM   17  O           1     -34.995  -1.910 -13.707  0.00  0.00    -0.646 OA
ENDBRANCH  14  15
BRANCH  14  18
HETATM   18  C           1     -33.261  -4.560 -11.931  0.00  0.00     0.200 C 
BRANCH  18  19
HETATM   19  O           1     -31.966  -4.839 -12.391  0.00  0.00    -0.398 OA
HETATM   20  H           1     -31.804  -5.750 -12.218  0.00  0.00     0.209 HD
ENDBRANCH  18  19
ENDBRANCH  14  18
ENDBRANCH   4  14
TORSDOF 9
ENDMDL
MODEL 5
REMARK VINA RESULT:      -4.7     15.713     17.299
REMARK  9 active torsions:
REMARK  status: ('A' for Active; 'I' for Inactive)
REMARK    1  A    between atoms: N_3  and  C_7 
REMARK    2  A    between atoms: Se_5  and  C_19 
REMARK    3  A    between atoms: C_7  and  C_8 
REMARK    4  A    between atoms: C_7  and  C_20 
REMARK       I    between atoms: C_8  and  N_9 
REMARK    5  A    between atoms: N_9  and  C_13 
REMARK    6  A    between atoms: C_12  and  C_13 
REMARK    7  A    between atoms: C_13  and  C_14 
REMARK    8  A    between atoms: C_14  and  O_15 
REMARK    9  A    between atoms: C_19  and  C_20 
ROOT
HETATM    1  H           1     -21.660  -4.675  -4.574  0.00  0.00     0.163 HD
HETATM    2  O           1     -21.320  -7.766  -4.995  0.00  0.00    -0.271 OA
HETATM    3  C           1     -21.411  -6.722  -4.393  0.00  0.00     0.249 C 
HETATM    4  N           1     -21.583  -5.549  -5.078  0.00  0.00    -0.343 N 
ENDROOT
BRANCH   3   5
HETATM    5  C           1     -21.336  -6.711  -2.886  0.00  0.00     0.274 C 
BRANCH   5   6
HETATM    6  N           1     -22.457  -5.880  -2.336  0.00  0.00    -0.067 N 
HETATM    7  H           1     -23.102  -5.605  -3.111  0.00  0.00     0.275 HD
HETATM    8  H           1     -22.984  -6.434  -1.624  0.00  0.00     0.275 HD
HETATM    9  H           1     -22.065  -5.020  -1.888  0.00  0.00     0.275 HD
ENDBRANCH   5   6
BRANCH   5  10
HETATM   10  C           1     -21.456  -8.136  -2.360  0.00  0.00     0.042 C 
BRANCH  10  11
HETATM   11  C           1     -20.720  -8.250  -1.032  0.00  0.00     0.003 C 
BRANCH  11  12
HETATM   12 Se           1     -21.726  -9.408   0.171  0.00  0.00     0.000 Se
HETATM   13  C           1     -23.138  -8.107   0.507  0.00  0.00     0.000 C 
ENDBRANCH  11  12
ENDBRANCH  10  11
ENDBRANCH   5  10
ENDBRANCH   3   5
BRANCH   4  14
HETATM   14  C           1     -21.655  -5.561  -6.526  0.00  0.00     0.209 C 
BRANCH  14  15
HETATM   15  C           1     -20.311  -5.184  -7.100  0.00  0.00     0.198 C 
HETATM   16  O           1     -19.456  -4.628  -6.376  0.00  0.00    -0.646 OA
HETATM   17  O           1     -20.053  -5.428  -8.299  0.00  0.00    -0.646 OA
ENDBRANCH  14  15
BRANCH  14  18
HETATM   18  C           1     -22.704  -4.558  -6.989  0.00  0.00     0.200 C 
BRANCH  18  19
HETATM   19  O           1     -22.070  -3.394  -7.447  0.00  0.00    -0.398 OA
HETATM   20  H           1     -22.347  -3.263  -8.338  0.00  0.00     0.209 HD
ENDBRANCH  18  19
ENDBRANCH  14  18
ENDBRANCH   4  14
TORSDOF 9
ENDMDL
MODEL 6
REMARK VINA RESULT:      -4.7     25.368     26.360
REMARK  9 active torsions:
REMARK  status: ('A' for Active; 'I' for Inactive)
REMARK    1  A    between atoms: N_3  and  C_7 
REMARK    2  A    between atoms: Se_5  and  C_19 
REMARK    3  A    between atoms: C_7  and  C_8 
REMARK    4  A    between atoms: C_7  and  C_20 
REMARK       I    between atoms: C_8  and  N_9 
REMARK    5  A    between atoms: N_9  and  C_13 
REMARK    6  A    between atoms: C_12  and  C_13 
REMARK    7  A    between atoms: C_13  and  C_14 
REMARK    8  A    between atoms: C_14  and  O_15 
REMARK    9  A    between atoms: C_19  and  C_20 
ROOT
HETATM    1  H           1     -12.102   7.651 -21.556  0.00  0.00     0.163 HD
HETATM    2  O           1     -11.934   5.592 -19.195  0.00  0.00    -0.271 OA
HETATM    3  C           1     -12.372   6.121 -20.189  0.00  0.00     0.249 C 
HETATM    4  N           1     -11.735   7.209 -20.724  0.00  0.00    -0.343 N 
ENDROOT
BRANCH   3   5
HETATM    5  C           1     -13.622   5.583 -20.841  0.00  0.00     0.274 C 
BRANCH   5   6
HETATM    6  N           1     -13.802   6.228 -22.184  0.00  0.00    -0.067 N 
HETATM    7  H           1     -14.546   5.723 -22.717  0.00  0.00     0.275 HD
HETATM    8  H           1     -14.081   7.226 -22.056  0.00  0.00     0.275 HD
HETATM    9  H           1     -12.903   6.182 -22.715  0.00  0.00     0.275 HD
ENDBRANCH   5   6
BRANCH   5  10
HETATM   10  C           1     -13.496   4.075 -21.015  0.00  0.00     0.042 C 
BRANCH  10  11
HETATM   11  C           1     -12.938   3.768 -22.398  0.00  0.00     0.003 C 
BRANCH  11  12
HETATM   12 Se           1     -10.994   3.668 -22.307  0.00  0.00     0.000 Se
HETATM   13  C           1     -10.962   2.532 -20.723  0.00  0.00     0.000 C 
ENDBRANCH  11  12
ENDBRANCH  10  11
ENDBRANCH   5  10
ENDBRANCH   3   5
BRANCH   4  14
HETATM   14  C           1     -10.534   7.725 -20.096  0.00  0.00     0.209 C 
BRANCH  14  15
HETATM   15  C           1     -10.901   8.845 -19.154  0.00  0.00     0.198 C 
HETATM   16  O           1     -10.198   9.067 -18.143  0.00  0.00    -0.646 OA
HETATM   17  O           1     -11.907   9.551 -19.384  0.00  0.00    -0.646 OA
ENDBRANCH  14  15
BRANCH  14  18
HETATM   18  C           1      -9.589   8.253 -21.169  0.00  0.00     0.200 C 
BRANCH  18  19
HETATM   19  O           1      -9.206   9.563 -20.851  0.00  0.00    -0.398 OA
HETATM   20  H           1      -9.650  10.133 -21.456  0.00  0.00     0.209 HD
ENDBRANCH  18  19
ENDBRANCH  14  18
ENDBRANCH   4  14
TORSDOF 9
ENDMDL
MODEL 7
REMARK VINA RESULT:      -4.6     24.713     25.943
REMARK  9 active torsions:
REMARK  status: ('A' for Active; 'I' for Inactive)
REMARK    1  A    between atoms: N_3  and  C_7 
REMARK    2  A    between atoms: Se_5  and  C_19 
REMARK    3  A    between atoms: C_7  and  C_8 
REMARK    4  A    between atoms: C_7  and  C_20 
REMARK       I    between atoms: C_8  and  N_9 
REMARK    5  A    between atoms: N_9  and  C_13 
REMARK    6  A    between atoms: C_12  and  C_13 
REMARK    7  A    between atoms: C_13  and  C_14 
REMARK    8  A    between atoms: C_14  and  O_15 
REMARK    9  A    between atoms: C_19  and  C_20 
ROOT
HETATM    1  H           1     -12.549   5.553 -19.321  0.00  0.00     0.163 HD
HETATM    2  O           1     -10.921   5.905 -21.980  0.00  0.00    -0.271 OA
HETATM    3  C           1     -11.179   6.008 -20.804  0.00  0.00     0.249 C 
HETATM    4  N           1     -12.333   5.467 -20.306  0.00  0.00    -0.343 N 
ENDROOT
BRANCH   3   5
HETATM    5  C           1     -10.228   6.735 -19.885  0.00  0.00     0.274 C 
BRANCH   5   6
HETATM    6  N           1      -9.214   5.767 -19.350  0.00  0.00    -0.067 N 
HETATM    7  H           1      -9.221   4.897 -19.928  0.00  0.00     0.275 HD
HETATM    8  H           1      -8.265   6.202 -19.386  0.00  0.00     0.275 HD
HETATM    9  H           1      -9.450   5.528 -18.360  0.00  0.00     0.275 HD
ENDBRANCH   5   6
BRANCH   5  10
HETATM   10  C           1      -9.518   7.839 -20.657  0.00  0.00     0.042 C 
BRANCH  10  11
HETATM   11  C           1      -9.920   9.194 -20.092  0.00  0.00     0.003 C 
BRANCH  11  12
HETATM   12 Se           1     -11.661   9.705 -20.802  0.00  0.00     0.000 Se
HETATM   13  C           1     -12.599   9.495 -19.106  0.00  0.00     0.000 C 
ENDBRANCH  11  12
ENDBRANCH  10  11
ENDBRANCH   5  10
ENDBRANCH   3   5
BRANCH   4  14
HETATM   14  C           1     -13.246   4.769 -21.190  0.00  0.00     0.209 C 
BRANCH  14  15
HETATM   15  C           1     -14.668   5.126 -20.829  0.00  0.00     0.198 C 
HETATM   16  O           1     -15.525   5.265 -21.728  0.00  0.00    -0.646 OA
HETATM   17  O           1     -14.987   5.283 -19.630  0.00  0.00    -0.646 OA
ENDBRANCH  14  15
BRANCH  14  18
HETATM   18  C           1     -13.047   3.266 -21.041  0.00  0.00     0.200 C 
BRANCH  18  19
HETATM   19  O           1     -13.833   2.594 -21.987  0.00  0.00    -0.398 OA
HETATM   20  H           1     -13.276   1.960 -22.406  0.00  0.00     0.209 HD
ENDBRANCH  18  19
ENDBRANCH  14  18
ENDBRANCH   4  14
TORSDOF 9
ENDMDL
MODEL 8
REMARK VINA RESULT:      -4.6     24.746     25.729
REMARK  9 active torsions:
REMARK  status: ('A' for Active; 'I' for Inactive)
REMARK    1  A    between atoms: N_3  and  C_7 
REMARK    2  A    between atoms: Se_5  and  C_19 
REMARK    3  A    between atoms: C_7  and  C_8 
REMARK    4  A    between atoms: C_7  and  C_20 
REMARK       I    between atoms: C_8  and  N_9 
REMARK    5  A    between atoms: N_9  and  C_13 
REMARK    6  A    between atoms: C_12  and  C_13 
REMARK    7  A    between atoms: C_13  and  C_14 
REMARK    8  A    between atoms: C_14  and  O_15 
REMARK    9  A    between atoms: C_19  and  C_20 
ROOT
HETATM    1  H           1     -10.766   6.191 -21.667  0.00  0.00     0.163 HD
HETATM    2  O           1     -11.842   5.009 -18.967  0.00  0.00    -0.271 OA
HETATM    3  C           1     -11.487   5.018 -20.122  0.00  0.00     0.249 C 
HETATM    4  N           1     -11.064   6.184 -20.700  0.00  0.00    -0.343 N 
ENDROOT
BRANCH   3   5
HETATM    5  C           1     -11.510   3.742 -20.927  0.00  0.00     0.274 C 
BRANCH   5   6
HETATM    6  N           1     -10.819   2.653 -20.158  0.00  0.00    -0.067 N 
HETATM    7  H           1     -11.322   1.749 -20.306  0.00  0.00     0.275 HD
HETATM    8  H           1      -9.834   2.564 -20.492  0.00  0.00     0.275 HD
HETATM    9  H           1     -10.823   2.891 -19.140  0.00  0.00     0.275 HD
ENDBRANCH   5   6
BRANCH   5  10
HETATM   10  C           1     -12.953   3.336 -21.196  0.00  0.00     0.042 C 
BRANCH  10  11
HETATM   11  C           1     -13.259   3.502 -22.679  0.00  0.00     0.003 C 
BRANCH  11  12
HETATM   12 Se           1     -14.971   4.407 -22.892  0.00  0.00     0.000 Se
HETATM   13  C           1     -15.012   5.111 -21.074  0.00  0.00     0.000 C 
ENDBRANCH  11  12
ENDBRANCH  10  11
ENDBRANCH   5  10
ENDBRANCH   3   5
BRANCH   4  14
HETATM   14  C           1     -11.042   7.410 -19.926  0.00  0.00     0.209 C 
BRANCH  14  15
HETATM   15  C           1     -12.352   8.139 -20.101  0.00  0.00     0.198 C 
HETATM   16  O           1     -12.877   8.724 -19.129  0.00  0.00    -0.646 OA
HETATM   17  O           1     -12.911   8.158 -21.220  0.00  0.00    -0.646 OA
ENDBRANCH  14  15
BRANCH  14  18
HETATM   18  C           1      -9.899   8.294 -20.408  0.00  0.00     0.200 C 
BRANCH  18  19
HETATM   19  O           1     -10.338   9.623 -20.489  0.00  0.00    -0.398 OA
HETATM   20  H           1     -10.667   9.751 -21.362  0.00  0.00     0.209 HD
ENDBRANCH  18  19
ENDBRANCH  14  18
ENDBRANCH   4  14
TORSDOF 9
ENDMDL
MODEL 9
REMARK VINA RESULT:      -4.5      3.441      4.584
REMARK  9 active torsions:
REMARK  status: ('A' for Active; 'I' for Inactive)
REMARK    1  A    between atoms: N_3  and  C_7 
REMARK    2  A    between atoms: Se_5  and  C_19 
REMARK    3  A    between atoms: C_7  and  C_8 
REMARK    4  A    between atoms: C_7  and  C_20 
REMARK       I    between atoms: C_8  and  N_9 
REMARK    5  A    between atoms: N_9  and  C_13 
REMARK    6  A    between atoms: C_12  and  C_13 
REMARK    7  A    between atoms: C_13  and  C_14 
REMARK    8  A    between atoms: C_14  and  O_15 
REMARK    9  A    between atoms: C_19  and  C_20 
ROOT
HETATM    1  H           1     -32.848  -3.440 -14.157  0.00  0.00     0.163 HD
HETATM    2  O           1     -35.251  -5.424 -13.792  0.00  0.00    -0.271 OA
HETATM    3  C           1     -34.354  -4.681 -13.469  0.00  0.00     0.249 C 
HETATM    4  N           1     -33.598  -4.063 -14.428  0.00  0.00    -0.343 N 
ENDROOT
BRANCH   3   5
HETATM    5  C           1     -34.069  -4.435 -12.008  0.00  0.00     0.274 C 
BRANCH   5   6
HETATM    6  N           1     -32.879  -5.247 -11.587  0.00  0.00    -0.067 N 
HETATM    7  H           1     -32.384  -4.762 -10.805  0.00  0.00     0.275 HD
HETATM    8  H           1     -33.197  -6.189 -11.268  0.00  0.00     0.275 HD
HETATM    9  H           1     -32.228  -5.354 -12.397  0.00  0.00     0.275 HD
ENDBRANCH   5   6
BRANCH   5  10
HETATM   10  C           1     -33.776  -2.956 -11.789  0.00  0.00     0.042 C 
BRANCH  10  11
HETATM   11  C           1     -35.087  -2.194 -11.644  0.00  0.00     0.003 C 
BRANCH  11  12
HETATM   12 Se           1     -35.110  -0.697 -12.890  0.00  0.00     0.000 Se
HETATM   13  C           1     -36.986  -0.260 -12.587  0.00  0.00     0.000 C 
ENDBRANCH  11  12
ENDBRANCH  10  11
ENDBRANCH   5  10
ENDBRANCH   3   5
BRANCH   4  14
HETATM   14  C           1     -33.873  -4.301 -15.831  0.00  0.00     0.209 C 
BRANCH  14  15
HETATM   15  C           1     -32.606  -4.737 -16.526  0.00  0.00     0.198 C 
HETATM   16  O           1     -32.571  -5.828 -17.135  0.00  0.00    -0.646 OA
HETATM   17  O           1     -31.592  -4.007 -16.491  0.00  0.00    -0.646 OA
ENDBRANCH  14  15
BRANCH  14  18
HETATM   18  C           1     -34.387  -3.018 -16.472  0.00  0.00     0.200 C 
BRANCH  18  19
HETATM   19  O           1     -33.703  -2.787 -17.674  0.00  0.00    -0.398 OA
HETATM   20  H           1     -33.501  -3.631 -18.040  0.00  0.00     0.209 HD
ENDBRANCH  18  19
ENDBRANCH  14  18
ENDBRANCH   4  14
TORSDOF 9
ENDMDL
