MODEL 1
REMARK VINA RESULT:      -6.2      0.000      0.000
REMARK  8 active torsions:
REMARK  status: ('A' for Active; 'I' for Inactive)
REMARK    1  A    between atoms: N_2  and  C_18 
REMARK       I    between atoms: N_2  and  C_3 
REMARK    2  A    between atoms: C_3  and  C_4 
REMARK    3  A    between atoms: C_4  and  C_13 
REMARK    4  A    between atoms: C_4  and  N_14 
REMARK    5  A    between atoms: C_12  and  C_13 
REMARK    6  A    between atoms: C_17  and  C_18 
REMARK    7  A    between atoms: C_18  and  C_19 
REMARK    8  A    between atoms: C_19  and  O_20 
ROOT
HETATM    1  N           1     -23.007  -3.945  -9.444  0.00  0.00    -0.343 N 
HETATM    2  C           1     -21.910  -3.994  -8.625  0.00  0.00     0.249 C 
HETATM    3  H           1     -23.904  -4.266  -9.106  0.00  0.00     0.163 HD
HETATM    4  O           1     -20.838  -3.610  -9.028  0.00  0.00    -0.271 OA
ENDROOT
BRANCH   2   5
HETATM    5  C           1     -22.041  -4.527  -7.219  0.00  0.00     0.275 C 
BRANCH   5   6
HETATM    6  C           1     -21.453  -5.930  -7.151  0.00  0.00     0.046 C 
BRANCH   6   7
HETATM    7  C           1     -20.575  -6.055  -5.914  0.00  0.00    -0.020 C 
HETATM    8  C           1     -21.370  -6.707  -4.791  0.00  0.00     0.009 C 
HETATM    9  C           1     -20.119  -4.671  -5.473  0.00  0.00     0.009 C 
ENDBRANCH   6   7
ENDBRANCH   5   6
BRANCH   5  10
HETATM   10  N           1     -23.490  -4.573  -6.836  0.00  0.00    -0.066 N 
HETATM   11  H           1     -23.578  -4.876  -5.839  0.00  0.00     0.275 HD
HETATM   12  H           1     -23.910  -3.623  -6.950  0.00  0.00     0.275 HD
HETATM   13  H           1     -23.992  -5.252  -7.452  0.00  0.00     0.275 HD
ENDBRANCH   5  10
ENDBRANCH   2   5
BRANCH   1  14
HETATM   14  C           1     -22.880  -3.433 -10.794  0.00  0.00     0.209 C 
BRANCH  14  15
HETATM   15  C           1     -24.253  -3.160 -11.358  0.00  0.00     0.198 C 
HETATM   16  O           1     -24.387  -2.880 -12.569  0.00  0.00    -0.646 OA
HETATM   17  O           1     -25.257  -3.213 -10.615  0.00  0.00    -0.646 OA
ENDBRANCH  14  15
BRANCH  14  18
HETATM   18  C           1     -22.169  -4.463 -11.663  0.00  0.00     0.200 C 
BRANCH  18  19
HETATM   19  O           1     -21.653  -3.836 -12.805  0.00  0.00    -0.398 OA
HETATM   20  H           1     -21.190  -3.071 -12.511  0.00  0.00     0.209 HD
ENDBRANCH  18  19
ENDBRANCH  14  18
ENDBRANCH   1  14
TORSDOF 8
ENDMDL
MODEL 2
REMARK VINA RESULT:      -6.1      1.688      2.247
REMARK  8 active torsions:
REMARK  status: ('A' for Active; 'I' for Inactive)
REMARK    1  A    between atoms: N_2  and  C_18 
REMARK       I    between atoms: N_2  and  C_3 
REMARK    2  A    between atoms: C_3  and  C_4 
REMARK    3  A    between atoms: C_4  and  C_13 
REMARK    4  A    between atoms: C_4  and  N_14 
REMARK    5  A    between atoms: C_12  and  C_13 
REMARK    6  A    between atoms: C_17  and  C_18 
REMARK    7  A    between atoms: C_18  and  C_19 
REMARK    8  A    between atoms: C_19  and  O_20 
ROOT
HETATM    1  N           1     -22.274  -4.745  -8.705  0.00  0.00    -0.343 N 
HETATM    2  C           1     -21.638  -4.610  -7.500  0.00  0.00     0.249 C 
HETATM    3  H           1     -22.381  -5.661  -9.120  0.00  0.00     0.163 HD
HETATM    4  O           1     -21.510  -3.517  -7.003  0.00  0.00    -0.271 OA
ENDROOT
BRANCH   2   5
HETATM    5  C           1     -21.096  -5.828  -6.792  0.00  0.00     0.275 C 
BRANCH   5   6
HETATM    6  C           1     -20.897  -5.511  -5.316  0.00  0.00     0.046 C 
BRANCH   6   7
HETATM    7  C           1     -21.817  -6.387  -4.478  0.00  0.00    -0.020 C 
HETATM    8  C           1     -21.494  -6.197  -3.003  0.00  0.00     0.009 C 
HETATM    9  C           1     -21.613  -7.848  -4.858  0.00  0.00     0.009 C 
ENDBRANCH   6   7
ENDBRANCH   5   6
BRANCH   5  10
HETATM   10  N           1     -19.782  -6.216  -7.402  0.00  0.00    -0.066 N 
HETATM   11  H           1     -19.103  -6.456  -6.644  0.00  0.00     0.275 HD
HETATM   12  H           1     -19.918  -7.045  -8.023  0.00  0.00     0.275 HD
HETATM   13  H           1     -19.409  -5.417  -7.963  0.00  0.00     0.275 HD
ENDBRANCH   5  10
ENDBRANCH   2   5
BRANCH   1  14
HETATM   14  C           1     -22.794  -3.574  -9.385  0.00  0.00     0.209 C 
BRANCH  14  15
HETATM   15  C           1     -24.271  -3.754  -9.635  0.00  0.00     0.198 C 
HETATM   16  O           1     -25.051  -2.788  -9.494  0.00  0.00    -0.646 OA
HETATM   17  O           1     -24.716  -4.870  -9.983  0.00  0.00    -0.646 OA
ENDBRANCH  14  15
BRANCH  14  18
HETATM   18  C           1     -22.071  -3.397 -10.714  0.00  0.00     0.200 C 
BRANCH  18  19
HETATM   19  O           1     -22.990  -3.009 -11.699  0.00  0.00    -0.398 OA
HETATM   20  H           1     -23.848  -3.202 -11.363  0.00  0.00     0.209 HD
ENDBRANCH  18  19
ENDBRANCH  14  18
ENDBRANCH   1  14
TORSDOF 8
ENDMDL
MODEL 3
REMARK VINA RESULT:      -6.0      2.545      3.689
REMARK  8 active torsions:
REMARK  status: ('A' for Active; 'I' for Inactive)
REMARK    1  A    between atoms: N_2  and  C_18 
REMARK       I    between atoms: N_2  and  C_3 
REMARK    2  A    between atoms: C_3  and  C_4 
REMARK    3  A    between atoms: C_4  and  C_13 
REMARK    4  A    between atoms: C_4  and  N_14 
REMARK    5  A    between atoms: C_12  and  C_13 
REMARK    6  A    between atoms: C_17  and  C_18 
REMARK    7  A    between atoms: C_18  and  C_19 
REMARK    8  A    between atoms: C_19  and  O_20 
ROOT
HETATM    1  N           1     -22.204  -3.381 -12.806  0.00  0.00    -0.343 N 
HETATM    2  C           1     -22.177  -4.235 -11.736  0.00  0.00     0.249 C 
HETATM    3  H           1     -21.385  -2.836 -13.038  0.00  0.00     0.163 HD
HETATM    4  O           1     -23.156  -4.887 -11.459  0.00  0.00    -0.271 OA
ENDROOT
BRANCH   2   5
HETATM    5  C           1     -20.926  -4.363 -10.903  0.00  0.00     0.275 C 
BRANCH   5   6
HETATM    6  C           1     -21.272  -4.177  -9.433  0.00  0.00     0.046 C 
BRANCH   6   7
HETATM    7  C           1     -20.347  -5.033  -8.579  0.00  0.00    -0.020 C 
HETATM    8  C           1     -21.156  -5.723  -7.489  0.00  0.00     0.009 C 
HETATM    9  C           1     -19.284  -4.150  -7.939  0.00  0.00     0.009 C 
ENDBRANCH   6   7
ENDBRANCH   5   6
BRANCH   5  10
HETATM   10  N           1     -19.939  -3.313 -11.321  0.00  0.00    -0.066 N 
HETATM   11  H           1     -19.113  -3.769 -11.769  0.00  0.00     0.275 HD
HETATM   12  H           1     -20.392  -2.664 -12.004  0.00  0.00     0.275 HD
HETATM   13  H           1     -19.628  -2.774 -10.482  0.00  0.00     0.275 HD
ENDBRANCH   5  10
ENDBRANCH   2   5
BRANCH   1  14
HETATM   14  C           1     -23.408  -3.258 -13.606  0.00  0.00     0.209 C 
BRANCH  14  15
HETATM   15  C           1     -23.111  -2.438 -14.837  0.00  0.00     0.198 C 
HETATM   16  O           1     -22.246  -2.825 -15.652  0.00  0.00    -0.646 OA
HETATM   17  O           1     -23.730  -1.371 -15.043  0.00  0.00    -0.646 OA
ENDBRANCH  14  15
BRANCH  14  18
HETATM   18  C           1     -24.493  -2.571 -12.787  0.00  0.00     0.200 C 
BRANCH  18  19
HETATM   19  O           1     -25.657  -3.352 -12.802  0.00  0.00    -0.398 OA
HETATM   20  H           1     -26.382  -2.764 -12.677  0.00  0.00     0.209 HD
ENDBRANCH  18  19
ENDBRANCH  14  18
ENDBRANCH   1  14
TORSDOF 8
ENDMDL
MODEL 4
REMARK VINA RESULT:      -5.7      2.113      3.127
REMARK  8 active torsions:
REMARK  status: ('A' for Active; 'I' for Inactive)
REMARK    1  A    between atoms: N_2  and  C_18 
REMARK       I    between atoms: N_2  and  C_3 
REMARK    2  A    between atoms: C_3  and  C_4 
REMARK    3  A    between atoms: C_4  and  C_13 
REMARK    4  A    between atoms: C_4  and  N_14 
REMARK    5  A    between atoms: C_12  and  C_13 
REMARK    6  A    between atoms: C_17  and  C_18 
REMARK    7  A    between atoms: C_18  and  C_19 
REMARK    8  A    between atoms: C_19  and  O_20 
ROOT
HETATM    1  N           1     -23.524  -3.197 -11.962  0.00  0.00    -0.343 N 
HETATM    2  C           1     -22.781  -3.816 -10.993  0.00  0.00     0.249 C 
HETATM    3  H           1     -24.167  -2.458 -11.710  0.00  0.00     0.163 HD
HETATM    4  O           1     -22.012  -4.699 -11.293  0.00  0.00    -0.271 OA
ENDROOT
BRANCH   2   5
HETATM    5  C           1     -22.921  -3.397  -9.550  0.00  0.00     0.275 C 
BRANCH   5   6
HETATM    6  C           1     -22.370  -4.491  -8.647  0.00  0.00     0.046 C 
BRANCH   6   7
HETATM    7  C           1     -21.337  -3.897  -7.700  0.00  0.00    -0.020 C 
HETATM    8  C           1     -19.960  -3.958  -8.347  0.00  0.00     0.009 C 
HETATM    9  C           1     -21.321  -4.692  -6.401  0.00  0.00     0.009 C 
ENDBRANCH   6   7
ENDBRANCH   5   6
BRANCH   5  10
HETATM   10  N           1     -24.370  -3.171  -9.234  0.00  0.00    -0.066 N 
HETATM   11  H           1     -24.532  -2.156  -9.046  0.00  0.00     0.275 HD
HETATM   12  H           1     -24.953  -3.472 -10.048  0.00  0.00     0.275 HD
HETATM   13  H           1     -24.634  -3.729  -8.391  0.00  0.00     0.275 HD
ENDBRANCH   5  10
ENDBRANCH   2   5
BRANCH   1  14
HETATM   14  C           1     -23.389  -3.601 -13.348  0.00  0.00     0.209 C 
BRANCH  14  15
HETATM   15  C           1     -23.569  -2.399 -14.241  0.00  0.00     0.198 C 
HETATM   16  O           1     -24.468  -1.566 -13.996  0.00  0.00    -0.646 OA
HETATM   17  O           1     -22.820  -2.235 -15.228  0.00  0.00    -0.646 OA
ENDBRANCH  14  15
BRANCH  14  18
HETATM   18  C           1     -24.451  -4.643 -13.678  0.00  0.00     0.200 C 
BRANCH  18  19
HETATM   19  O           1     -24.446  -4.896 -15.057  0.00  0.00    -0.398 OA
HETATM   20  H           1     -23.816  -5.578 -15.207  0.00  0.00     0.209 HD
ENDBRANCH  18  19
ENDBRANCH  14  18
ENDBRANCH   1  14
TORSDOF 8
ENDMDL
MODEL 5
REMARK VINA RESULT:      -5.7      2.200      5.468
REMARK  8 active torsions:
REMARK  status: ('A' for Active; 'I' for Inactive)
REMARK    1  A    between atoms: N_2  and  C_18 
REMARK       I    between atoms: N_2  and  C_3 
REMARK    2  A    between atoms: C_3  and  C_4 
REMARK    3  A    between atoms: C_4  and  C_13 
REMARK    4  A    between atoms: C_4  and  N_14 
REMARK    5  A    between atoms: C_12  and  C_13 
REMARK    6  A    between atoms: C_17  and  C_18 
REMARK    7  A    between atoms: C_18  and  C_19 
REMARK    8  A    between atoms: C_19  and  O_20 
ROOT
HETATM    1  N           1     -22.208  -5.203  -8.674  0.00  0.00    -0.343 N 
HETATM    2  C           1     -23.203  -4.293  -8.916  0.00  0.00     0.249 C 
HETATM    3  H           1     -22.190  -6.078  -9.180  0.00  0.00     0.163 HD
HETATM    4  O           1     -23.225  -3.247  -8.313  0.00  0.00    -0.271 OA
ENDROOT
BRANCH   2   5
HETATM    5  C           1     -24.271  -4.597  -9.938  0.00  0.00     0.275 C 
BRANCH   5   6
HETATM    6  C           1     -23.672  -4.529 -11.336  0.00  0.00     0.046 C 
BRANCH   6   7
HETATM    7  C           1     -23.363  -3.080 -11.687  0.00  0.00    -0.020 C 
HETATM    8  C           1     -24.003  -2.735 -13.024  0.00  0.00     0.009 C 
HETATM    9  C           1     -21.855  -2.890 -11.782  0.00  0.00     0.009 C 
ENDBRANCH   6   7
ENDBRANCH   5   6
BRANCH   5  10
HETATM   10  N           1     -25.376  -3.590  -9.818  0.00  0.00    -0.066 N 
HETATM   11  H           1     -26.161  -3.997  -9.260  0.00  0.00     0.275 HD
HETATM   12  H           1     -25.016  -2.734  -9.338  0.00  0.00     0.275 HD
HETATM   13  H           1     -25.721  -3.336 -10.771  0.00  0.00     0.275 HD
ENDBRANCH   5  10
ENDBRANCH   2   5
BRANCH   1  14
HETATM   14  C           1     -21.182  -4.910  -7.692  0.00  0.00     0.209 C 
BRANCH  14  15
HETATM   15  C           1     -19.882  -4.615  -8.398  0.00  0.00     0.198 C 
HETATM   16  O           1     -19.771  -4.836  -9.623  0.00  0.00    -0.646 OA
HETATM   17  O           1     -18.913  -4.150  -7.758  0.00  0.00    -0.646 OA
ENDBRANCH  14  15
BRANCH  14  18
HETATM   18  C           1     -21.001  -6.112  -6.774  0.00  0.00     0.200 C 
BRANCH  18  19
HETATM   19  O           1     -19.771  -6.727  -7.045  0.00  0.00    -0.398 OA
HETATM   20  H           1     -19.567  -6.546  -7.946  0.00  0.00     0.209 HD
ENDBRANCH  18  19
ENDBRANCH  14  18
ENDBRANCH   1  14
TORSDOF 8
ENDMDL
MODEL 6
REMARK VINA RESULT:      -5.5      9.919     11.949
REMARK  8 active torsions:
REMARK  status: ('A' for Active; 'I' for Inactive)
REMARK    1  A    between atoms: N_2  and  C_18 
REMARK       I    between atoms: N_2  and  C_3 
REMARK    2  A    between atoms: C_3  and  C_4 
REMARK    3  A    between atoms: C_4  and  C_13 
REMARK    4  A    between atoms: C_4  and  N_14 
REMARK    5  A    between atoms: C_12  and  C_13 
REMARK    6  A    between atoms: C_17  and  C_18 
REMARK    7  A    between atoms: C_18  and  C_19 
REMARK    8  A    between atoms: C_19  and  O_20 
ROOT
HETATM    1  N           1     -26.632  -6.655 -17.773  0.00  0.00    -0.343 N 
HETATM    2  C           1     -26.210  -6.544 -19.071  0.00  0.00     0.249 C 
HETATM    3  H           1     -25.986  -6.955 -17.055  0.00  0.00     0.163 HD
HETATM    4  O           1     -26.981  -6.184 -19.928  0.00  0.00    -0.271 OA
ENDROOT
BRANCH   2   5
HETATM    5  C           1     -24.781  -6.871 -19.430  0.00  0.00     0.275 C 
BRANCH   5   6
HETATM    6  C           1     -24.762  -7.884 -20.567  0.00  0.00     0.046 C 
BRANCH   6   7
HETATM    7  C           1     -23.525  -7.662 -21.426  0.00  0.00    -0.020 C 
HETATM    8  C           1     -23.916  -7.695 -22.897  0.00  0.00     0.009 C 
HETATM    9  C           1     -22.509  -8.761 -21.147  0.00  0.00     0.009 C 
ENDBRANCH   6   7
ENDBRANCH   5   6
BRANCH   5  10
HETATM   10  N           1     -24.085  -7.449 -18.234  0.00  0.00    -0.066 N 
HETATM   11  H           1     -23.801  -8.434 -18.439  0.00  0.00     0.275 HD
HETATM   12  H           1     -23.236  -6.879 -18.018  0.00  0.00     0.275 HD
HETATM   13  H           1     -24.733  -7.436 -17.414  0.00  0.00     0.275 HD
ENDBRANCH   5  10
ENDBRANCH   2   5
BRANCH   1  14
HETATM   14  C           1     -28.005  -6.341 -17.428  0.00  0.00     0.209 C 
BRANCH  14  15
HETATM   15  C           1     -28.202  -6.517 -15.942  0.00  0.00     0.198 C 
HETATM   16  O           1     -27.510  -7.346 -15.314  0.00  0.00    -0.646 OA
HETATM   17  O           1     -29.059  -5.835 -15.340  0.00  0.00    -0.646 OA
ENDBRANCH  14  15
BRANCH  14  18
HETATM   18  C           1     -28.943  -7.276 -18.180  0.00  0.00     0.200 C 
BRANCH  18  19
HETATM   19  O           1     -29.379  -8.293 -17.319  0.00  0.00    -0.398 OA
HETATM   20  H           1     -28.649  -8.517 -16.769  0.00  0.00     0.209 HD
ENDBRANCH  18  19
ENDBRANCH  14  18
ENDBRANCH   1  14
TORSDOF 8
ENDMDL
MODEL 7
REMARK VINA RESULT:      -5.4     10.051     11.758
REMARK  8 active torsions:
REMARK  status: ('A' for Active; 'I' for Inactive)
REMARK    1  A    between atoms: N_2  and  C_18 
REMARK       I    between atoms: N_2  and  C_3 
REMARK    2  A    between atoms: C_3  and  C_4 
REMARK    3  A    between atoms: C_4  and  C_13 
REMARK    4  A    between atoms: C_4  and  N_14 
REMARK    5  A    between atoms: C_12  and  C_13 
REMARK    6  A    between atoms: C_17  and  C_18 
REMARK    7  A    between atoms: C_18  and  C_19 
REMARK    8  A    between atoms: C_19  and  O_20 
ROOT
HETATM    1  N           1     -27.596  -7.293 -19.261  0.00  0.00    -0.343 N 
HETATM    2  C           1     -28.432  -6.351 -18.723  0.00  0.00     0.249 C 
HETATM    3  H           1     -27.630  -8.247 -18.928  0.00  0.00     0.163 HD
HETATM    4  O           1     -28.393  -5.211 -19.121  0.00  0.00    -0.271 OA
ENDROOT
BRANCH   2   5
HETATM    5  C           1     -29.402  -6.736 -17.633  0.00  0.00     0.275 C 
BRANCH   5   6
HETATM    6  C           1     -28.770  -7.796 -16.741  0.00  0.00     0.046 C 
BRANCH   6   7
HETATM    7  C           1     -28.171  -7.133 -15.509  0.00  0.00    -0.020 C 
HETATM    8  C           1     -28.981  -5.894 -15.155  0.00  0.00     0.009 C 
HETATM    9  C           1     -26.730  -6.732 -15.797  0.00  0.00     0.009 C 
ENDBRANCH   6   7
ENDBRANCH   5   6
BRANCH   5  10
HETATM   10  N           1     -30.654  -7.284 -18.251  0.00  0.00    -0.066 N 
HETATM   11  H           1     -31.243  -6.496 -18.602  0.00  0.00     0.275 HD
HETATM   12  H           1     -30.401  -7.912 -19.047  0.00  0.00     0.275 HD
HETATM   13  H           1     -31.187  -7.827 -17.534  0.00  0.00     0.275 HD
ENDBRANCH   5  10
ENDBRANCH   2   5
BRANCH   1  14
HETATM   14  C           1     -26.665  -6.922 -20.308  0.00  0.00     0.209 C 
BRANCH  14  15
HETATM   15  C           1     -26.462  -8.093 -21.238  0.00  0.00     0.198 C 
HETATM   16  O           1     -25.343  -8.292 -21.757  0.00  0.00    -0.646 OA
HETATM   17  O           1     -27.413  -8.864 -21.490  0.00  0.00    -0.646 OA
ENDBRANCH  14  15
BRANCH  14  18
HETATM   18  C           1     -25.330  -6.531 -19.684  0.00  0.00     0.200 C 
BRANCH  18  19
HETATM   19  O           1     -24.699  -7.674 -19.174  0.00  0.00    -0.398 OA
HETATM   20  H           1     -23.912  -7.384 -18.746  0.00  0.00     0.209 HD
ENDBRANCH  18  19
ENDBRANCH  14  18
ENDBRANCH   1  14
TORSDOF 8
ENDMDL
MODEL 8
REMARK VINA RESULT:      -5.3      3.639      5.794
REMARK  8 active torsions:
REMARK  status: ('A' for Active; 'I' for Inactive)
REMARK    1  A    between atoms: N_2  and  C_18 
REMARK       I    between atoms: N_2  and  C_3 
REMARK    2  A    between atoms: C_3  and  C_4 
REMARK    3  A    between atoms: C_4  and  C_13 
REMARK    4  A    between atoms: C_4  and  N_14 
REMARK    5  A    between atoms: C_12  and  C_13 
REMARK    6  A    between atoms: C_17  and  C_18 
REMARK    7  A    between atoms: C_18  and  C_19 
REMARK    8  A    between atoms: C_19  and  O_20 
ROOT
HETATM    1  N           1     -21.464  -5.525  -4.874  0.00  0.00    -0.343 N 
HETATM    2  C           1     -21.353  -6.619  -4.058  0.00  0.00     0.249 C 
HETATM    3  H           1     -21.449  -4.595  -4.476  0.00  0.00     0.163 HD
HETATM    4  O           1     -21.370  -7.730  -4.533  0.00  0.00    -0.271 OA
ENDROOT
BRANCH   2   5
HETATM    5  C           1     -21.209  -6.439  -2.567  0.00  0.00     0.275 C 
BRANCH   5   6
HETATM    6  C           1     -20.831  -7.768  -1.929  0.00  0.00     0.046 C 
BRANCH   6   7
HETATM    7  C           1     -21.954  -8.229  -1.010  0.00  0.00    -0.020 C 
HETATM    8  C           1     -21.467  -8.215   0.432  0.00  0.00     0.009 C 
HETATM    9  C           1     -22.372  -9.644  -1.389  0.00  0.00     0.009 C 
ENDBRANCH   6   7
ENDBRANCH   5   6
BRANCH   5  10
HETATM   10  N           1     -22.511  -5.962  -1.994  0.00  0.00    -0.066 N 
HETATM   11  H           1     -22.476  -6.023  -0.952  0.00  0.00     0.275 HD
HETATM   12  H           1     -22.673  -4.970  -2.280  0.00  0.00     0.275 HD
HETATM   13  H           1     -23.289  -6.560  -2.353  0.00  0.00     0.275 HD
ENDBRANCH   5  10
ENDBRANCH   2   5
BRANCH   1  14
HETATM   14  C           1     -21.603  -5.699  -6.306  0.00  0.00     0.209 C 
BRANCH  14  15
HETATM   15  C           1     -20.279  -5.423  -6.976  0.00  0.00     0.198 C 
HETATM   16  O           1     -20.040  -5.897  -8.107  0.00  0.00    -0.646 OA
HETATM   17  O           1     -19.421  -4.720  -6.400  0.00  0.00    -0.646 OA
ENDBRANCH  14  15
BRANCH  14  18
HETATM   18  C           1     -22.653  -4.731  -6.836  0.00  0.00     0.200 C 
BRANCH  18  19
HETATM   19  O           1     -22.019  -3.604  -7.380  0.00  0.00    -0.398 OA
HETATM   20  H           1     -22.606  -2.877  -7.261  0.00  0.00     0.209 HD
ENDBRANCH  18  19
ENDBRANCH  14  18
ENDBRANCH   1  14
TORSDOF 8
ENDMDL
MODEL 9
REMARK VINA RESULT:      -5.3      3.088      6.325
REMARK  8 active torsions:
REMARK  status: ('A' for Active; 'I' for Inactive)
REMARK    1  A    between atoms: N_2  and  C_18 
REMARK       I    between atoms: N_2  and  C_3 
REMARK    2  A    between atoms: C_3  and  C_4 
REMARK    3  A    between atoms: C_4  and  C_13 
REMARK    4  A    between atoms: C_4  and  N_14 
REMARK    5  A    between atoms: C_12  and  C_13 
REMARK    6  A    between atoms: C_17  and  C_18 
REMARK    7  A    between atoms: C_18  and  C_19 
REMARK    8  A    between atoms: C_19  and  O_20 
ROOT
HETATM    1  N           1     -21.552  -6.112  -6.435  0.00  0.00    -0.343 N 
HETATM    2  C           1     -21.428  -4.967  -7.176  0.00  0.00     0.249 C 
HETATM    3  H           1     -22.315  -6.750  -6.615  0.00  0.00     0.163 HD
HETATM    4  O           1     -20.516  -4.205  -6.962  0.00  0.00    -0.271 OA
ENDROOT
BRANCH   2   5
HETATM    5  C           1     -22.431  -4.658  -8.260  0.00  0.00     0.275 C 
BRANCH   5   6
HETATM    6  C           1     -21.873  -3.575  -9.174  0.00  0.00     0.046 C 
BRANCH   6   7
HETATM    7  C           1     -21.736  -4.122 -10.587  0.00  0.00    -0.020 C 
HETATM    8  C           1     -20.265  -4.374 -10.893  0.00  0.00     0.009 C 
HETATM    9  C           1     -22.293  -3.112 -11.580  0.00  0.00     0.009 C 
ENDBRANCH   6   7
ENDBRANCH   5   6
BRANCH   5  10
HETATM   10  N           1     -23.707  -4.177  -7.637  0.00  0.00    -0.066 N 
HETATM   11  H           1     -24.510  -4.403  -8.268  0.00  0.00     0.275 HD
HETATM   12  H           1     -23.844  -4.652  -6.716  0.00  0.00     0.275 HD
HETATM   13  H           1     -23.657  -3.144  -7.492  0.00  0.00     0.275 HD
ENDBRANCH   5  10
ENDBRANCH   2   5
BRANCH   1  14
HETATM   14  C           1     -20.588  -6.408  -5.392  0.00  0.00     0.209 C 
BRANCH  14  15
HETATM   15  C           1     -20.365  -7.899  -5.325  0.00  0.00     0.198 C 
HETATM   16  O           1     -19.307  -8.351  -4.837  0.00  0.00    -0.646 OA
HETATM   17  O           1     -21.238  -8.683  -5.757  0.00  0.00    -0.646 OA
ENDBRANCH  14  15
BRANCH  14  18
HETATM   18  C           1     -21.121  -5.913  -4.054  0.00  0.00     0.200 C 
BRANCH  18  19
HETATM   19  O           1     -22.470  -6.272  -3.924  0.00  0.00    -0.398 OA
HETATM   20  H           1     -22.517  -6.913  -3.236  0.00  0.00     0.209 HD
ENDBRANCH  18  19
ENDBRANCH  14  18
ENDBRANCH   1  14
TORSDOF 8
ENDMDL
