MODEL 1
REMARK VINA RESULT:      -7.3      0.000      0.000
REMARK  11 active torsions:
REMARK  status: ('A' for Active; 'I' for Inactive)
REMARK       I    between atoms: C_1  and  N_10 
REMARK    1  A    between atoms: C_1  and  C_2 
REMARK    2  A    between atoms: C_2  and  C_3 
REMARK    3  A    between atoms: C_2  and  N_15 
REMARK    4  A    between atoms: C_3  and  C_23 
REMARK    5  A    between atoms: N_10  and  C_12 
REMARK    6  A    between atoms: C_11  and  C_18 
REMARK    7  A    between atoms: C_11  and  C_12 
REMARK    8  A    between atoms: C_12  and  C_28 
REMARK    9  A    between atoms: C_14  and  O_20 
REMARK   10  A    between atoms: C_16  and  N_25 
REMARK   11  A    between atoms: C_16  and  C_18 
ROOT
HETATM    1  C           1     -35.384  -1.985 -10.760  0.00  0.00     0.249 C 
HETATM    2  O           1     -34.398  -1.682 -10.133  0.00  0.00    -0.271 OA
HETATM    3  N           1     -35.474  -3.224 -11.338  0.00  0.00    -0.345 N 
HETATM    4  H           1     -36.300  -3.479 -11.864  0.00  0.00     0.163 HD
ENDROOT
BRANCH   1   5
HETATM    5  C           1     -36.518  -1.000 -10.908  0.00  0.00     0.278 C 
BRANCH   5   6
HETATM    6  C           1     -36.035   0.216 -11.687  0.00  0.00     0.081 C 
BRANCH   6   7
HETATM    7  C           1     -36.233  -0.019 -13.152  0.00  0.00    -0.056 A 
HETATM    8  C           1     -37.523  -0.092 -13.679  0.00  0.00     0.010 A 
HETATM    9  C           1     -37.707  -0.312 -15.045  0.00  0.00     0.037 A 
HETATM   10  C           1     -36.601  -0.458 -15.883  0.00  0.00     0.065 A 
HETATM   11  C           1     -35.312  -0.385 -15.355  0.00  0.00     0.037 A 
HETATM   12  C           1     -35.128  -0.166 -13.990  0.00  0.00     0.010 A 
BRANCH  10  13
HETATM   13  O           1     -36.780  -0.672 -17.209  0.00  0.00    -0.361 OA
HETATM   14  H           1     -37.617  -1.152 -17.325  0.00  0.00     0.217 HD
ENDBRANCH  10  13
ENDBRANCH   6   7
ENDBRANCH   5   6
BRANCH   5  15
HETATM   15  N           1     -36.985  -0.570  -9.549  0.00  0.00    -0.066 N 
HETATM   16  H           1     -36.236  -0.760  -8.847  0.00  0.00     0.275 HD
HETATM   17  H           1     -37.198   0.454  -9.563  0.00  0.00     0.275 HD
HETATM   18  H           1     -37.847  -1.102  -9.292  0.00  0.00     0.275 HD
ENDBRANCH   5  15
ENDBRANCH   1   5
BRANCH   3  19
HETATM   19  C           1     -34.384  -4.170 -11.197  0.00  0.00     0.185 C 
BRANCH  19  20
HETATM   20  C           1     -34.940  -5.588 -11.187  0.00  0.00     0.038 C 
BRANCH  20  21
HETATM   21  C           1     -33.977  -6.507 -10.449  0.00  0.00     0.030 C 
BRANCH  21  22
HETATM   22  C           1     -34.655  -7.844 -10.180  0.00  0.00     0.230 C 
BRANCH  22  23
HETATM   23  N           1     -33.625  -8.934 -10.166  0.00  0.00    -0.079 N 
HETATM   24  H           1     -33.609  -9.410 -11.097  0.00  0.00     0.274 HD
HETATM   25  H           1     -33.863  -9.631  -9.425  0.00  0.00     0.274 HD
HETATM   26  H           1     -32.685  -8.523  -9.969  0.00  0.00     0.274 HD
ENDBRANCH  22  23
ENDBRANCH  21  22
ENDBRANCH  20  21
ENDBRANCH  19  20
BRANCH  19  27
HETATM   27  C           1     -33.430  -4.012 -12.355  0.00  0.00     0.196 C 
HETATM   28  O           1     -33.853  -3.625 -13.465  0.00  0.00    -0.646 OA
HETATM   29  O           1     -32.215  -4.266 -12.202  0.00  0.00    -0.646 OA
ENDBRANCH  19  27
ENDBRANCH   3  19
TORSDOF 11
ENDMDL
MODEL 2
REMARK VINA RESULT:      -7.2     13.533     15.775
REMARK  11 active torsions:
REMARK  status: ('A' for Active; 'I' for Inactive)
REMARK       I    between atoms: C_1  and  N_10 
REMARK    1  A    between atoms: C_1  and  C_2 
REMARK    2  A    between atoms: C_2  and  C_3 
REMARK    3  A    between atoms: C_2  and  N_15 
REMARK    4  A    between atoms: C_3  and  C_23 
REMARK    5  A    between atoms: N_10  and  C_12 
REMARK    6  A    between atoms: C_11  and  C_18 
REMARK    7  A    between atoms: C_11  and  C_12 
REMARK    8  A    between atoms: C_12  and  C_28 
REMARK    9  A    between atoms: C_14  and  O_20 
REMARK   10  A    between atoms: C_16  and  N_25 
REMARK   11  A    between atoms: C_16  and  C_18 
ROOT
HETATM    1  C           1     -21.297  -5.882  -5.619  0.00  0.00     0.249 C 
HETATM    2  O           1     -20.709  -5.147  -4.864  0.00  0.00    -0.271 OA
HETATM    3  N           1     -21.215  -7.240  -5.455  0.00  0.00    -0.345 N 
HETATM    4  H           1     -21.708  -7.856  -6.088  0.00  0.00     0.163 HD
ENDROOT
BRANCH   1   5
HETATM    5  C           1     -22.123  -5.307  -6.744  0.00  0.00     0.278 C 
BRANCH   5   6
HETATM    6  C           1     -21.488  -4.009  -7.227  0.00  0.00     0.081 C 
BRANCH   6   7
HETATM    7  C           1     -21.540  -3.956  -8.722  0.00  0.00    -0.056 A 
HETATM    8  C           1     -22.721  -3.590  -9.367  0.00  0.00     0.010 A 
HETATM    9  C           1     -22.769  -3.541 -10.761  0.00  0.00     0.037 A 
HETATM   10  C           1     -21.635  -3.857 -11.509  0.00  0.00     0.065 A 
HETATM   11  C           1     -20.454  -4.224 -10.864  0.00  0.00     0.037 A 
HETATM   12  C           1     -20.406  -4.273  -9.470  0.00  0.00     0.010 A 
BRANCH  10  13
HETATM   13  O           1     -21.681  -3.810 -12.862  0.00  0.00    -0.361 OA
HETATM   14  H           1     -21.914  -2.903 -13.123  0.00  0.00     0.217 HD
ENDBRANCH  10  13
ENDBRANCH   6   7
ENDBRANCH   5   6
BRANCH   5  15
HETATM   15  N           1     -23.512  -5.029  -6.251  0.00  0.00    -0.066 N 
HETATM   16  H           1     -24.159  -4.938  -7.066  0.00  0.00     0.275 HD
HETATM   17  H           1     -23.829  -5.817  -5.642  0.00  0.00     0.275 HD
HETATM   18  H           1     -23.516  -4.140  -5.702  0.00  0.00     0.275 HD
ENDBRANCH   5  15
ENDBRANCH   1   5
BRANCH   3  19
HETATM   19  C           1     -20.421  -7.793  -4.376  0.00  0.00     0.185 C 
BRANCH  19  20
HETATM   20  C           1     -21.344  -8.334  -3.292  0.00  0.00     0.038 C 
BRANCH  20  21
HETATM   21  C           1     -20.925  -7.773  -1.940  0.00  0.00     0.030 C 
BRANCH  21  22
HETATM   22  C           1     -22.079  -6.984  -1.336  0.00  0.00     0.230 C 
BRANCH  22  23
HETATM   23  N           1     -22.373  -5.789  -2.195  0.00  0.00    -0.079 N 
HETATM   24  H           1     -22.087  -4.920  -1.690  0.00  0.00     0.274 HD
HETATM   25  H           1     -23.397  -5.750  -2.401  0.00  0.00     0.274 HD
HETATM   26  H           1     -21.840  -5.865  -3.090  0.00  0.00     0.274 HD
ENDBRANCH  22  23
ENDBRANCH  21  22
ENDBRANCH  20  21
ENDBRANCH  19  20
BRANCH  19  27
HETATM   27  C           1     -19.561  -8.912  -4.908  0.00  0.00     0.196 C 
HETATM   28  O           1     -18.940  -8.766  -5.983  0.00  0.00    -0.646 OA
HETATM   29  O           1     -19.468  -9.985  -4.273  0.00  0.00    -0.646 OA
ENDBRANCH  19  27
ENDBRANCH   3  19
TORSDOF 11
ENDMDL
MODEL 3
REMARK VINA RESULT:      -7.2     12.646     16.074
REMARK  11 active torsions:
REMARK  status: ('A' for Active; 'I' for Inactive)
REMARK       I    between atoms: C_1  and  N_10 
REMARK    1  A    between atoms: C_1  and  C_2 
REMARK    2  A    between atoms: C_2  and  C_3 
REMARK    3  A    between atoms: C_2  and  N_15 
REMARK    4  A    between atoms: C_3  and  C_23 
REMARK    5  A    between atoms: N_10  and  C_12 
REMARK    6  A    between atoms: C_11  and  C_18 
REMARK    7  A    between atoms: C_11  and  C_12 
REMARK    8  A    between atoms: C_12  and  C_28 
REMARK    9  A    between atoms: C_14  and  O_20 
REMARK   10  A    between atoms: C_16  and  N_25 
REMARK   11  A    between atoms: C_16  and  C_18 
ROOT
HETATM    1  C           1     -21.610  -4.583  -7.667  0.00  0.00     0.249 C 
HETATM    2  O           1     -21.566  -3.450  -7.251  0.00  0.00    -0.271 OA
HETATM    3  N           1     -22.145  -4.839  -8.902  0.00  0.00    -0.345 N 
HETATM    4  H           1     -22.181  -5.788  -9.250  0.00  0.00     0.163 HD
ENDROOT
BRANCH   1   5
HETATM    5  C           1     -21.074  -5.717  -6.828  0.00  0.00     0.278 C 
BRANCH   5   6
HETATM    6  C           1     -20.858  -5.233  -5.399  0.00  0.00     0.081 C 
BRANCH   6   7
HETATM    7  C           1     -21.141  -6.353  -4.446  0.00  0.00    -0.056 A 
HETATM    8  C           1     -21.289  -6.089  -3.084  0.00  0.00     0.010 A 
HETATM    9  C           1     -21.552  -7.133  -2.197  0.00  0.00     0.037 A 
HETATM   10  C           1     -21.668  -8.440  -2.672  0.00  0.00     0.065 A 
HETATM   11  C           1     -21.518  -8.702  -4.033  0.00  0.00     0.037 A 
HETATM   12  C           1     -21.255  -7.659  -4.921  0.00  0.00     0.010 A 
BRANCH  10  13
HETATM   13  O           1     -21.922  -9.453  -1.809  0.00  0.00    -0.361 OA
HETATM   14  H           1     -22.613  -9.157  -1.194  0.00  0.00     0.217 HD
ENDBRANCH  10  13
ENDBRANCH   6   7
ENDBRANCH   5   6
BRANCH   5  15
HETATM   15  N           1     -19.767  -6.185  -7.398  0.00  0.00    -0.066 N 
HETATM   16  H           1     -18.979  -5.754  -6.864  0.00  0.00     0.275 HD
HETATM   17  H           1     -19.709  -7.226  -7.324  0.00  0.00     0.275 HD
HETATM   18  H           1     -19.704  -5.903  -8.402  0.00  0.00     0.275 HD
ENDBRANCH   5  15
ENDBRANCH   1   5
BRANCH   3  19
HETATM   19  C           1     -22.661  -3.750  -9.708  0.00  0.00     0.185 C 
BRANCH  19  20
HETATM   20  C           1     -22.108  -3.858 -11.122  0.00  0.00     0.038 C 
BRANCH  20  21
HETATM   21  C           1     -22.460  -2.600 -11.904  0.00  0.00     0.030 C 
BRANCH  21  22
HETATM   22  C           1     -22.995  -2.988 -13.276  0.00  0.00     0.230 C 
BRANCH  22  23
HETATM   23  N           1     -23.829  -4.229 -13.156  0.00  0.00    -0.079 N 
HETATM   24  H           1     -23.247  -5.003 -12.763  0.00  0.00     0.274 HD
HETATM   25  H           1     -24.182  -4.506 -14.100  0.00  0.00     0.274 HD
HETATM   26  H           1     -24.639  -4.045 -12.522  0.00  0.00     0.274 HD
ENDBRANCH  22  23
ENDBRANCH  21  22
ENDBRANCH  20  21
ENDBRANCH  19  20
BRANCH  19  27
HETATM   27  C           1     -24.168  -3.827  -9.750  0.00  0.00     0.196 C 
HETATM   28  O           1     -24.854  -2.832  -9.431  0.00  0.00    -0.646 OA
HETATM   29  O           1     -24.729  -4.886 -10.106  0.00  0.00    -0.646 OA
ENDBRANCH  19  27
ENDBRANCH   3  19
TORSDOF 11
ENDMDL
MODEL 4
REMARK VINA RESULT:      -6.9     12.947     15.062
REMARK  11 active torsions:
REMARK  status: ('A' for Active; 'I' for Inactive)
REMARK       I    between atoms: C_1  and  N_10 
REMARK    1  A    between atoms: C_1  and  C_2 
REMARK    2  A    between atoms: C_2  and  C_3 
REMARK    3  A    between atoms: C_2  and  N_15 
REMARK    4  A    between atoms: C_3  and  C_23 
REMARK    5  A    between atoms: N_10  and  C_12 
REMARK    6  A    between atoms: C_11  and  C_18 
REMARK    7  A    between atoms: C_11  and  C_12 
REMARK    8  A    between atoms: C_12  and  C_28 
REMARK    9  A    between atoms: C_14  and  O_20 
REMARK   10  A    between atoms: C_16  and  N_25 
REMARK   11  A    between atoms: C_16  and  C_18 
ROOT
HETATM    1  C           1     -20.993  -5.188  -6.357  0.00  0.00     0.249 C 
HETATM    2  O           1     -19.921  -4.784  -5.978  0.00  0.00    -0.271 OA
HETATM    3  N           1     -21.515  -6.342  -5.836  0.00  0.00    -0.345 N 
HETATM    4  H           1     -22.414  -6.680  -6.153  0.00  0.00     0.163 HD
ENDROOT
BRANCH   1   5
HETATM    5  C           1     -21.761  -4.420  -7.406  0.00  0.00     0.278 C 
BRANCH   5   6
HETATM    6  C           1     -21.233  -4.783  -8.789  0.00  0.00     0.081 C 
BRANCH   6   7
HETATM    7  C           1     -22.102  -4.155  -9.834  0.00  0.00    -0.056 A 
HETATM    8  C           1     -21.523  -3.481 -10.910  0.00  0.00     0.010 A 
HETATM    9  C           1     -22.334  -2.897 -11.884  0.00  0.00     0.037 A 
HETATM   10  C           1     -23.722  -2.986 -11.781  0.00  0.00     0.065 A 
HETATM   11  C           1     -24.300  -3.659 -10.705  0.00  0.00     0.037 A 
HETATM   12  C           1     -23.490  -4.244  -9.731  0.00  0.00     0.010 A 
BRANCH  10  13
HETATM   13  O           1     -24.509  -2.418 -12.727  0.00  0.00    -0.361 OA
HETATM   14  H           1     -25.377  -2.241 -12.328  0.00  0.00     0.217 HD
ENDBRANCH  10  13
ENDBRANCH   6   7
ENDBRANCH   5   6
BRANCH   5  15
HETATM   15  N           1     -21.586  -2.948  -7.175  0.00  0.00    -0.066 N 
HETATM   16  H           1     -20.720  -2.620  -7.659  0.00  0.00     0.275 HD
HETATM   17  H           1     -22.412  -2.435  -7.558  0.00  0.00     0.275 HD
HETATM   18  H           1     -21.504  -2.764  -6.150  0.00  0.00     0.275 HD
ENDBRANCH   5  15
ENDBRANCH   1   5
BRANCH   3  19
HETATM   19  C           1     -20.777  -7.079  -4.829  0.00  0.00     0.185 C 
BRANCH  19  20
HETATM   20  C           1     -21.685  -7.362  -3.639  0.00  0.00     0.038 C 
BRANCH  20  21
HETATM   21  C           1     -21.634  -6.187  -2.671  0.00  0.00     0.030 C 
BRANCH  21  22
HETATM   22  C           1     -22.270  -6.591  -1.348  0.00  0.00     0.230 C 
BRANCH  22  23
HETATM   23  N           1     -21.787  -7.957  -0.956  0.00  0.00    -0.079 N 
HETATM   24  H           1     -22.422  -8.681  -1.363  0.00  0.00     0.274 HD
HETATM   25  H           1     -21.786  -8.042   0.085  0.00  0.00     0.274 HD
HETATM   26  H           1     -20.817  -8.100  -1.318  0.00  0.00     0.274 HD
ENDBRANCH  22  23
ENDBRANCH  21  22
ENDBRANCH  20  21
ENDBRANCH  19  20
BRANCH  19  27
HETATM   27  C           1     -20.296  -8.384  -5.415  0.00  0.00     0.196 C 
HETATM   28  O           1     -21.106  -9.312  -5.623  0.00  0.00    -0.646 OA
HETATM   29  O           1     -19.086  -8.535  -5.695  0.00  0.00    -0.646 OA
ENDBRANCH  19  27
ENDBRANCH   3  19
TORSDOF 11
ENDMDL
MODEL 5
REMARK VINA RESULT:      -6.7      2.818      6.807
REMARK  11 active torsions:
REMARK  status: ('A' for Active; 'I' for Inactive)
REMARK       I    between atoms: C_1  and  N_10 
REMARK    1  A    between atoms: C_1  and  C_2 
REMARK    2  A    between atoms: C_2  and  C_3 
REMARK    3  A    between atoms: C_2  and  N_15 
REMARK    4  A    between atoms: C_3  and  C_23 
REMARK    5  A    between atoms: N_10  and  C_12 
REMARK    6  A    between atoms: C_11  and  C_18 
REMARK    7  A    between atoms: C_11  and  C_12 
REMARK    8  A    between atoms: C_12  and  C_28 
REMARK    9  A    between atoms: C_14  and  O_20 
REMARK   10  A    between atoms: C_16  and  N_25 
REMARK   11  A    between atoms: C_16  and  C_18 
ROOT
HETATM    1  C           1     -36.744  -0.516 -12.630  0.00  0.00     0.249 C 
HETATM    2  O           1     -37.948  -0.593 -12.604  0.00  0.00    -0.271 OA
HETATM    3  N           1     -36.088  -0.433 -13.830  0.00  0.00    -0.345 N 
HETATM    4  H           1     -35.079  -0.368 -13.852  0.00  0.00     0.163 HD
ENDROOT
BRANCH   1   5
HETATM    5  C           1     -35.959  -0.510 -11.341  0.00  0.00     0.278 C 
BRANCH   5   6
HETATM    6  C           1     -36.245  -1.791 -10.567  0.00  0.00     0.081 C 
BRANCH   6   7
HETATM    7  C           1     -35.190  -2.807 -10.878  0.00  0.00    -0.056 A 
HETATM    8  C           1     -33.884  -2.397 -11.149  0.00  0.00     0.010 A 
HETATM    9  C           1     -32.902  -3.344 -11.439  0.00  0.00     0.037 A 
HETATM   10  C           1     -33.225  -4.701 -11.458  0.00  0.00     0.065 A 
HETATM   11  C           1     -34.531  -5.110 -11.189  0.00  0.00     0.037 A 
HETATM   12  C           1     -35.514  -4.163 -10.899  0.00  0.00     0.010 A 
BRANCH  10  13
HETATM   13  O           1     -32.271  -5.620 -11.741  0.00  0.00    -0.361 OA
HETATM   14  H           1     -32.554  -6.471 -11.366  0.00  0.00     0.217 HD
ENDBRANCH  10  13
ENDBRANCH   6   7
ENDBRANCH   5   6
BRANCH   5  15
HETATM   15  N           1     -36.367   0.673 -10.514  0.00  0.00    -0.066 N 
HETATM   16  H           1     -37.378   0.881 -10.676  0.00  0.00     0.275 HD
HETATM   17  H           1     -36.214   0.460  -9.502  0.00  0.00     0.275 HD
HETATM   18  H           1     -35.793   1.503 -10.786  0.00  0.00     0.275 HD
ENDBRANCH   5  15
ENDBRANCH   1   5
BRANCH   3  19
HETATM   19  C           1     -36.842  -0.439 -15.069  0.00  0.00     0.185 C 
BRANCH  19  20
HETATM   20  C           1     -37.125   0.994 -15.498  0.00  0.00     0.038 C 
BRANCH  20  21
HETATM   21  C           1     -35.831   1.797 -15.477  0.00  0.00     0.030 C 
BRANCH  21  22
HETATM   22  C           1     -35.750   2.664 -16.726  0.00  0.00     0.230 C 
BRANCH  22  23
HETATM   23  N           1     -37.010   3.468 -16.860  0.00  0.00    -0.079 N 
HETATM   24  H           1     -37.011   4.233 -16.147  0.00  0.00     0.274 HD
HETATM   25  H           1     -37.838   2.850 -16.707  0.00  0.00     0.274 HD
HETATM   26  H           1     -37.057   3.884 -17.817  0.00  0.00     0.274 HD
ENDBRANCH  22  23
ENDBRANCH  21  22
ENDBRANCH  20  21
ENDBRANCH  19  20
BRANCH  19  27
HETATM   27  C           1     -36.039  -1.135 -16.140  0.00  0.00     0.196 C 
HETATM   28  O           1     -36.355  -1.004 -17.342  0.00  0.00    -0.646 OA
HETATM   29  O           1     -35.057  -1.842 -15.825  0.00  0.00    -0.646 OA
ENDBRANCH  19  27
ENDBRANCH   3  19
TORSDOF 11
ENDMDL
MODEL 6
REMARK VINA RESULT:      -6.6     13.562     16.883
REMARK  11 active torsions:
REMARK  status: ('A' for Active; 'I' for Inactive)
REMARK       I    between atoms: C_1  and  N_10 
REMARK    1  A    between atoms: C_1  and  C_2 
REMARK    2  A    between atoms: C_2  and  C_3 
REMARK    3  A    between atoms: C_2  and  N_15 
REMARK    4  A    between atoms: C_3  and  C_23 
REMARK    5  A    between atoms: N_10  and  C_12 
REMARK    6  A    between atoms: C_11  and  C_18 
REMARK    7  A    between atoms: C_11  and  C_12 
REMARK    8  A    between atoms: C_12  and  C_28 
REMARK    9  A    between atoms: C_14  and  O_20 
REMARK   10  A    between atoms: C_16  and  N_25 
REMARK   11  A    between atoms: C_16  and  C_18 
ROOT
HETATM    1  C           1     -21.465  -5.876  -6.698  0.00  0.00     0.249 C 
HETATM    2  O           1     -20.858  -6.786  -7.208  0.00  0.00    -0.271 OA
HETATM    3  N           1     -21.939  -4.850  -7.472  0.00  0.00    -0.345 N 
HETATM    4  H           1     -22.448  -4.088  -7.044  0.00  0.00     0.163 HD
ENDROOT
BRANCH   1   5
HETATM    5  C           1     -21.702  -5.868  -5.207  0.00  0.00     0.278 C 
BRANCH   5   6
HETATM    6  C           1     -20.785  -6.887  -4.542  0.00  0.00     0.081 C 
BRANCH   6   7
HETATM    7  C           1     -21.314  -7.220  -3.182  0.00  0.00    -0.056 A 
HETATM    8  C           1     -21.766  -6.203  -2.340  0.00  0.00     0.010 A 
HETATM    9  C           1     -22.259  -6.515  -1.073  0.00  0.00     0.037 A 
HETATM   10  C           1     -22.300  -7.842  -0.647  0.00  0.00     0.065 A 
HETATM   11  C           1     -21.847  -8.858  -1.488  0.00  0.00     0.037 A 
HETATM   12  C           1     -21.354  -8.548  -2.756  0.00  0.00     0.010 A 
BRANCH  10  13
HETATM   13  O           1     -22.778  -8.144   0.584  0.00  0.00    -0.361 OA
HETATM   14  H           1     -23.712  -8.393   0.491  0.00  0.00     0.217 HD
ENDBRANCH  10  13
ENDBRANCH   6   7
ENDBRANCH   5   6
BRANCH   5  15
HETATM   15  N           1     -23.132  -6.226  -4.928  0.00  0.00    -0.066 N 
HETATM   16  H           1     -23.710  -6.042  -5.778  0.00  0.00     0.275 HD
HETATM   17  H           1     -23.194  -7.238  -4.677  0.00  0.00     0.275 HD
HETATM   18  H           1     -23.486  -5.647  -4.134  0.00  0.00     0.275 HD
ENDBRANCH   5  15
ENDBRANCH   1   5
BRANCH   3  19
HETATM   19  C           1     -21.711  -4.858  -8.904  0.00  0.00     0.185 C 
BRANCH  19  20
HETATM   20  C           1     -22.720  -3.943  -9.583  0.00  0.00     0.038 C 
BRANCH  20  21
HETATM   21  C           1     -23.279  -4.633 -10.821  0.00  0.00     0.030 C 
BRANCH  21  22
HETATM   22  C           1     -23.090  -3.732 -12.034  0.00  0.00     0.230 C 
BRANCH  22  23
HETATM   23  N           1     -21.669  -3.822 -12.509  0.00  0.00    -0.079 N 
HETATM   24  H           1     -21.027  -3.848 -11.684  0.00  0.00     0.274 HD
HETATM   25  H           1     -21.444  -2.989 -13.098  0.00  0.00     0.274 HD
HETATM   26  H           1     -21.546  -4.692 -13.074  0.00  0.00     0.274 HD
ENDBRANCH  22  23
ENDBRANCH  21  22
ENDBRANCH  20  21
ENDBRANCH  19  20
BRANCH  19  27
HETATM   27  C           1     -20.313  -4.366  -9.191  0.00  0.00     0.196 C 
HETATM   28  O           1     -19.720  -3.647  -8.358  0.00  0.00    -0.646 OA
HETATM   29  O           1     -19.749  -4.680 -10.262  0.00  0.00    -0.646 OA
ENDBRANCH  19  27
ENDBRANCH   3  19
TORSDOF 11
ENDMDL
MODEL 7
REMARK VINA RESULT:      -6.5     13.584     15.837
REMARK  11 active torsions:
REMARK  status: ('A' for Active; 'I' for Inactive)
REMARK       I    between atoms: C_1  and  N_10 
REMARK    1  A    between atoms: C_1  and  C_2 
REMARK    2  A    between atoms: C_2  and  C_3 
REMARK    3  A    between atoms: C_2  and  N_15 
REMARK    4  A    between atoms: C_3  and  C_23 
REMARK    5  A    between atoms: N_10  and  C_12 
REMARK    6  A    between atoms: C_11  and  C_18 
REMARK    7  A    between atoms: C_11  and  C_12 
REMARK    8  A    between atoms: C_12  and  C_28 
REMARK    9  A    between atoms: C_14  and  O_20 
REMARK   10  A    between atoms: C_16  and  N_25 
REMARK   11  A    between atoms: C_16  and  C_18 
ROOT
HETATM    1  C           1     -21.655  -5.774  -5.596  0.00  0.00     0.249 C 
HETATM    2  O           1     -22.862  -5.796  -5.601  0.00  0.00    -0.271 OA
HETATM    3  N           1     -20.958  -6.593  -4.749  0.00  0.00    -0.345 N 
HETATM    4  H           1     -19.946  -6.575  -4.746  0.00  0.00     0.163 HD
ENDROOT
BRANCH   1   5
HETATM    5  C           1     -20.914  -4.843  -6.525  0.00  0.00     0.278 C 
BRANCH   5   6
HETATM    6  C           1     -20.645  -5.553  -7.847  0.00  0.00     0.081 C 
BRANCH   6   7
HETATM    7  C           1     -21.202  -4.737  -8.972  0.00  0.00    -0.056 A 
HETATM    8  C           1     -22.541  -4.345  -8.955  0.00  0.00     0.010 A 
HETATM    9  C           1     -23.058  -3.585 -10.004  0.00  0.00     0.037 A 
HETATM   10  C           1     -22.237  -3.217 -11.070  0.00  0.00     0.065 A 
HETATM   11  C           1     -20.899  -3.609 -11.087  0.00  0.00     0.037 A 
HETATM   12  C           1     -20.380  -4.370 -10.038  0.00  0.00     0.010 A 
BRANCH  10  13
HETATM   13  O           1     -22.740  -2.479 -12.089  0.00  0.00    -0.361 OA
HETATM   14  H           1     -23.495  -2.962 -12.464  0.00  0.00     0.217 HD
ENDBRANCH  10  13
ENDBRANCH   6   7
ENDBRANCH   5   6
BRANCH   5  15
HETATM   15  N           1     -19.610  -4.447  -5.898  0.00  0.00    -0.066 N 
HETATM   16  H           1     -19.066  -3.857  -6.568  0.00  0.00     0.275 HD
HETATM   17  H           1     -19.795  -3.902  -5.026  0.00  0.00     0.275 HD
HETATM   18  H           1     -19.061  -5.304  -5.664  0.00  0.00     0.275 HD
ENDBRANCH   5  15
ENDBRANCH   1   5
BRANCH   3  19
HETATM   19  C           1     -21.670  -7.487  -3.856  0.00  0.00     0.185 C 
BRANCH  19  20
HETATM   20  C           1     -21.002  -8.855  -3.868  0.00  0.00     0.038 C 
BRANCH  20  21
HETATM   21  C           1     -19.709  -8.783  -4.670  0.00  0.00     0.030 C 
BRANCH  21  22
HETATM   22  C           1     -19.157 -10.188  -4.871  0.00  0.00     0.230 C 
BRANCH  22  23
HETATM   23  N           1     -19.666 -10.745  -6.168  0.00  0.00    -0.079 N 
HETATM   24  H           1     -19.404 -11.754  -6.240  0.00  0.00     0.274 HD
HETATM   25  H           1     -19.243 -10.218  -6.965  0.00  0.00     0.274 HD
HETATM   26  H           1     -20.706 -10.652  -6.202  0.00  0.00     0.274 HD
ENDBRANCH  22  23
ENDBRANCH  21  22
ENDBRANCH  20  21
ENDBRANCH  19  20
BRANCH  19  27
HETATM   27  C           1     -21.640  -6.925  -2.456  0.00  0.00     0.196 C 
HETATM   28  O           1     -22.313  -5.910  -2.176  0.00  0.00    -0.646 OA
HETATM   29  O           1     -20.943  -7.476  -1.576  0.00  0.00    -0.646 OA
ENDBRANCH  19  27
ENDBRANCH   3  19
TORSDOF 11
ENDMDL
MODEL 8
REMARK VINA RESULT:      -6.3     13.006     16.325
REMARK  11 active torsions:
REMARK  status: ('A' for Active; 'I' for Inactive)
REMARK       I    between atoms: C_1  and  N_10 
REMARK    1  A    between atoms: C_1  and  C_2 
REMARK    2  A    between atoms: C_2  and  C_3 
REMARK    3  A    between atoms: C_2  and  N_15 
REMARK    4  A    between atoms: C_3  and  C_23 
REMARK    5  A    between atoms: N_10  and  C_12 
REMARK    6  A    between atoms: C_11  and  C_18 
REMARK    7  A    between atoms: C_11  and  C_12 
REMARK    8  A    between atoms: C_12  and  C_28 
REMARK    9  A    between atoms: C_14  and  O_20 
REMARK   10  A    between atoms: C_16  and  N_25 
REMARK   11  A    between atoms: C_16  and  C_18 
ROOT
HETATM    1  C           1     -21.845  -4.189  -7.472  0.00  0.00     0.249 C 
HETATM    2  O           1     -21.622  -3.029  -7.221  0.00  0.00    -0.271 OA
HETATM    3  N           1     -22.682  -4.518  -8.505  0.00  0.00    -0.345 N 
HETATM    4  H           1     -22.868  -5.490  -8.716  0.00  0.00     0.163 HD
ENDROOT
BRANCH   1   5
HETATM    5  C           1     -21.200  -5.277  -6.648  0.00  0.00     0.278 C 
BRANCH   5   6
HETATM    6  C           1     -22.230  -5.869  -5.694  0.00  0.00     0.081 C 
BRANCH   6   7
HETATM    7  C           1     -21.546  -6.788  -4.730  0.00  0.00    -0.056 A 
HETATM    8  C           1     -20.824  -7.884  -5.203  0.00  0.00     0.010 A 
HETATM    9  C           1     -20.188  -8.740  -4.303  0.00  0.00     0.037 A 
HETATM   10  C           1     -20.272  -8.498  -2.932  0.00  0.00     0.065 A 
HETATM   11  C           1     -20.995  -7.403  -2.460  0.00  0.00     0.037 A 
HETATM   12  C           1     -21.632  -6.547  -3.359  0.00  0.00     0.010 A 
BRANCH  10  13
HETATM   13  O           1     -19.655  -9.330  -2.059  0.00  0.00    -0.361 OA
HETATM   14  H           1     -20.298 -10.001  -1.777  0.00  0.00     0.217 HD
ENDBRANCH  10  13
ENDBRANCH   6   7
ENDBRANCH   5   6
BRANCH   5  15
HETATM   15  N           1     -20.064  -4.698  -5.858  0.00  0.00    -0.066 N 
HETATM   16  H           1     -19.316  -5.418  -5.745  0.00  0.00     0.275 HD
HETATM   17  H           1     -19.675  -3.869  -6.364  0.00  0.00     0.275 HD
HETATM   18  H           1     -20.409  -4.402  -4.917  0.00  0.00     0.275 HD
ENDBRANCH   5  15
ENDBRANCH   1   5
BRANCH   3  19
HETATM   19  C           1     -23.302  -3.473  -9.297  0.00  0.00     0.185 C 
BRANCH  19  20
HETATM   20  C           1     -22.505  -3.267 -10.578  0.00  0.00     0.038 C 
BRANCH  20  21
HETATM   21  C           1     -21.796  -4.562 -10.950  0.00  0.00     0.030 C 
BRANCH  21  22
HETATM   22  C           1     -20.323  -4.277 -11.214  0.00  0.00     0.230 C 
BRANCH  22  23
HETATM   23  N           1     -20.138  -2.815 -11.494  0.00  0.00    -0.079 N 
HETATM   24  H           1     -21.073  -2.352 -11.559  0.00  0.00     0.274 HD
HETATM   25  H           1     -19.628  -2.694 -12.398  0.00  0.00     0.274 HD
HETATM   26  H           1     -19.586  -2.379 -10.722  0.00  0.00     0.274 HD
ENDBRANCH  22  23
ENDBRANCH  21  22
ENDBRANCH  20  21
ENDBRANCH  19  20
BRANCH  19  27
HETATM   27  C           1     -24.714  -3.877  -9.642  0.00  0.00     0.196 C 
HETATM   28  O           1     -25.012  -5.087  -9.740  0.00  0.00    -0.646 OA
HETATM   29  O           1     -25.586  -3.001  -9.828  0.00  0.00    -0.646 OA
ENDBRANCH  19  27
ENDBRANCH   3  19
TORSDOF 11
ENDMDL
MODEL 9
REMARK VINA RESULT:      -6.2     14.227     16.618
REMARK  11 active torsions:
REMARK  status: ('A' for Active; 'I' for Inactive)
REMARK       I    between atoms: C_1  and  N_10 
REMARK    1  A    between atoms: C_1  and  C_2 
REMARK    2  A    between atoms: C_2  and  C_3 
REMARK    3  A    between atoms: C_2  and  N_15 
REMARK    4  A    between atoms: C_3  and  C_23 
REMARK    5  A    between atoms: N_10  and  C_12 
REMARK    6  A    between atoms: C_11  and  C_18 
REMARK    7  A    between atoms: C_11  and  C_12 
REMARK    8  A    between atoms: C_12  and  C_28 
REMARK    9  A    between atoms: C_14  and  O_20 
REMARK   10  A    between atoms: C_16  and  N_25 
REMARK   11  A    between atoms: C_16  and  C_18 
ROOT
HETATM    1  C           1     -20.235  -7.156  -5.716  0.00  0.00     0.249 C 
HETATM    2  O           1     -19.405  -7.230  -6.590  0.00  0.00    -0.271 OA
HETATM    3  N           1     -20.225  -8.056  -4.684  0.00  0.00    -0.345 N 
HETATM    4  H           1     -20.920  -7.993  -3.952  0.00  0.00     0.163 HD
ENDROOT
BRANCH   1   5
HETATM    5  C           1     -21.283  -6.070  -5.760  0.00  0.00     0.278 C 
BRANCH   5   6
HETATM    6  C           1     -20.635  -4.755  -6.174  0.00  0.00     0.081 C 
BRANCH   6   7
HETATM    7  C           1     -21.059  -4.407  -7.567  0.00  0.00    -0.056 A 
HETATM    8  C           1     -22.387  -4.068  -7.828  0.00  0.00     0.010 A 
HETATM    9  C           1     -22.782  -3.744  -9.126  0.00  0.00     0.037 A 
HETATM   10  C           1     -21.848  -3.758 -10.163  0.00  0.00     0.065 A 
HETATM   11  C           1     -20.522  -4.098  -9.902  0.00  0.00     0.037 A 
HETATM   12  C           1     -20.126  -4.423  -8.604  0.00  0.00     0.010 A 
BRANCH  10  13
HETATM   13  O           1     -22.232  -3.444 -11.424  0.00  0.00    -0.361 OA
HETATM   14  H           1     -21.436  -3.214 -11.931  0.00  0.00     0.217 HD
ENDBRANCH  10  13
ENDBRANCH   6   7
ENDBRANCH   5   6
BRANCH   5  15
HETATM   15  N           1     -21.900  -5.917  -4.402  0.00  0.00    -0.066 N 
HETATM   16  H           1     -22.933  -5.795  -4.499  0.00  0.00     0.275 HD
HETATM   17  H           1     -21.702  -6.770  -3.831  0.00  0.00     0.275 HD
HETATM   18  H           1     -21.494  -5.079  -3.928  0.00  0.00     0.275 HD
ENDBRANCH   5  15
ENDBRANCH   1   5
BRANCH   3  19
HETATM   19  C           1     -19.218  -9.099  -4.642  0.00  0.00     0.185 C 
BRANCH  19  20
HETATM   20  C           1     -18.843  -9.384  -3.194  0.00  0.00     0.038 C 
BRANCH  20  21
HETATM   21  C           1     -19.812  -8.663  -2.266  0.00  0.00     0.030 C 
BRANCH  21  22
HETATM   22  C           1     -20.580  -9.685  -1.439  0.00  0.00     0.230 C 
BRANCH  22  23
HETATM   23  N           1     -21.897  -9.973  -2.097  0.00  0.00    -0.079 N 
HETATM   24  H           1     -22.169 -10.965  -1.910  0.00  0.00     0.274 HD
HETATM   25  H           1     -21.814  -9.824  -3.127  0.00  0.00     0.274 HD
HETATM   26  H           1     -22.627  -9.333  -1.710  0.00  0.00     0.274 HD
ENDBRANCH  22  23
ENDBRANCH  21  22
ENDBRANCH  20  21
ENDBRANCH  19  20
BRANCH  19  27
HETATM   27  C           1     -19.769 -10.352  -5.276  0.00  0.00     0.196 C 
HETATM   28  O           1     -20.739 -10.943  -4.754  0.00  0.00    -0.646 OA
HETATM   29  O           1     -19.256 -10.799  -6.325  0.00  0.00    -0.646 OA
ENDBRANCH  19  27
ENDBRANCH   3  19
TORSDOF 11
ENDMDL
