MODEL 1
REMARK VINA RESULT:      -6.8      0.000      0.000
REMARK  7 active torsions:
REMARK  status: ('A' for Active; 'I' for Inactive)
REMARK    1  A    between atoms: C_3  and  C_15 
REMARK       I    between atoms: C_6  and  N_22 
REMARK    2  A    between atoms: C_6  and  C_15 
REMARK       I    between atoms: C_11  and  N_12 
REMARK    3  A    between atoms: C_11  and  C_13 
REMARK    4  A    between atoms: C_13  and  C_14 
REMARK    5  A    between atoms: C_14  and  C_19 
REMARK    6  A    between atoms: C_14  and  N_22 
REMARK    7  A    between atoms: C_15  and  N_16 
ROOT
HETATM    1  C           1     -34.705  -2.321 -12.578  0.00  0.00     0.249 C 
HETATM    2  O           1     -34.579  -1.712 -11.543  0.00  0.00    -0.271 OA
HETATM    3  H           1     -35.326  -2.208 -14.549  0.00  0.00     0.163 HD
HETATM    4  N           1     -35.220  -1.697 -13.682  0.00  0.00    -0.344 N 
ENDROOT
BRANCH   4   5
HETATM    5  C           1     -35.613  -0.303 -13.608  0.00  0.00     0.194 C 
BRANCH   5   6
HETATM    6  C           1     -35.406   0.354 -14.967  0.00  0.00     0.138 C 
BRANCH   6   7
HETATM    7  C           1     -35.597  -0.674 -16.057  0.00  0.00     0.217 C 
HETATM    8  O           1     -34.688  -1.408 -16.361  0.00  0.00    -0.274 OA
HETATM    9  N           1     -36.803  -0.772 -16.700  0.00  0.00    -0.370 N 
HETATM   10  H           1     -37.564  -0.157 -16.444  0.00  0.00     0.159 HD
HETATM   11  H           1     -36.931  -1.461 -17.430  0.00  0.00     0.159 HD
ENDBRANCH   6   7
ENDBRANCH   5   6
BRANCH   5  12
HETATM   12  C           1     -37.069  -0.212 -13.221  0.00  0.00     0.197 C 
HETATM   13  O           1     -37.947  -0.689 -13.972  0.00  0.00    -0.646 OA
HETATM   14  O           1     -37.397   0.342 -12.150  0.00  0.00    -0.646 OA
ENDBRANCH   5  12
ENDBRANCH   4   5
BRANCH   1  15
HETATM   15  C           1     -34.295  -3.772 -12.654  0.00  0.00     0.278 C 
BRANCH  15  16
HETATM   16  C           1     -33.294  -4.076 -11.548  0.00  0.00     0.017 C 
HETATM   17  C           1     -33.904  -5.067 -10.568  0.00  0.00     0.012 C 
HETATM   18  C           1     -32.033  -4.676 -12.157  0.00  0.00     0.012 C 
ENDBRANCH  15  16
BRANCH  15  19
HETATM   19  N           1     -33.664  -4.043 -13.988  0.00  0.00    -0.066 N 
HETATM   20  H           1     -33.810  -5.045 -14.245  0.00  0.00     0.275 HD
HETATM   21  H           1     -32.639  -3.842 -13.934  0.00  0.00     0.275 HD
HETATM   22  H           1     -34.101  -3.429 -14.712  0.00  0.00     0.275 HD
ENDBRANCH  15  19
ENDBRANCH   1  15
TORSDOF 7
ENDMDL
MODEL 2
REMARK VINA RESULT:      -6.2      2.127      3.352
REMARK  7 active torsions:
REMARK  status: ('A' for Active; 'I' for Inactive)
REMARK    1  A    between atoms: C_3  and  C_15 
REMARK       I    between atoms: C_6  and  N_22 
REMARK    2  A    between atoms: C_6  and  C_15 
REMARK       I    between atoms: C_11  and  N_12 
REMARK    3  A    between atoms: C_11  and  C_13 
REMARK    4  A    between atoms: C_13  and  C_14 
REMARK    5  A    between atoms: C_14  and  C_19 
REMARK    6  A    between atoms: C_14  and  N_22 
REMARK    7  A    between atoms: C_15  and  N_16 
ROOT
HETATM    1  C           1     -34.363  -2.405 -12.432  0.00  0.00     0.249 C 
HETATM    2  O           1     -34.497  -3.075 -13.428  0.00  0.00    -0.271 OA
HETATM    3  H           1     -34.930  -0.662 -11.469  0.00  0.00     0.163 HD
HETATM    4  N           1     -35.043  -1.224 -12.303  0.00  0.00    -0.344 N 
ENDROOT
BRANCH   4   5
HETATM    5  C           1     -35.928  -0.779 -13.363  0.00  0.00     0.194 C 
BRANCH   5   6
HETATM    6  C           1     -37.110  -0.034 -12.756  0.00  0.00     0.138 C 
BRANCH   6   7
HETATM    7  C           1     -37.163  -0.300 -11.271  0.00  0.00     0.217 C 
HETATM    8  O           1     -37.657  -1.321 -10.858  0.00  0.00    -0.274 OA
HETATM    9  N           1     -36.650   0.618 -10.393  0.00  0.00    -0.370 N 
HETATM   10  H           1     -36.236   1.474 -10.740  0.00  0.00     0.159 HD
HETATM   11  H           1     -36.686   0.440  -9.398  0.00  0.00     0.159 HD
ENDBRANCH   6   7
ENDBRANCH   5   6
BRANCH   5  12
HETATM   12  C           1     -35.175   0.142 -14.292  0.00  0.00     0.197 C 
HETATM   13  O           1     -34.874  -0.240 -15.443  0.00  0.00    -0.646 OA
HETATM   14  O           1     -34.851   1.287 -13.909  0.00  0.00    -0.646 OA
ENDBRANCH   5  12
ENDBRANCH   4   5
BRANCH   1  15
HETATM   15  C           1     -33.443  -2.869 -11.329  0.00  0.00     0.278 C 
BRANCH  15  16
HETATM   16  C           1     -34.034  -4.101 -10.659  0.00  0.00     0.017 C 
HETATM   17  C           1     -35.544  -4.112 -10.856  0.00  0.00     0.012 C 
HETATM   18  C           1     -33.432  -5.354 -11.280  0.00  0.00     0.012 C 
ENDBRANCH  15  16
BRANCH  15  19
HETATM   19  N           1     -33.288  -1.774 -10.315  0.00  0.00    -0.066 N 
HETATM   20  H           1     -32.284  -1.488 -10.262  0.00  0.00     0.275 HD
HETATM   21  H           1     -33.603  -2.120  -9.380  0.00  0.00     0.275 HD
HETATM   22  H           1     -33.870  -0.954 -10.596  0.00  0.00     0.275 HD
ENDBRANCH  15  19
ENDBRANCH   1  15
TORSDOF 7
ENDMDL
MODEL 3
REMARK VINA RESULT:      -6.1     11.915     14.140
REMARK  7 active torsions:
REMARK  status: ('A' for Active; 'I' for Inactive)
REMARK    1  A    between atoms: C_3  and  C_15 
REMARK       I    between atoms: C_6  and  N_22 
REMARK    2  A    between atoms: C_6  and  C_15 
REMARK       I    between atoms: C_11  and  N_12 
REMARK    3  A    between atoms: C_11  and  C_13 
REMARK    4  A    between atoms: C_13  and  C_14 
REMARK    5  A    between atoms: C_14  and  C_19 
REMARK    6  A    between atoms: C_14  and  N_22 
REMARK    7  A    between atoms: C_15  and  N_16 
ROOT
HETATM    1  C           1     -22.164  -4.122  -7.656  0.00  0.00     0.249 C 
HETATM    2  O           1     -21.476  -3.130  -7.691  0.00  0.00    -0.271 OA
HETATM    3  H           1     -23.532  -5.276  -8.696  0.00  0.00     0.163 HD
HETATM    4  N           1     -22.955  -4.446  -8.726  0.00  0.00    -0.344 N 
ENDROOT
BRANCH   4   5
HETATM    5  C           1     -22.965  -3.597  -9.901  0.00  0.00     0.194 C 
BRANCH   5   6
HETATM    6  C           1     -22.296  -4.328 -11.059  0.00  0.00     0.138 C 
BRANCH   6   7
HETATM    7  C           1     -20.808  -4.079 -11.018  0.00  0.00     0.217 C 
HETATM    8  O           1     -20.074  -4.885 -10.498  0.00  0.00    -0.274 OA
HETATM    9  N           1     -20.290  -2.938 -11.572  0.00  0.00    -0.370 N 
HETATM   10  H           1     -20.904  -2.263 -12.009  0.00  0.00     0.159 HD
HETATM   11  H           1     -19.292  -2.772 -11.545  0.00  0.00     0.159 HD
ENDBRANCH   6   7
ENDBRANCH   5   6
BRANCH   5  12
HETATM   12  C           1     -24.390  -3.266 -10.270  0.00  0.00     0.197 C 
HETATM   13  O           1     -24.748  -3.293 -11.468  0.00  0.00    -0.646 OA
HETATM   14  O           1     -25.212  -2.963  -9.379  0.00  0.00    -0.646 OA
ENDBRANCH   5  12
ENDBRANCH   4   5
BRANCH   1  15
HETATM   15  C           1     -22.154  -5.005  -6.432  0.00  0.00     0.278 C 
BRANCH  15  16
HETATM   16  C           1     -21.352  -6.267  -6.723  0.00  0.00     0.017 C 
HETATM   17  C           1     -19.890  -5.903  -6.936  0.00  0.00     0.012 C 
HETATM   18  C           1     -21.470  -7.225  -5.545  0.00  0.00     0.012 C 
ENDBRANCH  15  16
BRANCH  15  19
HETATM   19  N           1     -23.561  -5.379  -6.074  0.00  0.00    -0.066 N 
HETATM   20  H           1     -24.226  -4.718  -6.535  0.00  0.00     0.275 HD
HETATM   21  H           1     -23.681  -5.329  -5.037  0.00  0.00     0.275 HD
HETATM   22  H           1     -23.757  -6.353  -6.400  0.00  0.00     0.275 HD
ENDBRANCH  15  19
ENDBRANCH   1  15
TORSDOF 7
ENDMDL
MODEL 4
REMARK VINA RESULT:      -6.0     12.033     14.371
REMARK  7 active torsions:
REMARK  status: ('A' for Active; 'I' for Inactive)
REMARK    1  A    between atoms: C_3  and  C_15 
REMARK       I    between atoms: C_6  and  N_22 
REMARK    2  A    between atoms: C_6  and  C_15 
REMARK       I    between atoms: C_11  and  N_12 
REMARK    3  A    between atoms: C_11  and  C_13 
REMARK    4  A    between atoms: C_13  and  C_14 
REMARK    5  A    between atoms: C_14  and  C_19 
REMARK    6  A    between atoms: C_14  and  N_22 
REMARK    7  A    between atoms: C_15  and  N_16 
ROOT
HETATM    1  C           1     -21.865  -4.687  -8.042  0.00  0.00     0.249 C 
HETATM    2  O           1     -21.714  -3.543  -7.685  0.00  0.00    -0.271 OA
HETATM    3  H           1     -22.569  -5.914  -9.553  0.00  0.00     0.163 HD
HETATM    4  N           1     -22.442  -4.956  -9.254  0.00  0.00    -0.344 N 
ENDROOT
BRANCH   4   5
HETATM    5  C           1     -22.871  -3.865 -10.109  0.00  0.00     0.194 C 
BRANCH   5   6
HETATM    6  C           1     -22.179  -3.982 -11.462  0.00  0.00     0.138 C 
BRANCH   6   7
HETATM    7  C           1     -20.694  -3.777 -11.287  0.00  0.00     0.217 C 
HETATM    8  O           1     -19.977  -4.722 -11.055  0.00  0.00    -0.274 OA
HETATM    9  N           1     -20.159  -2.521 -11.390  0.00  0.00    -0.370 N 
HETATM   10  H           1     -20.760  -1.730 -11.585  0.00  0.00     0.159 HD
HETATM   11  H           1     -19.164  -2.384 -11.273  0.00  0.00     0.159 HD
ENDBRANCH   6   7
ENDBRANCH   5   6
BRANCH   5  12
HETATM   12  C           1     -24.366  -3.934 -10.300  0.00  0.00     0.197 C 
HETATM   13  O           1     -24.938  -3.122 -11.058  0.00  0.00    -0.646 OA
HETATM   14  O           1     -25.033  -4.804  -9.699  0.00  0.00    -0.646 OA
ENDBRANCH   5  12
ENDBRANCH   4   5
BRANCH   1  15
HETATM   15  C           1     -21.419  -5.821  -7.152  0.00  0.00     0.278 C 
BRANCH  15  16
HETATM   16  C           1     -21.562  -5.408  -5.693  0.00  0.00     0.017 C 
HETATM   17  C           1     -22.088  -6.583  -4.881  0.00  0.00     0.012 C 
HETATM   18  C           1     -20.203  -4.985  -5.150  0.00  0.00     0.012 C 
ENDBRANCH  15  16
BRANCH  15  19
HETATM   19  N           1     -19.983  -6.147  -7.440  0.00  0.00    -0.066 N 
HETATM   20  H           1     -19.428  -5.263  -7.483  0.00  0.00     0.275 HD
HETATM   21  H           1     -19.918  -6.647  -8.355  0.00  0.00     0.275 HD
HETATM   22  H           1     -19.606  -6.759  -6.682  0.00  0.00     0.275 HD
ENDBRANCH  15  19
ENDBRANCH   1  15
TORSDOF 7
ENDMDL
MODEL 5
REMARK VINA RESULT:      -5.9      1.777      5.029
REMARK  7 active torsions:
REMARK  status: ('A' for Active; 'I' for Inactive)
REMARK    1  A    between atoms: C_3  and  C_15 
REMARK       I    between atoms: C_6  and  N_22 
REMARK    2  A    between atoms: C_6  and  C_15 
REMARK       I    between atoms: C_11  and  N_12 
REMARK    3  A    between atoms: C_11  and  C_13 
REMARK    4  A    between atoms: C_13  and  C_14 
REMARK    5  A    between atoms: C_14  and  C_19 
REMARK    6  A    between atoms: C_14  and  N_22 
REMARK    7  A    between atoms: C_15  and  N_16 
ROOT
HETATM    1  C           1     -36.018  -0.842 -13.263  0.00  0.00     0.249 C 
HETATM    2  O           1     -37.022  -1.116 -12.649  0.00  0.00    -0.271 OA
HETATM    3  H           1     -33.987  -1.200 -13.442  0.00  0.00     0.163 HD
HETATM    4  N           1     -34.828  -1.430 -12.929  0.00  0.00    -0.344 N 
ENDROOT
BRANCH   4   5
HETATM    5  C           1     -34.773  -2.385 -11.838  0.00  0.00     0.194 C 
BRANCH   5   6
HETATM    6  C           1     -33.752  -3.467 -12.163  0.00  0.00     0.138 C 
BRANCH   6   7
HETATM    7  C           1     -34.284  -4.344 -13.271  0.00  0.00     0.217 C 
HETATM    8  O           1     -34.278  -3.946 -14.412  0.00  0.00    -0.274 OA
HETATM    9  N           1     -34.773  -5.590 -12.982  0.00  0.00    -0.370 N 
HETATM   10  H           1     -34.778  -5.923 -12.026  0.00  0.00     0.159 HD
HETATM   11  H           1     -35.130  -6.177 -13.724  0.00  0.00     0.159 HD
ENDBRANCH   6   7
ENDBRANCH   5   6
BRANCH   5  12
HETATM   12  C           1     -34.368  -1.675 -10.569  0.00  0.00     0.197 C 
HETATM   13  O           1     -33.166  -1.636 -10.231  0.00  0.00    -0.646 OA
HETATM   14  O           1     -35.236  -1.127  -9.855  0.00  0.00    -0.646 OA
ENDBRANCH   5  12
ENDBRANCH   4   5
BRANCH   1  15
HETATM   15  C           1     -36.076   0.151 -14.398  0.00  0.00     0.278 C 
BRANCH  15  16
HETATM   16  C           1     -37.025  -0.361 -15.473  0.00  0.00     0.017 C 
HETATM   17  C           1     -38.001   0.743 -15.857  0.00  0.00     0.012 C 
HETATM   18  C           1     -36.224  -0.779 -16.699  0.00  0.00     0.012 C 
ENDBRANCH  15  16
BRANCH  15  19
HETATM   19  N           1     -34.705   0.321 -14.982  0.00  0.00    -0.066 N 
HETATM   20  H           1     -34.649  -0.188 -15.893  0.00  0.00     0.275 HD
HETATM   21  H           1     -33.994  -0.066 -14.320  0.00  0.00     0.275 HD
HETATM   22  H           1     -34.516   1.337 -15.139  0.00  0.00     0.275 HD
ENDBRANCH  15  19
ENDBRANCH   1  15
TORSDOF 7
ENDMDL
MODEL 6
REMARK VINA RESULT:      -5.6     11.588     14.024
REMARK  7 active torsions:
REMARK  status: ('A' for Active; 'I' for Inactive)
REMARK    1  A    between atoms: C_3  and  C_15 
REMARK       I    between atoms: C_6  and  N_22 
REMARK    2  A    between atoms: C_6  and  C_15 
REMARK       I    between atoms: C_11  and  N_12 
REMARK    3  A    between atoms: C_11  and  C_13 
REMARK    4  A    between atoms: C_13  and  C_14 
REMARK    5  A    between atoms: C_14  and  C_19 
REMARK    6  A    between atoms: C_14  and  N_22 
REMARK    7  A    between atoms: C_15  and  N_16 
ROOT
HETATM    1  C           1     -21.560  -4.618  -8.496  0.00  0.00     0.249 C 
HETATM    2  O           1     -20.504  -5.134  -8.776  0.00  0.00    -0.271 OA
HETATM    3  H           1     -23.297  -3.788  -9.256  0.00  0.00     0.163 HD
HETATM    4  N           1     -22.413  -4.221  -9.490  0.00  0.00    -0.344 N 
ENDROOT
BRANCH   4   5
HETATM    5  C           1     -22.047  -4.419 -10.880  0.00  0.00     0.194 C 
BRANCH   5   6
HETATM    6  C           1     -23.287  -4.800 -11.679  0.00  0.00     0.138 C 
BRANCH   6   7
HETATM    7  C           1     -24.420  -3.868 -11.325  0.00  0.00     0.217 C 
HETATM    8  O           1     -24.890  -3.883 -10.212  0.00  0.00    -0.274 OA
HETATM    9  N           1     -24.915  -3.004 -12.266  0.00  0.00    -0.370 N 
HETATM   10  H           1     -24.522  -2.992 -13.198  0.00  0.00     0.159 HD
HETATM   11  H           1     -25.674  -2.379 -12.028  0.00  0.00     0.159 HD
ENDBRANCH   6   7
ENDBRANCH   5   6
BRANCH   5  12
HETATM   12  C           1     -21.463  -3.143 -11.434  0.00  0.00     0.197 C 
HETATM   13  O           1     -22.193  -2.339 -12.054  0.00  0.00    -0.646 OA
HETATM   14  O           1     -20.250  -2.889 -11.272  0.00  0.00    -0.646 OA
ENDBRANCH   5  12
ENDBRANCH   4   5
BRANCH   1  15
HETATM   15  C           1     -21.939  -4.412  -7.050  0.00  0.00     0.278 C 
BRANCH  15  16
HETATM   16  C           1     -21.249  -5.461  -6.189  0.00  0.00     0.017 C 
HETATM   17  C           1     -20.191  -4.791  -5.323  0.00  0.00     0.012 C 
HETATM   18  C           1     -22.278  -6.142  -5.297  0.00  0.00     0.012 C 
ENDBRANCH  15  16
BRANCH  15  19
HETATM   19  N           1     -23.426  -4.543  -6.901  0.00  0.00    -0.066 N 
HETATM   20  H           1     -23.744  -3.986  -6.075  0.00  0.00     0.275 HD
HETATM   21  H           1     -23.674  -5.549  -6.761  0.00  0.00     0.275 HD
HETATM   22  H           1     -23.896  -4.186  -7.763  0.00  0.00     0.275 HD
ENDBRANCH  15  19
ENDBRANCH   1  15
TORSDOF 7
ENDMDL
MODEL 7
REMARK VINA RESULT:      -5.4     12.723     15.783
REMARK  7 active torsions:
REMARK  status: ('A' for Active; 'I' for Inactive)
REMARK    1  A    between atoms: C_3  and  C_15 
REMARK       I    between atoms: C_6  and  N_22 
REMARK    2  A    between atoms: C_6  and  C_15 
REMARK       I    between atoms: C_11  and  N_12 
REMARK    3  A    between atoms: C_11  and  C_13 
REMARK    4  A    between atoms: C_13  and  C_14 
REMARK    5  A    between atoms: C_14  and  C_19 
REMARK    6  A    between atoms: C_14  and  N_22 
REMARK    7  A    between atoms: C_15  and  N_16 
ROOT
HETATM    1  C           1     -22.364  -4.404  -8.379  0.00  0.00     0.249 C 
HETATM    2  O           1     -22.066  -3.352  -7.865  0.00  0.00    -0.271 OA
HETATM    3  H           1     -22.147  -6.460  -8.284  0.00  0.00     0.163 HD
HETATM    4  N           1     -21.898  -5.579  -7.853  0.00  0.00    -0.344 N 
ENDROOT
BRANCH   4   5
HETATM    5  C           1     -21.047  -5.560  -6.679  0.00  0.00     0.194 C 
BRANCH   5   6
HETATM    6  C           1     -21.416  -6.724  -5.768  0.00  0.00     0.138 C 
BRANCH   6   7
HETATM    7  C           1     -22.472  -6.279  -4.786  0.00  0.00     0.217 C 
HETATM    8  O           1     -23.586  -6.018  -5.174  0.00  0.00    -0.274 OA
HETATM    9  N           1     -22.167  -6.171  -3.455  0.00  0.00    -0.370 N 
HETATM   10  H           1     -21.234  -6.390  -3.130  0.00  0.00     0.159 HD
HETATM   11  H           1     -22.876  -5.873  -2.797  0.00  0.00     0.159 HD
ENDBRANCH   6   7
ENDBRANCH   5   6
BRANCH   5  12
HETATM   12  C           1     -19.604  -5.688  -7.102  0.00  0.00     0.197 C 
HETATM   13  O           1     -19.076  -6.818  -7.186  0.00  0.00    -0.646 OA
HETATM   14  O           1     -18.937  -4.665  -7.367  0.00  0.00    -0.646 OA
ENDBRANCH   5  12
ENDBRANCH   4   5
BRANCH   1  15
HETATM   15  C           1     -23.250  -4.424  -9.600  0.00  0.00     0.278 C 
BRANCH  15  16
HETATM   16  C           1     -22.685  -3.479 -10.653  0.00  0.00     0.017 C 
HETATM   17  C           1     -21.582  -4.184 -11.429  0.00  0.00     0.012 C 
HETATM   18  C           1     -23.795  -3.065 -11.610  0.00  0.00     0.012 C 
ENDBRANCH  15  16
BRANCH  15  19
HETATM   19  N           1     -24.632  -3.980  -9.222  0.00  0.00    -0.066 N 
HETATM   20  H           1     -24.761  -2.978  -9.486  0.00  0.00     0.275 HD
HETATM   21  H           1     -24.763  -4.091  -8.191  0.00  0.00     0.275 HD
HETATM   22  H           1     -25.336  -4.566  -9.726  0.00  0.00     0.275 HD
ENDBRANCH  15  19
ENDBRANCH   1  15
TORSDOF 7
ENDMDL
MODEL 8
REMARK VINA RESULT:      -5.4      3.210      5.323
REMARK  7 active torsions:
REMARK  status: ('A' for Active; 'I' for Inactive)
REMARK    1  A    between atoms: C_3  and  C_15 
REMARK       I    between atoms: C_6  and  N_22 
REMARK    2  A    between atoms: C_6  and  C_15 
REMARK       I    between atoms: C_11  and  N_12 
REMARK    3  A    between atoms: C_11  and  C_13 
REMARK    4  A    between atoms: C_13  and  C_14 
REMARK    5  A    between atoms: C_14  and  C_19 
REMARK    6  A    between atoms: C_14  and  N_22 
REMARK    7  A    between atoms: C_15  and  N_16 
ROOT
HETATM    1  C           1     -34.096  -4.530 -15.430  0.00  0.00     0.249 C 
HETATM    2  O           1     -35.103  -5.178 -15.272  0.00  0.00    -0.271 OA
HETATM    3  H           1     -32.685  -3.334 -14.501  0.00  0.00     0.163 HD
HETATM    4  N           1     -33.528  -3.878 -14.369  0.00  0.00    -0.344 N 
ENDROOT
BRANCH   4   5
HETATM    5  C           1     -34.135  -3.968 -13.055  0.00  0.00     0.194 C 
BRANCH   5   6
HETATM    6  C           1     -33.050  -4.206 -12.011  0.00  0.00     0.138 C 
BRANCH   6   7
HETATM    7  C           1     -33.488  -5.304 -11.072  0.00  0.00     0.217 C 
HETATM    8  O           1     -34.256  -5.058 -10.172  0.00  0.00    -0.274 OA
HETATM    9  N           1     -33.016  -6.578 -11.241  0.00  0.00    -0.370 N 
HETATM   10  H           1     -32.373  -6.784 -11.995  0.00  0.00     0.159 HD
HETATM   11  H           1     -33.309  -7.314 -10.612  0.00  0.00     0.159 HD
ENDBRANCH   6   7
ENDBRANCH   5   6
BRANCH   5  12
HETATM   12  C           1     -34.857  -2.680 -12.746  0.00  0.00     0.197 C 
HETATM   13  O           1     -34.694  -1.680 -13.479  0.00  0.00    -0.646 OA
HETATM   14  O           1     -35.617  -2.611 -11.756  0.00  0.00    -0.646 OA
ENDBRANCH   5  12
ENDBRANCH   4   5
BRANCH   1  15
HETATM   15  C           1     -33.464  -4.437 -16.797  0.00  0.00     0.278 C 
BRANCH  15  16
HETATM   16  C           1     -31.951  -4.545 -16.667  0.00  0.00     0.017 C 
HETATM   17  C           1     -31.504  -5.942 -17.074  0.00  0.00     0.012 C 
HETATM   18  C           1     -31.289  -3.516 -17.573  0.00  0.00     0.012 C 
ENDBRANCH  15  16
BRANCH  15  19
HETATM   19  N           1     -33.818  -3.120 -17.422  0.00  0.00    -0.066 N 
HETATM   20  H           1     -34.843  -2.947 -17.314  0.00  0.00     0.275 HD
HETATM   21  H           1     -33.572  -3.140 -18.438  0.00  0.00     0.275 HD
HETATM   22  H           1     -33.284  -2.355 -16.951  0.00  0.00     0.275 HD
ENDBRANCH  15  19
ENDBRANCH   1  15
TORSDOF 7
ENDMDL
MODEL 9
REMARK VINA RESULT:      -5.3     13.821     16.381
REMARK  7 active torsions:
REMARK  status: ('A' for Active; 'I' for Inactive)
REMARK    1  A    between atoms: C_3  and  C_15 
REMARK       I    between atoms: C_6  and  N_22 
REMARK    2  A    between atoms: C_6  and  C_15 
REMARK       I    between atoms: C_11  and  N_12 
REMARK    3  A    between atoms: C_11  and  C_13 
REMARK    4  A    between atoms: C_13  and  C_14 
REMARK    5  A    between atoms: C_14  and  C_19 
REMARK    6  A    between atoms: C_14  and  N_22 
REMARK    7  A    between atoms: C_15  and  N_16 
ROOT
HETATM    1  C           1     -21.593  -7.146  -5.394  0.00  0.00     0.249 C 
HETATM    2  O           1     -21.174  -7.862  -6.272  0.00  0.00    -0.271 OA
HETATM    3  H           1     -22.099  -5.204  -4.884  0.00  0.00     0.163 HD
HETATM    4  N           1     -21.748  -5.804  -5.620  0.00  0.00    -0.344 N 
ENDROOT
BRANCH   4   5
HETATM    5  C           1     -21.411  -5.245  -6.915  0.00  0.00     0.194 C 
BRANCH   5   6
HETATM    6  C           1     -22.319  -4.056  -7.204  0.00  0.00     0.138 C 
BRANCH   6   7
HETATM    7  C           1     -23.005  -4.260  -8.533  0.00  0.00     0.217 C 
HETATM    8  O           1     -22.450  -4.875  -9.412  0.00  0.00    -0.274 OA
HETATM    9  N           1     -24.257  -3.746  -8.742  0.00  0.00    -0.370 N 
HETATM   10  H           1     -24.722  -3.231  -8.006  0.00  0.00     0.159 HD
HETATM   11  H           1     -24.717  -3.883  -9.633  0.00  0.00     0.159 HD
ENDBRANCH   6   7
ENDBRANCH   5   6
BRANCH   5  12
HETATM   12  C           1     -19.972  -4.789  -6.905  0.00  0.00     0.197 C 
HETATM   13  O           1     -19.394  -4.566  -5.820  0.00  0.00    -0.646 OA
HETATM   14  O           1     -19.358  -4.634  -7.983  0.00  0.00    -0.646 OA
ENDBRANCH   5  12
ENDBRANCH   4   5
BRANCH   1  15
HETATM   15  C           1     -21.944  -7.729  -4.047  0.00  0.00     0.278 C 
BRANCH  15  16
HETATM   16  C           1     -21.160  -7.005  -2.960  0.00  0.00     0.017 C 
HETATM   17  C           1     -22.119  -6.205  -2.090  0.00  0.00     0.012 C 
HETATM   18  C           1     -20.426  -8.026  -2.101  0.00  0.00     0.012 C 
ENDBRANCH  15  16
BRANCH  15  19
HETATM   19  N           1     -21.595  -9.187  -4.028  0.00  0.00    -0.066 N 
HETATM   20  H           1     -22.173  -9.693  -4.736  0.00  0.00     0.275 HD
HETATM   21  H           1     -21.785  -9.577  -3.077  0.00  0.00     0.275 HD
HETATM   22  H           1     -20.582  -9.306  -4.255  0.00  0.00     0.275 HD
ENDBRANCH  15  19
ENDBRANCH   1  15
TORSDOF 7
ENDMDL
