MODEL 1
REMARK VINA RESULT:      -7.8      0.000      0.000
REMARK  7 active torsions:
REMARK  status: ('A' for Active; 'I' for Inactive)
REMARK       I    between atoms: C_1  and  N_17 
REMARK    1  A    between atoms: C_1  and  C_2 
REMARK       I    between atoms: N_3  and  C_15 
REMARK    2  A    between atoms: C_8  and  N_9 
REMARK    3  A    between atoms: C_8  and  C_10 
REMARK       I    between atoms: N_9  and  C_15 
REMARK    4  A    between atoms: C_10  and  C_11 
REMARK    5  A    between atoms: C_11  and  C_20 
REMARK    6  A    between atoms: N_17  and  C_20 
REMARK    7  A    between atoms: C_20  and  C_21 
ROOT
HETATM    1  C           1     -34.866  -2.457 -12.050  0.00  0.00     0.185 C 
ENDROOT
BRANCH   1   2
HETATM    2  C           1     -33.941  -3.636 -12.318  0.00  0.00     0.038 C 
BRANCH   2   3
HETATM    3  C           1     -34.712  -4.938 -12.138  0.00  0.00     0.023 C 
BRANCH   3   4
HETATM    4  C           1     -34.452  -5.494 -10.744  0.00  0.00     0.138 C 
BRANCH   4   5
HETATM    5  N           1     -33.756  -6.785 -10.853  0.00  0.00    -0.227 N 
HETATM    6  C           1     -34.177  -7.788 -10.206  0.00  0.00     0.665 C 
HETATM    7  N           1     -33.561  -8.928 -10.302  0.00  0.00    -0.235 N 
HETATM    8  N           1     -35.198  -7.679  -9.464  0.00  0.00    -0.235 N 
HETATM    9  H           1     -32.719  -9.018 -10.914  0.00  0.00     0.174 HD
HETATM   10  H           1     -33.910  -9.756  -9.767  0.00  0.00     0.174 HD
HETATM   11  H           1     -35.695  -6.757  -9.386  0.00  0.00     0.174 HD
HETATM   12  H           1     -35.547  -8.511  -8.927  0.00  0.00     0.174 HD
HETATM   13  H           1     -32.910  -6.874 -11.468  0.00  0.00     0.177 HD
ENDBRANCH   4   5
ENDBRANCH   3   4
ENDBRANCH   2   3
ENDBRANCH   1   2
BRANCH   1  14
HETATM   14  N           1     -34.770  -1.507 -13.140  0.00  0.00    -0.345 N 
HETATM   15  C           1     -35.881  -0.815 -13.544  0.00  0.00     0.251 C 
HETATM   16  O           1     -36.940  -0.997 -12.992  0.00  0.00    -0.271 OA
HETATM   17  H           1     -33.884  -1.355 -13.603  0.00  0.00     0.163 HD
BRANCH  15  18
HETATM   18  C           1     -35.782   0.173 -14.680  0.00  0.00     0.311 C 
HETATM   19  N           1     -34.835  -0.291 -15.690  0.00  0.00     0.097 N 
HETATM   20  H           1     -34.560   0.474 -16.306  0.00  0.00     0.317 HD
HETATM   21  C           1     -35.563  -1.296 -16.459  0.00  0.00     0.271 C 
HETATM   22  C           1     -36.956  -0.706 -16.600  0.00  0.00     0.033 C 
HETATM   23  C           1     -37.097   0.264 -15.434  0.00  0.00     0.047 C 
ENDBRANCH  15  18
ENDBRANCH   1  14
BRANCH   1  24
HETATM   24  C           1     -34.462  -1.785 -10.760  0.00  0.00     0.196 C 
HETATM   25  O           1     -35.328  -1.245 -10.039  0.00  0.00    -0.646 OA
HETATM   26  O           1     -33.260  -1.767 -10.415  0.00  0.00    -0.646 OA
ENDBRANCH   1  24
TORSDOF 7
ENDMDL
MODEL 2
REMARK VINA RESULT:      -7.6     12.149     14.786
REMARK  7 active torsions:
REMARK  status: ('A' for Active; 'I' for Inactive)
REMARK       I    between atoms: C_1  and  N_17 
REMARK    1  A    between atoms: C_1  and  C_2 
REMARK       I    between atoms: N_3  and  C_15 
REMARK    2  A    between atoms: C_8  and  N_9 
REMARK    3  A    between atoms: C_8  and  C_10 
REMARK       I    between atoms: N_9  and  C_15 
REMARK    4  A    between atoms: C_10  and  C_11 
REMARK    5  A    between atoms: C_11  and  C_20 
REMARK    6  A    between atoms: N_17  and  C_20 
REMARK    7  A    between atoms: C_20  and  C_21 
ROOT
HETATM    1  C           1     -22.677  -3.827  -9.880  0.00  0.00     0.185 C 
ENDROOT
BRANCH   1   2
HETATM    2  C           1     -22.284  -4.143 -11.316  0.00  0.00     0.038 C 
BRANCH   2   3
HETATM    3  C           1     -22.324  -2.866 -12.146  0.00  0.00     0.023 C 
BRANCH   3   4
HETATM    4  C           1     -23.197  -3.087 -13.375  0.00  0.00     0.138 C 
BRANCH   4   5
HETATM    5  N           1     -24.000  -1.881 -13.630  0.00  0.00    -0.227 N 
HETATM    6  C           1     -23.823  -1.216 -14.692  0.00  0.00     0.665 C 
HETATM    7  N           1     -24.532  -0.150 -14.916  0.00  0.00    -0.235 N 
HETATM    8  N           1     -22.955  -1.589 -15.535  0.00  0.00    -0.235 N 
HETATM    9  H           1     -25.248   0.157 -14.221  0.00  0.00     0.174 HD
HETATM   10  H           1     -24.386   0.399 -15.794  0.00  0.00     0.174 HD
HETATM   11  H           1     -22.382  -2.450 -15.354  0.00  0.00     0.174 HD
HETATM   12  H           1     -22.809  -1.037 -16.417  0.00  0.00     0.174 HD
HETATM   13  H           1     -24.718  -1.573 -12.930  0.00  0.00     0.177 HD
ENDBRANCH   4   5
ENDBRANCH   3   4
ENDBRANCH   2   3
ENDBRANCH   1   2
BRANCH   1  14
HETATM   14  N           1     -22.080  -4.802  -8.988  0.00  0.00    -0.345 N 
HETATM   15  C           1     -20.775  -4.663  -8.598  0.00  0.00     0.251 C 
HETATM   16  O           1     -20.121  -3.729  -8.996  0.00  0.00    -0.271 OA
HETATM   17  H           1     -22.628  -5.584  -8.655  0.00  0.00     0.163 HD
BRANCH  15  18
HETATM   18  C           1     -20.154  -5.679  -7.670  0.00  0.00     0.311 C 
HETATM   19  N           1     -19.330  -5.022  -6.659  0.00  0.00     0.097 N 
HETATM   20  H           1     -18.704  -5.692  -6.212  0.00  0.00     0.317 HD
HETATM   21  C           1     -20.279  -4.511  -5.673  0.00  0.00     0.271 C 
HETATM   22  C           1     -21.307  -5.623  -5.548  0.00  0.00     0.033 C 
HETATM   23  C           1     -21.221  -6.394  -6.859  0.00  0.00     0.047 C 
ENDBRANCH  15  18
ENDBRANCH   1  14
BRANCH   1  24
HETATM   24  C           1     -24.179  -3.879  -9.747  0.00  0.00     0.196 C 
HETATM   25  O           1     -24.820  -2.837  -9.489  0.00  0.00    -0.646 OA
HETATM   26  O           1     -24.783  -4.964  -9.896  0.00  0.00    -0.646 OA
ENDBRANCH   1  24
TORSDOF 7
ENDMDL
MODEL 3
REMARK VINA RESULT:      -6.9      1.661      2.254
REMARK  7 active torsions:
REMARK  status: ('A' for Active; 'I' for Inactive)
REMARK       I    between atoms: C_1  and  N_17 
REMARK    1  A    between atoms: C_1  and  C_2 
REMARK       I    between atoms: N_3  and  C_15 
REMARK    2  A    between atoms: C_8  and  N_9 
REMARK    3  A    between atoms: C_8  and  C_10 
REMARK       I    between atoms: N_9  and  C_15 
REMARK    4  A    between atoms: C_10  and  C_11 
REMARK    5  A    between atoms: C_11  and  C_20 
REMARK    6  A    between atoms: N_17  and  C_20 
REMARK    7  A    between atoms: C_20  and  C_21 
ROOT
HETATM    1  C           1     -35.430  -1.392 -12.112  0.00  0.00     0.185 C 
ENDROOT
BRANCH   1   2
HETATM    2  C           1     -33.988  -1.246 -11.645  0.00  0.00     0.038 C 
BRANCH   2   3
HETATM    3  C           1     -33.592  -2.469 -10.829  0.00  0.00     0.023 C 
BRANCH   3   4
HETATM    4  C           1     -33.507  -3.685 -11.744  0.00  0.00     0.138 C 
BRANCH   4   5
HETATM    5  N           1     -33.590  -4.912 -10.939  0.00  0.00    -0.227 N 
HETATM    6  C           1     -34.239  -5.909 -11.371  0.00  0.00     0.665 C 
HETATM    7  N           1     -34.313  -6.994 -10.659  0.00  0.00    -0.235 N 
HETATM    8  N           1     -34.816  -5.849 -12.496  0.00  0.00    -0.235 N 
HETATM    9  H           1     -33.837  -7.043  -9.730  0.00  0.00     0.174 HD
HETATM   10  H           1     -34.849  -7.817 -11.016  0.00  0.00     0.174 HD
HETATM   11  H           1     -34.756  -4.973 -13.072  0.00  0.00     0.174 HD
HETATM   12  H           1     -35.354  -6.677 -12.854  0.00  0.00     0.174 HD
HETATM   13  H           1     -33.112  -4.960 -10.006  0.00  0.00     0.177 HD
ENDBRANCH   4   5
ENDBRANCH   3   4
ENDBRANCH   2   3
ENDBRANCH   1   2
BRANCH   1  14
HETATM   14  N           1     -35.651  -0.556 -13.275  0.00  0.00    -0.345 N 
HETATM   15  C           1     -35.413  -1.053 -14.529  0.00  0.00     0.251 C 
HETATM   16  O           1     -35.021  -2.187 -14.665  0.00  0.00    -0.271 OA
HETATM   17  H           1     -35.979   0.394 -13.161  0.00  0.00     0.163 HD
BRANCH  15  18
HETATM   18  C           1     -35.642  -0.182 -15.740  0.00  0.00     0.311 C 
HETATM   19  N           1     -36.442  -0.884 -16.740  0.00  0.00     0.097 N 
HETATM   20  H           1     -36.370  -0.423 -17.648  0.00  0.00     0.317 HD
HETATM   21  C           1     -37.816  -0.794 -16.256  0.00  0.00     0.271 C 
HETATM   22  C           1     -37.920   0.623 -15.719  0.00  0.00     0.033 C 
HETATM   23  C           1     -36.490   1.028 -15.384  0.00  0.00     0.047 C 
ENDBRANCH  15  18
ENDBRANCH   1  14
BRANCH   1  24
HETATM   24  C           1     -36.363  -0.967 -11.004  0.00  0.00     0.196 C 
HETATM   25  O           1     -36.280   0.184 -10.524  0.00  0.00    -0.646 OA
HETATM   26  O           1     -37.218  -1.767 -10.565  0.00  0.00    -0.646 OA
ENDBRANCH   1  24
TORSDOF 7
ENDMDL
MODEL 4
REMARK VINA RESULT:      -6.8     12.571     15.122
REMARK  7 active torsions:
REMARK  status: ('A' for Active; 'I' for Inactive)
REMARK       I    between atoms: C_1  and  N_17 
REMARK    1  A    between atoms: C_1  and  C_2 
REMARK       I    between atoms: N_3  and  C_15 
REMARK    2  A    between atoms: C_8  and  N_9 
REMARK    3  A    between atoms: C_8  and  C_10 
REMARK       I    between atoms: N_9  and  C_15 
REMARK    4  A    between atoms: C_10  and  C_11 
REMARK    5  A    between atoms: C_11  and  C_20 
REMARK    6  A    between atoms: N_17  and  C_20 
REMARK    7  A    between atoms: C_20  and  C_21 
ROOT
HETATM    1  C           1     -21.620  -4.193  -9.291  0.00  0.00     0.185 C 
ENDROOT
BRANCH   1   2
HETATM    2  C           1     -20.943  -4.439 -10.633  0.00  0.00     0.038 C 
BRANCH   2   3
HETATM    3  C           1     -20.551  -3.106 -11.256  0.00  0.00     0.023 C 
BRANCH   3   4
HETATM    4  C           1     -21.774  -2.467 -11.902  0.00  0.00     0.138 C 
BRANCH   4   5
HETATM    5  N           1     -22.338  -3.388 -12.900  0.00  0.00    -0.227 N 
HETATM    6  C           1     -23.594  -3.485 -13.032  0.00  0.00     0.665 C 
HETATM    7  N           1     -24.092  -4.299 -13.914  0.00  0.00    -0.235 N 
HETATM    8  N           1     -24.362  -2.790 -12.305  0.00  0.00    -0.235 N 
HETATM    9  H           1     -23.458  -4.873 -14.514  0.00  0.00     0.174 HD
HETATM   10  H           1     -25.129  -4.379 -14.023  0.00  0.00     0.174 HD
HETATM   11  H           1     -23.960  -2.133 -11.592  0.00  0.00     0.174 HD
HETATM   12  H           1     -25.404  -2.871 -12.415  0.00  0.00     0.174 HD
HETATM   13  H           1     -21.700  -3.964 -13.502  0.00  0.00     0.177 HD
ENDBRANCH   4   5
ENDBRANCH   3   4
ENDBRANCH   2   3
ENDBRANCH   1   2
BRANCH   1  14
HETATM   14  N           1     -20.992  -5.012  -8.273  0.00  0.00    -0.345 N 
HETATM   15  C           1     -20.780  -4.502  -7.020  0.00  0.00     0.251 C 
HETATM   16  O           1     -21.116  -3.371  -6.763  0.00  0.00    -0.271 OA
HETATM   17  H           1     -20.710  -5.959  -8.488  0.00  0.00     0.163 HD
BRANCH  15  18
HETATM   18  C           1     -20.125  -5.355  -5.961  0.00  0.00     0.311 C 
HETATM   19  N           1     -20.929  -5.376  -4.742  0.00  0.00     0.097 N 
HETATM   20  H           1     -20.378  -5.711  -3.952  0.00  0.00     0.317 HD
HETATM   21  C           1     -22.008  -6.320  -5.017  0.00  0.00     0.271 C 
HETATM   22  C           1     -21.322  -7.444  -5.773  0.00  0.00     0.033 C 
HETATM   23  C           1     -20.082  -6.812  -6.389  0.00  0.00     0.047 C 
ENDBRANCH  15  18
ENDBRANCH   1  14
BRANCH   1  24
HETATM   24  C           1     -23.082  -4.551  -9.393  0.00  0.00     0.196 C 
HETATM   25  O           1     -23.879  -4.182  -8.504  0.00  0.00    -0.646 OA
HETATM   26  O           1     -23.496  -5.218 -10.366  0.00  0.00    -0.646 OA
ENDBRANCH   1  24
TORSDOF 7
ENDMDL
MODEL 5
REMARK VINA RESULT:      -6.4     12.691     15.454
REMARK  7 active torsions:
REMARK  status: ('A' for Active; 'I' for Inactive)
REMARK       I    between atoms: C_1  and  N_17 
REMARK    1  A    between atoms: C_1  and  C_2 
REMARK       I    between atoms: N_3  and  C_15 
REMARK    2  A    between atoms: C_8  and  N_9 
REMARK    3  A    between atoms: C_8  and  C_10 
REMARK       I    between atoms: N_9  and  C_15 
REMARK    4  A    between atoms: C_10  and  C_11 
REMARK    5  A    between atoms: C_11  and  C_20 
REMARK    6  A    between atoms: N_17  and  C_20 
REMARK    7  A    between atoms: C_20  and  C_21 
ROOT
HETATM    1  C           1     -21.927  -4.745  -8.731  0.00  0.00     0.185 C 
ENDROOT
BRANCH   1   2
HETATM    2  C           1     -23.165  -3.925  -9.065  0.00  0.00     0.038 C 
BRANCH   2   3
HETATM    3  C           1     -23.856  -4.523 -10.284  0.00  0.00     0.023 C 
BRANCH   3   4
HETATM    4  C           1     -24.063  -3.439 -11.334  0.00  0.00     0.138 C 
BRANCH   4   5
HETATM    5  N           1     -23.187  -3.697 -12.486  0.00  0.00    -0.227 N 
HETATM    6  C           1     -23.205  -2.916 -13.482  0.00  0.00     0.665 C 
HETATM    7  N           1     -22.430  -3.146 -14.500  0.00  0.00    -0.235 N 
HETATM    8  N           1     -23.977  -1.913 -13.487  0.00  0.00    -0.235 N 
HETATM    9  H           1     -21.792  -3.973 -14.497  0.00  0.00     0.174 HD
HETATM   10  H           1     -22.445  -2.501 -15.323  0.00  0.00     0.174 HD
HETATM   11  H           1     -24.603  -1.728 -12.664  0.00  0.00     0.174 HD
HETATM   12  H           1     -23.991  -1.266 -14.314  0.00  0.00     0.174 HD
HETATM   13  H           1     -22.547  -4.529 -12.481  0.00  0.00     0.177 HD
ENDBRANCH   4   5
ENDBRANCH   3   4
ENDBRANCH   2   3
ENDBRANCH   1   2
BRANCH   1  14
HETATM   14  N           1     -21.757  -4.803  -7.292  0.00  0.00    -0.345 N 
HETATM   15  C           1     -20.972  -5.777  -6.735  0.00  0.00     0.251 C 
HETATM   16  O           1     -20.420  -6.586  -7.442  0.00  0.00    -0.271 OA
HETATM   17  H           1     -22.219  -4.125  -6.701  0.00  0.00     0.163 HD
BRANCH  15  18
HETATM   18  C           1     -20.796  -5.838  -5.238  0.00  0.00     0.311 C 
HETATM   19  N           1     -22.091  -5.870  -4.564  0.00  0.00     0.097 N 
HETATM   20  H           1     -21.990  -5.639  -3.576  0.00  0.00     0.317 HD
HETATM   21  C           1     -22.551  -7.250  -4.695  0.00  0.00     0.271 C 
HETATM   22  C           1     -21.295  -8.074  -4.472  0.00  0.00     0.033 C 
HETATM   23  C           1     -20.141  -7.144  -4.823  0.00  0.00     0.047 C 
ENDBRANCH  15  18
ENDBRANCH   1  14
BRANCH   1  24
HETATM   24  C           1     -20.713  -4.099  -9.354  0.00  0.00     0.196 C 
HETATM   25  O           1     -19.867  -3.532  -8.631  0.00  0.00    -0.646 OA
HETATM   26  O           1     -20.556  -4.133 -10.594  0.00  0.00    -0.646 OA
ENDBRANCH   1  24
TORSDOF 7
ENDMDL
MODEL 6
REMARK VINA RESULT:      -6.1     14.298     17.548
REMARK  7 active torsions:
REMARK  status: ('A' for Active; 'I' for Inactive)
REMARK       I    between atoms: C_1  and  N_17 
REMARK    1  A    between atoms: C_1  and  C_2 
REMARK       I    between atoms: N_3  and  C_15 
REMARK    2  A    between atoms: C_8  and  N_9 
REMARK    3  A    between atoms: C_8  and  C_10 
REMARK       I    between atoms: N_9  and  C_15 
REMARK    4  A    between atoms: C_10  and  C_11 
REMARK    5  A    between atoms: C_11  and  C_20 
REMARK    6  A    between atoms: N_17  and  C_20 
REMARK    7  A    between atoms: C_20  and  C_21 
ROOT
HETATM    1  C           1     -20.576  -6.836  -5.336  0.00  0.00     0.185 C 
ENDROOT
BRANCH   1   2
HETATM    2  C           1     -20.329  -6.130  -6.662  0.00  0.00     0.038 C 
BRANCH   2   3
HETATM    3  C           1     -19.996  -4.666  -6.404  0.00  0.00     0.023 C 
BRANCH   3   4
HETATM    4  C           1     -20.573  -3.809  -7.524  0.00  0.00     0.138 C 
BRANCH   4   5
HETATM    5  N           1     -22.036  -3.744  -7.387  0.00  0.00    -0.227 N 
HETATM    6  C           1     -22.777  -4.066  -8.361  0.00  0.00     0.665 C 
HETATM    7  N           1     -24.070  -4.008  -8.240  0.00  0.00    -0.235 N 
HETATM    8  N           1     -22.260  -4.446  -9.452  0.00  0.00    -0.235 N 
HETATM    9  H           1     -24.497  -3.695  -7.339  0.00  0.00     0.174 HD
HETATM   10  H           1     -24.682  -4.275  -9.044  0.00  0.00     0.174 HD
HETATM   11  H           1     -21.215  -4.493  -9.550  0.00  0.00     0.174 HD
HETATM   12  H           1     -22.876  -4.713 -10.260  0.00  0.00     0.174 HD
HETATM   13  H           1     -22.464  -3.429  -6.482  0.00  0.00     0.177 HD
ENDBRANCH   4   5
ENDBRANCH   3   4
ENDBRANCH   2   3
ENDBRANCH   1   2
BRANCH   1  14
HETATM   14  N           1     -20.776  -8.253  -5.569  0.00  0.00    -0.345 N 
HETATM   15  C           1     -20.224  -9.170  -4.716  0.00  0.00     0.251 C 
HETATM   16  O           1     -19.572  -8.800  -3.770  0.00  0.00    -0.271 OA
HETATM   17  H           1     -21.322  -8.562  -6.362  0.00  0.00     0.163 HD
BRANCH  15  18
HETATM   18  C           1     -20.431 -10.645  -4.960  0.00  0.00     0.311 C 
HETATM   19  N           1     -19.985 -11.018  -6.300  0.00  0.00     0.097 N 
HETATM   20  H           1     -20.364 -11.926  -6.567  0.00  0.00     0.317 HD
HETATM   21  C           1     -18.531 -11.107  -6.203  0.00  0.00     0.271 C 
HETATM   22  C           1     -18.297 -11.772  -4.858  0.00  0.00     0.033 C 
HETATM   23  C           1     -19.548 -11.474  -4.042  0.00  0.00     0.047 C 
ENDBRANCH  15  18
ENDBRANCH   1  14
BRANCH   1  24
HETATM   24  C           1     -21.806  -6.256  -4.680  0.00  0.00     0.196 C 
HETATM   25  O           1     -22.835  -6.045  -5.358  0.00  0.00    -0.646 OA
HETATM   26  O           1     -21.795  -5.987  -3.459  0.00  0.00    -0.646 OA
ENDBRANCH   1  24
TORSDOF 7
ENDMDL
MODEL 7
REMARK VINA RESULT:      -6.0      9.063     10.472
REMARK  7 active torsions:
REMARK  status: ('A' for Active; 'I' for Inactive)
REMARK       I    between atoms: C_1  and  N_17 
REMARK    1  A    between atoms: C_1  and  C_2 
REMARK       I    between atoms: N_3  and  C_15 
REMARK    2  A    between atoms: C_8  and  N_9 
REMARK    3  A    between atoms: C_8  and  C_10 
REMARK       I    between atoms: N_9  and  C_15 
REMARK    4  A    between atoms: C_10  and  C_11 
REMARK    5  A    between atoms: C_11  and  C_20 
REMARK    6  A    between atoms: N_17  and  C_20 
REMARK    7  A    between atoms: C_20  and  C_21 
ROOT
HETATM    1  C           1     -28.253  -6.658 -17.154  0.00  0.00     0.185 C 
ENDROOT
BRANCH   1   2
HETATM    2  C           1     -29.423  -7.625 -17.031  0.00  0.00     0.038 C 
BRANCH   2   3
HETATM    3  C           1     -30.707  -6.928 -17.462  0.00  0.00     0.023 C 
BRANCH   3   4
HETATM    4  C           1     -30.741  -5.521 -16.878  0.00  0.00     0.138 C 
BRANCH   4   5
HETATM    5  N           1     -32.137  -5.119 -16.648  0.00  0.00    -0.227 N 
HETATM    6  C           1     -32.537  -3.979 -17.025  0.00  0.00     0.665 C 
HETATM    7  N           1     -33.770  -3.624 -16.821  0.00  0.00    -0.235 N 
HETATM    8  N           1     -31.735  -3.185 -17.599  0.00  0.00    -0.235 N 
HETATM    9  H           1     -34.432  -4.279 -16.347  0.00  0.00     0.174 HD
HETATM   10  H           1     -34.101  -2.682 -17.132  0.00  0.00     0.174 HD
HETATM   11  H           1     -30.739  -3.471 -17.763  0.00  0.00     0.174 HD
HETATM   12  H           1     -32.068  -2.238 -17.911  0.00  0.00     0.174 HD
HETATM   13  H           1     -32.800  -5.778 -16.172  0.00  0.00     0.177 HD
ENDBRANCH   4   5
ENDBRANCH   3   4
ENDBRANCH   2   3
ENDBRANCH   1   2
BRANCH   1  14
HETATM   14  N           1     -27.526  -6.930 -18.379  0.00  0.00    -0.345 N 
HETATM   15  C           1     -27.621  -6.066 -19.437  0.00  0.00     0.251 C 
HETATM   16  O           1     -28.310  -5.077 -19.349  0.00  0.00    -0.271 OA
HETATM   17  H           1     -26.950  -7.758 -18.452  0.00  0.00     0.163 HD
BRANCH  15  18
HETATM   18  C           1     -26.865  -6.349 -20.712  0.00  0.00     0.311 C 
HETATM   19  N           1     -25.574  -5.667 -20.712  0.00  0.00     0.097 N 
HETATM   20  H           1     -25.187  -5.627 -21.654  0.00  0.00     0.317 HD
HETATM   21  C           1     -24.712  -6.488 -19.866  0.00  0.00     0.271 C 
HETATM   22  C           1     -25.082  -7.912 -20.245  0.00  0.00     0.033 C 
HETATM   23  C           1     -26.496  -7.820 -20.805  0.00  0.00     0.047 C 
ENDBRANCH  15  18
ENDBRANCH   1  14
BRANCH   1  24
HETATM   24  C           1     -27.330  -6.833 -15.973  0.00  0.00     0.196 C 
HETATM   25  O           1     -27.622  -7.641 -15.066  0.00  0.00    -0.646 OA
HETATM   26  O           1     -26.274  -6.167 -15.902  0.00  0.00    -0.646 OA
ENDBRANCH   1  24
TORSDOF 7
ENDMDL
MODEL 8
REMARK VINA RESULT:      -6.0     14.872     16.345
REMARK  7 active torsions:
REMARK  status: ('A' for Active; 'I' for Inactive)
REMARK       I    between atoms: C_1  and  N_17 
REMARK    1  A    between atoms: C_1  and  C_2 
REMARK       I    between atoms: N_3  and  C_15 
REMARK    2  A    between atoms: C_8  and  N_9 
REMARK    3  A    between atoms: C_8  and  C_10 
REMARK       I    between atoms: N_9  and  C_15 
REMARK    4  A    between atoms: C_10  and  C_11 
REMARK    5  A    between atoms: C_11  and  C_20 
REMARK    6  A    between atoms: N_17  and  C_20 
REMARK    7  A    between atoms: C_20  and  C_21 
ROOT
HETATM    1  C           1     -21.267  -6.422  -4.386  0.00  0.00     0.185 C 
ENDROOT
BRANCH   1   2
HETATM    2  C           1     -22.409  -6.529  -3.385  0.00  0.00     0.038 C 
BRANCH   2   3
HETATM    3  C           1     -21.934  -6.051  -2.019  0.00  0.00     0.023 C 
BRANCH   3   4
HETATM    4  C           1     -22.252  -7.110  -0.971  0.00  0.00     0.138 C 
BRANCH   4   5
HETATM    5  N           1     -21.742  -8.414  -1.421  0.00  0.00    -0.227 N 
HETATM    6  C           1     -22.229  -9.482  -0.946  0.00  0.00     0.665 C 
HETATM    7  N           1     -21.777 -10.634  -1.344  0.00  0.00    -0.235 N 
HETATM    8  N           1     -23.154  -9.427  -0.084  0.00  0.00    -0.235 N 
HETATM    9  H           1     -21.014 -10.679  -2.056  0.00  0.00     0.174 HD
HETATM   10  H           1     -22.180 -11.515  -0.952  0.00  0.00     0.174 HD
HETATM   11  H           1     -23.518  -8.496   0.238  0.00  0.00     0.174 HD
HETATM   12  H           1     -23.557 -10.313   0.310  0.00  0.00     0.174 HD
HETATM   13  H           1     -20.975  -8.458  -2.136  0.00  0.00     0.177 HD
ENDBRANCH   4   5
ENDBRANCH   3   4
ENDBRANCH   2   3
ENDBRANCH   1   2
BRANCH   1  14
HETATM   14  N           1     -21.641  -5.515  -5.454  0.00  0.00    -0.345 N 
HETATM   15  C           1     -20.726  -4.623  -5.945  0.00  0.00     0.251 C 
HETATM   16  O           1     -19.607  -4.592  -5.490  0.00  0.00    -0.271 OA
HETATM   17  H           1     -22.577  -5.542  -5.835  0.00  0.00     0.163 HD
BRANCH  15  18
HETATM   18  C           1     -21.115  -3.679  -7.056  0.00  0.00     0.311 C 
HETATM   19  N           1     -20.108  -3.677  -8.113  0.00  0.00     0.097 N 
HETATM   20  H           1     -20.220  -2.864  -8.718  0.00  0.00     0.317 HD
HETATM   21  C           1     -20.363  -4.892  -8.882  0.00  0.00     0.271 C 
HETATM   22  C           1     -21.879  -4.963  -8.955  0.00  0.00     0.033 C 
HETATM   23  C           1     -22.374  -4.161  -7.759  0.00  0.00     0.047 C 
ENDBRANCH  15  18
ENDBRANCH   1  14
BRANCH   1  24
HETATM   24  C           1     -20.974  -7.785  -4.963  0.00  0.00     0.196 C 
HETATM   25  O           1     -20.461  -8.670  -4.246  0.00  0.00    -0.646 OA
HETATM   26  O           1     -21.245  -8.028  -6.160  0.00  0.00    -0.646 OA
ENDBRANCH   1  24
TORSDOF 7
ENDMDL
MODEL 9
REMARK VINA RESULT:      -6.0     14.540     17.976
REMARK  7 active torsions:
REMARK  status: ('A' for Active; 'I' for Inactive)
REMARK       I    between atoms: C_1  and  N_17 
REMARK    1  A    between atoms: C_1  and  C_2 
REMARK       I    between atoms: N_3  and  C_15 
REMARK    2  A    between atoms: C_8  and  N_9 
REMARK    3  A    between atoms: C_8  and  C_10 
REMARK       I    between atoms: N_9  and  C_15 
REMARK    4  A    between atoms: C_10  and  C_11 
REMARK    5  A    between atoms: C_11  and  C_20 
REMARK    6  A    between atoms: N_17  and  C_20 
REMARK    7  A    between atoms: C_20  and  C_21 
ROOT
HETATM    1  C           1     -20.796  -7.960  -4.155  0.00  0.00     0.185 C 
ENDROOT
BRANCH   1   2
HETATM    2  C           1     -20.952  -6.463  -4.380  0.00  0.00     0.038 C 
BRANCH   2   3
HETATM    3  C           1     -22.151  -6.208  -5.284  0.00  0.00     0.023 C 
BRANCH   3   4
HETATM    4  C           1     -21.775  -5.187  -6.351  0.00  0.00     0.138 C 
BRANCH   4   5
HETATM    5  N           1     -22.993  -4.544  -6.866  0.00  0.00    -0.227 N 
HETATM    6  C           1     -23.085  -4.256  -8.096  0.00  0.00     0.665 C 
HETATM    7  N           1     -24.161  -3.687  -8.550  0.00  0.00    -0.235 N 
HETATM    8  N           1     -22.128  -4.522  -8.881  0.00  0.00    -0.235 N 
HETATM    9  H           1     -24.951  -3.468  -7.902  0.00  0.00     0.174 HD
HETATM   10  H           1     -24.237  -3.450  -9.566  0.00  0.00     0.174 HD
HETATM   11  H           1     -21.258  -4.981  -8.513  0.00  0.00     0.174 HD
HETATM   12  H           1     -22.205  -4.283  -9.901  0.00  0.00     0.174 HD
HETATM   13  H           1     -23.785  -4.324  -6.214  0.00  0.00     0.177 HD
ENDBRANCH   4   5
ENDBRANCH   3   4
ENDBRANCH   2   3
ENDBRANCH   1   2
BRANCH   1  14
HETATM   14  N           1     -20.722  -8.232  -2.732  0.00  0.00    -0.345 N 
HETATM   15  C           1     -21.456  -9.254  -2.193  0.00  0.00     0.251 C 
HETATM   16  O           1     -22.164  -9.930  -2.901  0.00  0.00    -0.271 OA
HETATM   17  H           1     -20.130  -7.666  -2.139  0.00  0.00     0.163 HD
BRANCH  15  18
HETATM   18  C           1     -21.380  -9.537  -0.712  0.00  0.00     0.311 C 
HETATM   19  N           1     -21.261  -8.295   0.047  0.00  0.00     0.097 N 
HETATM   20  H           1     -20.940  -8.482   0.997  0.00  0.00     0.317 HD
HETATM   21  C           1     -22.614  -7.747   0.090  0.00  0.00     0.271 C 
HETATM   22  C           1     -23.492  -8.966   0.312  0.00  0.00     0.033 C 
HETATM   23  C           1     -22.680 -10.143  -0.210  0.00  0.00     0.047 C 
ENDBRANCH  15  18
ENDBRANCH   1  14
BRANCH   1  24
HETATM   24  C           1     -19.531  -8.440  -4.824  0.00  0.00     0.196 C 
HETATM   25  O           1     -19.370  -8.270  -6.051  0.00  0.00    -0.646 OA
HETATM   26  O           1     -18.644  -9.007  -4.149  0.00  0.00    -0.646 OA
ENDBRANCH   1  24
TORSDOF 7
ENDMDL
