MODEL 1
REMARK VINA RESULT:      -6.3      0.000      0.000
REMARK  6 active torsions:
REMARK  status: ('A' for Active; 'I' for Inactive)
REMARK    1  A    between atoms: C_2  and  C_3 
REMARK    2  A    between atoms: C_3  and  C_8 
REMARK    3  A    between atoms: C_3  and  N_16 
REMARK    4  A    between atoms: N_4  and  C_19 
REMARK       I    between atoms: N_4  and  C_8 
REMARK    5  A    between atoms: C_11  and  C_19 
REMARK    6  A    between atoms: C_18  and  C_19 
ROOT
HETATM    1  N           1     -35.322  -1.688 -12.772  0.00  0.00    -0.344 N 
HETATM    2  C           1     -34.451  -2.459 -12.050  0.00  0.00     0.249 C 
HETATM    3  H           1     -35.863  -2.101 -13.521  0.00  0.00     0.163 HD
HETATM    4  O           1     -33.805  -1.966 -11.157  0.00  0.00    -0.271 OA
ENDROOT
BRANCH   2   5
HETATM    5  C           1     -34.296  -3.925 -12.374  0.00  0.00     0.278 C 
BRANCH   5   6
HETATM    6  C           1     -33.291  -4.552 -11.417  0.00  0.00     0.017 C 
HETATM    7  C           1     -33.830  -5.887 -10.916  0.00  0.00     0.012 C 
HETATM    8  C           1     -31.972  -4.780 -12.143  0.00  0.00     0.012 C 
ENDBRANCH   5   6
BRANCH   5   9
HETATM    9  N           1     -33.806  -4.078 -13.782  0.00  0.00    -0.066 N 
HETATM   10  H           1     -34.437  -3.553 -14.429  0.00  0.00     0.275 HD
HETATM   11  H           1     -33.804  -5.090 -14.042  0.00  0.00     0.275 HD
HETATM   12  H           1     -32.836  -3.698 -13.857  0.00  0.00     0.275 HD
ENDBRANCH   5   9
ENDBRANCH   2   5
BRANCH   1  13
HETATM   13  C           1     -35.471  -0.279 -12.462  0.00  0.00     0.189 C 
BRANCH  13  14
HETATM   14  C           1     -35.717   0.499 -13.749  0.00  0.00     0.010 C 
HETATM   15  C           1     -34.553   1.450 -13.997  0.00  0.00     0.012 C 
HETATM   16  C           1     -35.837  -0.473 -14.915  0.00  0.00     0.012 C 
ENDBRANCH  13  14
BRANCH  13  17
HETATM   17  C           1     -36.640  -0.090 -11.528  0.00  0.00     0.197 C 
HETATM   18  O           1     -36.481   0.505 -10.440  0.00  0.00    -0.646 OA
HETATM   19  O           1     -37.769  -0.529 -11.842  0.00  0.00    -0.646 OA
ENDBRANCH  13  17
ENDBRANCH   1  13
TORSDOF 6
ENDMDL
MODEL 2
REMARK VINA RESULT:      -5.4     12.156     15.060
REMARK  6 active torsions:
REMARK  status: ('A' for Active; 'I' for Inactive)
REMARK    1  A    between atoms: C_2  and  C_3 
REMARK    2  A    between atoms: C_3  and  C_8 
REMARK    3  A    between atoms: C_3  and  N_16 
REMARK    4  A    between atoms: N_4  and  C_19 
REMARK       I    between atoms: N_4  and  C_8 
REMARK    5  A    between atoms: C_11  and  C_19 
REMARK    6  A    between atoms: C_18  and  C_19 
ROOT
HETATM    1  N           1     -22.060  -5.285  -7.540  0.00  0.00    -0.344 N 
HETATM    2  C           1     -22.336  -4.118  -8.199  0.00  0.00     0.249 C 
HETATM    3  H           1     -22.487  -6.151  -7.844  0.00  0.00     0.163 HD
HETATM    4  O           1     -21.828  -3.084  -7.836  0.00  0.00    -0.271 OA
ENDROOT
BRANCH   2   5
HETATM    5  C           1     -23.279  -4.122  -9.378  0.00  0.00     0.278 C 
BRANCH   5   6
HETATM    6  C           1     -22.610  -3.442 -10.565  0.00  0.00     0.017 C 
HETATM    7  C           1     -21.621  -4.403 -11.212  0.00  0.00     0.012 C 
HETATM    8  C           1     -23.669  -3.044 -11.585  0.00  0.00     0.012 C 
ENDBRANCH   5   6
BRANCH   5   9
HETATM    9  N           1     -24.532  -3.382  -9.020  0.00  0.00    -0.066 N 
HETATM   10  H           1     -25.313  -4.064  -8.887  0.00  0.00     0.275 HD
HETATM   11  H           1     -24.776  -2.717  -9.788  0.00  0.00     0.275 HD
HETATM   12  H           1     -24.381  -2.849  -8.134  0.00  0.00     0.275 HD
ENDBRANCH   5   9
ENDBRANCH   2   5
BRANCH   1  13
HETATM   13  C           1     -21.156  -5.281  -6.406  0.00  0.00     0.189 C 
BRANCH  13  14
HETATM   14  C           1     -21.636  -6.291  -5.371  0.00  0.00     0.010 C 
HETATM   15  C           1     -21.069  -5.925  -4.006  0.00  0.00     0.012 C 
HETATM   16  C           1     -23.157  -6.272  -5.312  0.00  0.00     0.012 C 
ENDBRANCH  13  14
BRANCH  13  17
HETATM   17  C           1     -19.769  -5.654  -6.869  0.00  0.00     0.197 C 
HETATM   18  O           1     -18.919  -4.761  -7.081  0.00  0.00    -0.646 OA
HETATM   19  O           1     -19.469  -6.856  -7.039  0.00  0.00    -0.646 OA
ENDBRANCH  13  17
ENDBRANCH   1  13
TORSDOF 6
ENDMDL
MODEL 3
REMARK VINA RESULT:      -5.2     16.537     18.689
REMARK  6 active torsions:
REMARK  status: ('A' for Active; 'I' for Inactive)
REMARK    1  A    between atoms: C_2  and  C_3 
REMARK    2  A    between atoms: C_3  and  C_8 
REMARK    3  A    between atoms: C_3  and  N_16 
REMARK    4  A    between atoms: N_4  and  C_19 
REMARK       I    between atoms: N_4  and  C_8 
REMARK    5  A    between atoms: C_11  and  C_19 
REMARK    6  A    between atoms: C_18  and  C_19 
ROOT
HETATM    1  N           1     -21.021  -8.493  -2.408  0.00  0.00    -0.344 N 
HETATM    2  C           1     -21.705  -9.578  -1.930  0.00  0.00     0.249 C 
HETATM    3  H           1     -20.529  -7.883  -1.767  0.00  0.00     0.163 HD
HETATM    4  O           1     -22.292 -10.307  -2.694  0.00  0.00    -0.271 OA
ENDROOT
BRANCH   2   5
HETATM    5  C           1     -21.729  -9.863  -0.448  0.00  0.00     0.278 C 
BRANCH   5   6
HETATM    6  C           1     -21.694  -8.550   0.322  0.00  0.00     0.017 C 
HETATM    7  C           1     -23.118  -8.103   0.629  0.00  0.00     0.012 C 
HETATM    8  C           1     -20.933  -8.747   1.627  0.00  0.00     0.012 C 
ENDBRANCH   5   6
BRANCH   5   9
HETATM    9  N           1     -20.534 -10.691  -0.079  0.00  0.00    -0.066 N 
HETATM   10  H           1     -20.831 -11.680   0.080  0.00  0.00     0.275 HD
HETATM   11  H           1     -20.105 -10.311   0.796  0.00  0.00     0.275 HD
HETATM   12  H           1     -19.833 -10.657  -0.853  0.00  0.00     0.275 HD
ENDBRANCH   5   9
ENDBRANCH   2   5
BRANCH   1  13
HETATM   13  C           1     -20.999  -8.219  -3.831  0.00  0.00     0.189 C 
BRANCH  13  14
HETATM   14  C           1     -21.202  -6.726  -4.063  0.00  0.00     0.010 C 
HETATM   15  C           1     -22.318  -6.518  -5.077  0.00  0.00     0.012 C 
HETATM   16  C           1     -21.577  -6.056  -2.748  0.00  0.00     0.012 C 
ENDBRANCH  13  14
BRANCH  13  17
HETATM   17  C           1     -19.668  -8.641  -4.404  0.00  0.00     0.197 C 
HETATM   18  O           1     -18.747  -9.006  -3.641  0.00  0.00    -0.646 OA
HETATM   19  O           1     -19.487  -8.626  -5.641  0.00  0.00    -0.646 OA
ENDBRANCH  13  17
ENDBRANCH   1  13
TORSDOF 6
ENDMDL
MODEL 4
REMARK VINA RESULT:      -5.1     16.131     18.381
REMARK  6 active torsions:
REMARK  status: ('A' for Active; 'I' for Inactive)
REMARK    1  A    between atoms: C_2  and  C_3 
REMARK    2  A    between atoms: C_3  and  C_8 
REMARK    3  A    between atoms: C_3  and  N_16 
REMARK    4  A    between atoms: N_4  and  C_19 
REMARK       I    between atoms: N_4  and  C_8 
REMARK    5  A    between atoms: C_11  and  C_19 
REMARK    6  A    between atoms: C_18  and  C_19 
ROOT
HETATM    1  N           1     -21.457  -8.416  -2.696  0.00  0.00    -0.344 N 
HETATM    2  C           1     -20.343  -8.347  -3.488  0.00  0.00     0.249 C 
HETATM    3  H           1     -22.318  -7.975  -2.993  0.00  0.00     0.163 HD
HETATM    4  O           1     -19.315  -8.872  -3.133  0.00  0.00    -0.271 OA
ENDROOT
BRANCH   2   5
HETATM    5  C           1     -20.398  -7.610  -4.804  0.00  0.00     0.278 C 
BRANCH   5   6
HETATM    6  C           1     -21.135  -6.291  -4.617  0.00  0.00     0.017 C 
HETATM    7  C           1     -20.398  -5.186  -5.365  0.00  0.00     0.012 C 
HETATM    8  C           1     -22.550  -6.417  -5.166  0.00  0.00     0.012 C 
ENDBRANCH   5   6
BRANCH   5   9
HETATM    9  N           1     -21.121  -8.447  -5.816  0.00  0.00    -0.066 N 
HETATM   10  H           1     -21.082  -7.977  -6.749  0.00  0.00     0.275 HD
HETATM   11  H           1     -22.118  -8.561  -5.525  0.00  0.00     0.275 HD
HETATM   12  H           1     -20.667  -9.386  -5.880  0.00  0.00     0.275 HD
ENDBRANCH   5   9
ENDBRANCH   2   5
BRANCH   1  13
HETATM   13  C           1     -21.403  -9.123  -1.431  0.00  0.00     0.189 C 
BRANCH  13  14
HETATM   14  C           1     -22.217  -8.362  -0.391  0.00  0.00     0.010 C 
HETATM   15  C           1     -21.497  -8.411   0.951  0.00  0.00     0.012 C 
HETATM   16  C           1     -22.375  -6.913  -0.831  0.00  0.00     0.012 C 
ENDBRANCH  13  14
BRANCH  13  17
HETATM   17  C           1     -21.977 -10.508  -1.604  0.00  0.00     0.197 C 
HETATM   18  O           1     -21.216 -11.479  -1.808  0.00  0.00    -0.646 OA
HETATM   19  O           1     -23.213 -10.685  -1.545  0.00  0.00    -0.646 OA
ENDBRANCH  13  17
ENDBRANCH   1  13
TORSDOF 6
ENDMDL
MODEL 5
REMARK VINA RESULT:      -5.0      1.502      2.088
REMARK  6 active torsions:
REMARK  status: ('A' for Active; 'I' for Inactive)
REMARK    1  A    between atoms: C_2  and  C_3 
REMARK    2  A    between atoms: C_3  and  C_8 
REMARK    3  A    between atoms: C_3  and  N_16 
REMARK    4  A    between atoms: N_4  and  C_19 
REMARK       I    between atoms: N_4  and  C_8 
REMARK    5  A    between atoms: C_11  and  C_19 
REMARK    6  A    between atoms: C_18  and  C_19 
ROOT
HETATM    1  N           1     -34.900  -1.683 -13.614  0.00  0.00    -0.344 N 
HETATM    2  C           1     -34.359  -2.147 -12.446  0.00  0.00     0.249 C 
HETATM    3  H           1     -34.948  -2.288 -14.425  0.00  0.00     0.163 HD
HETATM    4  O           1     -34.300  -1.427 -11.479  0.00  0.00    -0.271 OA
ENDROOT
BRANCH   2   5
HETATM    5  C           1     -33.833  -3.560 -12.367  0.00  0.00     0.278 C 
BRANCH   5   6
HETATM    6  C           1     -34.853  -4.444 -11.662  0.00  0.00     0.017 C 
HETATM    7  C           1     -35.073  -5.714 -12.474  0.00  0.00     0.012 C 
HETATM    8  C           1     -34.337  -4.811 -10.277  0.00  0.00     0.012 C 
ENDBRANCH   5   6
BRANCH   5   9
HETATM    9  N           1     -32.546  -3.572 -11.598  0.00  0.00    -0.066 N 
HETATM   10  H           1     -32.149  -2.606 -11.568  0.00  0.00     0.275 HD
HETATM   11  H           1     -31.867  -4.214 -12.066  0.00  0.00     0.275 HD
HETATM   12  H           1     -32.725  -3.906 -10.624  0.00  0.00     0.275 HD
ENDBRANCH   5   9
ENDBRANCH   2   5
BRANCH   1  13
HETATM   13  C           1     -35.404  -0.326 -13.690  0.00  0.00     0.189 C 
BRANCH  13  14
HETATM   14  C           1     -35.125   0.242 -15.077  0.00  0.00     0.010 C 
HETATM   15  C           1     -35.579  -0.757 -16.134  0.00  0.00     0.012 C 
HETATM   16  C           1     -35.886   1.549 -15.252  0.00  0.00     0.012 C 
ENDBRANCH  13  14
BRANCH  13  17
HETATM   17  C           1     -36.892  -0.327 -13.437  0.00  0.00     0.197 C 
HETATM   18  O           1     -37.658  -0.933 -14.218  0.00  0.00    -0.646 OA
HETATM   19  O           1     -37.358   0.277 -12.447  0.00  0.00    -0.646 OA
ENDBRANCH  13  17
ENDBRANCH   1  13
TORSDOF 6
ENDMDL
MODEL 6
REMARK VINA RESULT:      -4.9     14.468     16.204
REMARK  6 active torsions:
REMARK  status: ('A' for Active; 'I' for Inactive)
REMARK    1  A    between atoms: C_2  and  C_3 
REMARK    2  A    between atoms: C_3  and  C_8 
REMARK    3  A    between atoms: C_3  and  N_16 
REMARK    4  A    between atoms: N_4  and  C_19 
REMARK       I    between atoms: N_4  and  C_8 
REMARK    5  A    between atoms: C_11  and  C_19 
REMARK    6  A    between atoms: C_18  and  C_19 
ROOT
HETATM    1  N           1     -21.581  -5.861  -5.856  0.00  0.00    -0.344 N 
HETATM    2  C           1     -21.279  -7.122  -5.419  0.00  0.00     0.249 C 
HETATM    3  H           1     -22.203  -5.273  -5.316  0.00  0.00     0.163 HD
HETATM    4  O           1     -20.538  -7.824  -6.064  0.00  0.00    -0.271 OA
ENDROOT
BRANCH   2   5
HETATM    5  C           1     -21.876  -7.638  -4.132  0.00  0.00     0.278 C 
BRANCH   5   6
HETATM    6  C           1     -21.162  -6.998  -2.949  0.00  0.00     0.017 C 
HETATM    7  C           1     -22.171  -6.241  -2.095  0.00  0.00     0.012 C 
HETATM    8  C           1     -20.499  -8.082  -2.109  0.00  0.00     0.012 C 
ENDBRANCH   5   6
BRANCH   5   9
HETATM    9  N           1     -21.715  -9.127  -4.067  0.00  0.00    -0.066 N 
HETATM   10  H           1     -22.589  -9.587  -4.408  0.00  0.00     0.275 HD
HETATM   11  H           1     -21.532  -9.414  -3.078  0.00  0.00     0.275 HD
HETATM   12  H           1     -20.911  -9.417  -4.667  0.00  0.00     0.275 HD
ENDBRANCH   5   9
ENDBRANCH   2   5
BRANCH   1  13
HETATM   13  C           1     -21.009  -5.366  -7.094  0.00  0.00     0.189 C 
BRANCH  13  14
HETATM   14  C           1     -21.964  -4.363  -7.728  0.00  0.00     0.010 C 
HETATM   15  C           1     -21.999  -4.579  -9.235  0.00  0.00     0.012 C 
HETATM   16  C           1     -23.361  -4.559  -7.153  0.00  0.00     0.012 C 
ENDBRANCH  13  14
BRANCH  13  17
HETATM   17  C           1     -19.691  -4.693  -6.803  0.00  0.00     0.197 C 
HETATM   18  O           1     -18.903  -4.432  -7.739  0.00  0.00    -0.646 OA
HETATM   19  O           1     -19.385  -4.395  -5.628  0.00  0.00    -0.646 OA
ENDBRANCH  13  17
ENDBRANCH   1  13
TORSDOF 6
ENDMDL
MODEL 7
REMARK VINA RESULT:      -4.9     17.911     19.574
REMARK  6 active torsions:
REMARK  status: ('A' for Active; 'I' for Inactive)
REMARK    1  A    between atoms: C_2  and  C_3 
REMARK    2  A    between atoms: C_3  and  C_8 
REMARK    3  A    between atoms: C_3  and  N_16 
REMARK    4  A    between atoms: N_4  and  C_19 
REMARK       I    between atoms: N_4  and  C_8 
REMARK    5  A    between atoms: C_11  and  C_19 
REMARK    6  A    between atoms: C_18  and  C_19 
ROOT
HETATM    1  N           1     -20.404  -8.925  -1.537  0.00  0.00    -0.344 N 
HETATM    2  C           1     -20.021  -9.944  -2.366  0.00  0.00     0.249 C 
HETATM    3  H           1     -19.724  -8.485  -0.929  0.00  0.00     0.163 HD
HETATM    4  O           1     -20.831 -10.469  -3.092  0.00  0.00    -0.271 OA
ENDROOT
BRANCH   2   5
HETATM    5  C           1     -18.587 -10.414  -2.372  0.00  0.00     0.278 C 
BRANCH   5   6
HETATM    6  C           1     -17.737  -9.443  -3.180  0.00  0.00     0.017 C 
HETATM    7  C           1     -16.277  -9.582  -2.769  0.00  0.00     0.012 C 
HETATM    8  C           1     -17.877  -9.759  -4.663  0.00  0.00     0.012 C 
ENDBRANCH   5   6
BRANCH   5   9
HETATM    9  N           1     -18.510 -11.778  -2.989  0.00  0.00    -0.066 N 
HETATM   10  H           1     -19.375 -11.957  -3.547  0.00  0.00     0.275 HD
HETATM   11  H           1     -18.426 -12.497  -2.235  0.00  0.00     0.275 HD
HETATM   12  H           1     -17.675 -11.832  -3.615  0.00  0.00     0.275 HD
ENDBRANCH   5   9
ENDBRANCH   2   5
BRANCH   1  13
HETATM   13  C           1     -21.782  -8.473  -1.531  0.00  0.00     0.189 C 
BRANCH  13  14
HETATM   14  C           1     -22.381  -8.695  -0.147  0.00  0.00     0.010 C 
HETATM   15  C           1     -23.217  -9.968  -0.155  0.00  0.00     0.012 C 
HETATM   16  C           1     -21.261  -8.828   0.875  0.00  0.00     0.012 C 
ENDBRANCH  13  14
BRANCH  13  17
HETATM   17  C           1     -21.831  -7.005  -1.871  0.00  0.00     0.197 C 
HETATM   18  O           1     -22.540  -6.229  -1.194  0.00  0.00    -0.646 OA
HETATM   19  O           1     -21.163  -6.562  -2.832  0.00  0.00    -0.646 OA
ENDBRANCH  13  17
ENDBRANCH   1  13
TORSDOF 6
ENDMDL
MODEL 8
REMARK VINA RESULT:      -4.8     17.608     19.041
REMARK  6 active torsions:
REMARK  status: ('A' for Active; 'I' for Inactive)
REMARK    1  A    between atoms: C_2  and  C_3 
REMARK    2  A    between atoms: C_3  and  C_8 
REMARK    3  A    between atoms: C_3  and  N_16 
REMARK    4  A    between atoms: N_4  and  C_19 
REMARK       I    between atoms: N_4  and  C_8 
REMARK    5  A    between atoms: C_11  and  C_19 
REMARK    6  A    between atoms: C_18  and  C_19 
ROOT
HETATM    1  N           1     -21.527  -9.787  -1.616  0.00  0.00    -0.344 N 
HETATM    2  C           1     -22.235 -10.851  -2.107  0.00  0.00     0.249 C 
HETATM    3  H           1     -21.116  -9.835  -0.693  0.00  0.00     0.163 HD
HETATM    4  O           1     -22.726 -10.793  -3.209  0.00  0.00    -0.271 OA
ENDROOT
BRANCH   2   5
HETATM    5  C           1     -22.403 -12.095  -1.270  0.00  0.00     0.278 C 
BRANCH   5   6
HETATM    6  C           1     -22.918 -11.713   0.111  0.00  0.00     0.017 C 
HETATM    7  C           1     -24.240 -10.968  -0.027  0.00  0.00     0.012 C 
HETATM    8  C           1     -23.131 -12.972   0.940  0.00  0.00     0.012 C 
ENDBRANCH   5   6
BRANCH   5   9
HETATM    9  N           1     -21.082 -12.791  -1.136  0.00  0.00    -0.066 N 
HETATM   10  H           1     -20.918 -13.393  -1.974  0.00  0.00     0.275 HD
HETATM   11  H           1     -21.087 -13.385  -0.275  0.00  0.00     0.275 HD
HETATM   12  H           1     -20.319 -12.080  -1.063  0.00  0.00     0.275 HD
ENDBRANCH   5   9
ENDBRANCH   2   5
BRANCH   1  13
HETATM   13  C           1     -21.366  -8.591  -2.420  0.00  0.00     0.189 C 
BRANCH  13  14
HETATM   14  C           1     -21.444  -7.362  -1.521  0.00  0.00     0.010 C 
HETATM   15  C           1     -22.004  -6.189  -2.314  0.00  0.00     0.012 C 
HETATM   16  C           1     -22.354  -7.657  -0.337  0.00  0.00     0.012 C 
ENDBRANCH  13  14
BRANCH  13  17
HETATM   17  C           1     -20.025  -8.626  -3.110  0.00  0.00     0.197 C 
HETATM   18  O           1     -19.928  -8.272  -4.306  0.00  0.00    -0.646 OA
HETATM   19  O           1     -19.011  -9.008  -2.487  0.00  0.00    -0.646 OA
ENDBRANCH  13  17
ENDBRANCH   1  13
TORSDOF 6
ENDMDL
MODEL 9
REMARK VINA RESULT:      -4.7     17.156     19.169
REMARK  6 active torsions:
REMARK  status: ('A' for Active; 'I' for Inactive)
REMARK    1  A    between atoms: C_2  and  C_3 
REMARK    2  A    between atoms: C_3  and  C_8 
REMARK    3  A    between atoms: C_3  and  N_16 
REMARK    4  A    between atoms: N_4  and  C_19 
REMARK       I    between atoms: N_4  and  C_8 
REMARK    5  A    between atoms: C_11  and  C_19 
REMARK    6  A    between atoms: C_18  and  C_19 
ROOT
HETATM    1  N           1     -21.297  -9.280  -1.124  0.00  0.00    -0.344 N 
HETATM    2  C           1     -21.351  -9.098  -2.479  0.00  0.00     0.249 C 
HETATM    3  H           1     -20.798  -8.618  -0.543  0.00  0.00     0.163 HD
HETATM    4  O           1     -21.945  -9.888  -3.173  0.00  0.00    -0.271 OA
ENDROOT
BRANCH   2   5
HETATM    5  C           1     -20.663  -7.910  -3.108  0.00  0.00     0.278 C 
BRANCH   5   6
HETATM    6  C           1     -21.696  -6.841  -3.437  0.00  0.00     0.017 C 
HETATM    7  C           1     -22.078  -6.094  -2.165  0.00  0.00     0.012 C 
HETATM    8  C           1     -21.109  -5.859  -4.443  0.00  0.00     0.012 C 
ENDBRANCH   5   6
BRANCH   5   9
HETATM    9  N           1     -19.973  -8.341  -4.367  0.00  0.00    -0.066 N 
HETATM   10  H           1     -19.932  -9.384  -4.403  0.00  0.00     0.275 HD
HETATM   11  H           1     -19.002  -7.953  -4.382  0.00  0.00     0.275 HD
HETATM   12  H           1     -20.501  -7.984  -5.195  0.00  0.00     0.275 HD
ENDBRANCH   5   9
ENDBRANCH   2   5
BRANCH   1  13
HETATM   13  C           1     -21.956 -10.422  -0.520  0.00  0.00     0.189 C 
BRANCH  13  14
HETATM   14  C           1     -21.136 -10.911   0.668  0.00  0.00     0.010 C 
HETATM   15  C           1     -19.984 -11.772   0.168  0.00  0.00     0.012 C 
HETATM   16  C           1     -20.584  -9.713   1.429  0.00  0.00     0.012 C 
ENDBRANCH  13  14
BRANCH  13  17
HETATM   17  C           1     -23.332 -10.017  -0.050  0.00  0.00     0.197 C 
HETATM   18  O           1     -24.246 -10.868   0.014  0.00  0.00    -0.646 OA
HETATM   19  O           1     -23.557  -8.831   0.277  0.00  0.00    -0.646 OA
ENDBRANCH  13  17
ENDBRANCH   1  13
TORSDOF 6
ENDMDL
