MODEL 1
REMARK VINA RESULT:      -6.0      0.000      0.000
REMARK  5 active torsions:
REMARK  status: ('A' for Active; 'I' for Inactive)
REMARK       I    between atoms: C_8  and  N_9 
REMARK    1  A    between atoms: C_8  and  C_17 
REMARK    2  A    between atoms: N_9  and  C_10 
REMARK    3  A    between atoms: C_10  and  C_22 
REMARK    4  A    between atoms: C_10  and  C_11 
REMARK    5  A    between atoms: C_22  and  Se_23 
ROOT
HETATM    1  H           1     -22.844  -6.496  -5.455  0.00  0.00     0.274 HD
HETATM    2  H           1     -22.275  -5.246  -6.469  0.00  0.00     0.274 HD
HETATM    3  H           1     -22.883  -4.878  -4.918  0.00  0.00     0.274 HD
HETATM    4  N           1     -21.520  -3.757  -6.982  0.00  0.00    -0.067 N 
HETATM    5  C           1     -20.087  -6.275  -7.164  0.00  0.00     0.004 C 
HETATM    6  C           1     -20.193  -6.755  -5.723  0.00  0.00     0.027 C 
HETATM    7  C           1     -20.973  -5.736  -4.904  0.00  0.00     0.229 C 
HETATM    8  N           1     -22.348  -5.577  -5.480  0.00  0.00    -0.079 N 
HETATM    9  C           1     -19.363  -4.936  -7.202  0.00  0.00     0.042 C 
HETATM   10  C           1     -20.277  -3.882  -7.813  0.00  0.00     0.274 C 
HETATM   11  H           1     -22.016  -4.677  -6.957  0.00  0.00     0.275 HD
HETATM   12  H           1     -22.147  -3.033  -7.401  0.00  0.00     0.275 HD
HETATM   13  H           1     -21.263  -3.473  -6.009  0.00  0.00     0.275 HD
ENDROOT
BRANCH  10  14
HETATM   14  C           1     -20.650  -4.291  -9.217  0.00  0.00     0.249 C 
HETATM   15  O           1     -19.845  -4.861  -9.914  0.00  0.00    -0.271 OA
HETATM   16  N           1     -21.901  -4.015  -9.700  0.00  0.00    -0.345 N 
HETATM   17  H           1     -22.575  -3.537  -9.116  0.00  0.00     0.163 HD
BRANCH  16  18
HETATM   18  C           1     -22.259  -4.408 -11.049  0.00  0.00     0.185 C 
BRANCH  18  19
HETATM   19  C           1     -23.725  -4.820 -11.085  0.00  0.00     0.039 C 
BRANCH  19  20
HETATM   20 Se           1     -24.763  -3.635  -9.937  0.00  0.00     0.000 Se
HETATM   21  H           1     -24.968  -2.615 -10.979  0.00  0.00     0.000 HD
ENDBRANCH  19  20
ENDBRANCH  18  19
BRANCH  18  22
HETATM   22  C           1     -22.039  -3.246 -11.986  0.00  0.00     0.196 C 
HETATM   23  O           1     -21.368  -2.260 -11.613  0.00  0.00    -0.646 OA
HETATM   24  O           1     -22.529  -3.270 -13.136  0.00  0.00    -0.646 OA
ENDBRANCH  18  22
ENDBRANCH  16  18
ENDBRANCH  10  14
TORSDOF 5
ENDMDL
MODEL 2
REMARK VINA RESULT:      -5.6      2.258      2.583
REMARK  5 active torsions:
REMARK  status: ('A' for Active; 'I' for Inactive)
REMARK       I    between atoms: C_8  and  N_9 
REMARK    1  A    between atoms: C_8  and  C_17 
REMARK    2  A    between atoms: N_9  and  C_10 
REMARK    3  A    between atoms: C_10  and  C_22 
REMARK    4  A    between atoms: C_10  and  C_11 
REMARK    5  A    between atoms: C_22  and  Se_23 
ROOT
HETATM    1  H           1     -22.513  -6.165  -3.462  0.00  0.00     0.274 HD
HETATM    2  H           1     -21.526  -5.227  -4.491  0.00  0.00     0.274 HD
HETATM    3  H           1     -21.050  -5.511  -2.878  0.00  0.00     0.274 HD
HETATM    4  N           1     -20.099  -4.541  -5.229  0.00  0.00    -0.067 N 
HETATM    5  C           1     -21.497  -6.749  -6.495  0.00  0.00     0.004 C 
HETATM    6  C           1     -21.498  -7.760  -5.358  0.00  0.00     0.027 C 
HETATM    7  C           1     -20.801  -7.161  -4.144  0.00  0.00     0.229 C 
HETATM    8  N           1     -21.528  -5.922  -3.710  0.00  0.00    -0.079 N 
HETATM    9  C           1     -20.062  -6.393  -6.859  0.00  0.00     0.042 C 
HETATM   10  C           1     -19.843  -4.899  -6.663  0.00  0.00     0.274 C 
HETATM   11  H           1     -21.085  -4.785  -4.981  0.00  0.00     0.275 HD
HETATM   12  H           1     -19.948  -3.515  -5.095  0.00  0.00     0.275 HD
HETATM   13  H           1     -19.443  -5.073  -4.614  0.00  0.00     0.275 HD
ENDROOT
BRANCH  10  14
HETATM   14  C           1     -20.791  -4.130  -7.551  0.00  0.00     0.249 C 
HETATM   15  O           1     -21.389  -3.176  -7.113  0.00  0.00    -0.271 OA
HETATM   16  N           1     -20.973  -4.516  -8.851  0.00  0.00    -0.345 N 
HETATM   17  H           1     -20.473  -5.315  -9.218  0.00  0.00     0.163 HD
BRANCH  16  18
HETATM   18  C           1     -21.884  -3.778  -9.705  0.00  0.00     0.185 C 
BRANCH  18  19
HETATM   19  C           1     -21.405  -3.857 -11.148  0.00  0.00     0.039 C 
BRANCH  19  20
HETATM   20 Se           1     -22.559  -2.767 -12.278  0.00  0.00     0.000 Se
HETATM   21  H           1     -22.112  -3.392 -13.535  0.00  0.00     0.000 HD
ENDBRANCH  19  20
ENDBRANCH  18  19
BRANCH  18  22
HETATM   22  C           1     -23.267  -4.374  -9.599  0.00  0.00     0.196 C 
HETATM   23  O           1     -23.570  -5.373 -10.287  0.00  0.00    -0.646 OA
HETATM   24  O           1     -24.108  -3.869  -8.825  0.00  0.00    -0.646 OA
ENDBRANCH  18  22
ENDBRANCH  16  18
ENDBRANCH  10  14
TORSDOF 5
ENDMDL
MODEL 3
REMARK VINA RESULT:      -5.4      3.990      6.589
REMARK  5 active torsions:
REMARK  status: ('A' for Active; 'I' for Inactive)
REMARK       I    between atoms: C_8  and  N_9 
REMARK    1  A    between atoms: C_8  and  C_17 
REMARK    2  A    between atoms: N_9  and  C_10 
REMARK    3  A    between atoms: C_10  and  C_22 
REMARK    4  A    between atoms: C_10  and  C_11 
REMARK    5  A    between atoms: C_22  and  Se_23 
ROOT
HETATM    1  H           1     -20.563  -5.423 -11.234  0.00  0.00     0.274 HD
HETATM    2  H           1     -20.099  -5.274  -9.598  0.00  0.00     0.274 HD
HETATM    3  H           1     -19.158  -4.549 -10.823  0.00  0.00     0.274 HD
HETATM    4  N           1     -19.457  -4.591  -8.125  0.00  0.00    -0.067 N 
HETATM    5  C           1     -22.317  -4.594  -8.624  0.00  0.00     0.004 C 
HETATM    6  C           1     -22.360  -3.890  -9.973  0.00  0.00     0.027 C 
HETATM    7  C           1     -20.944  -3.537 -10.408  0.00  0.00     0.229 C 
HETATM    8  N           1     -20.129  -4.791 -10.525  0.00  0.00    -0.079 N 
HETATM    9  C           1     -21.685  -3.674  -7.589  0.00  0.00     0.042 C 
HETATM   10  C           1     -20.436  -4.333  -7.018  0.00  0.00     0.274 C 
HETATM   11  H           1     -19.892  -5.223  -8.834  0.00  0.00     0.275 HD
HETATM   12  H           1     -18.601  -5.043  -7.731  0.00  0.00     0.275 HD
HETATM   13  H           1     -19.196  -3.686  -8.578  0.00  0.00     0.275 HD
ENDROOT
BRANCH  10  14
HETATM   14  C           1     -20.812  -5.640  -6.364  0.00  0.00     0.249 C 
HETATM   15  O           1     -20.989  -6.626  -7.041  0.00  0.00    -0.271 OA
HETATM   16  N           1     -20.954  -5.709  -5.005  0.00  0.00    -0.345 N 
HETATM   17  H           1     -20.807  -4.884  -4.438  0.00  0.00     0.163 HD
BRANCH  16  18
HETATM   18  C           1     -21.314  -6.965  -4.376  0.00  0.00     0.185 C 
BRANCH  18  19
HETATM   19  C           1     -20.162  -7.951  -4.513  0.00  0.00     0.039 C 
BRANCH  19  20
HETATM   20 Se           1     -20.860  -9.704  -5.000  0.00  0.00     0.000 Se
HETATM   21  H           1     -20.710 -10.268  -3.648  0.00  0.00     0.000 HD
ENDBRANCH  19  20
ENDBRANCH  18  19
BRANCH  18  22
HETATM   22  C           1     -21.605  -6.729  -2.913  0.00  0.00     0.196 C 
HETATM   23  O           1     -20.962  -7.351  -2.041  0.00  0.00    -0.646 OA
HETATM   24  O           1     -22.489  -5.913  -2.576  0.00  0.00    -0.646 OA
ENDBRANCH  18  22
ENDBRANCH  16  18
ENDBRANCH  10  14
TORSDOF 5
ENDMDL
MODEL 4
REMARK VINA RESULT:      -5.3     17.875     19.210
REMARK  5 active torsions:
REMARK  status: ('A' for Active; 'I' for Inactive)
REMARK       I    between atoms: C_8  and  N_9 
REMARK    1  A    between atoms: C_8  and  C_17 
REMARK    2  A    between atoms: N_9  and  C_10 
REMARK    3  A    between atoms: C_10  and  C_22 
REMARK    4  A    between atoms: C_10  and  C_11 
REMARK    5  A    between atoms: C_22  and  Se_23 
ROOT
HETATM    1  H           1     -14.673   5.024 -21.722  0.00  0.00     0.274 HD
HETATM    2  H           1     -13.347   5.027 -20.647  0.00  0.00     0.274 HD
HETATM    3  H           1     -14.735   4.103 -20.288  0.00  0.00     0.274 HD
HETATM    4  N           1     -12.168   4.471 -19.485  0.00  0.00    -0.067 N 
HETATM    5  C           1     -11.499   4.624 -22.307  0.00  0.00     0.004 C 
HETATM    6  C           1     -12.616   3.777 -22.899  0.00  0.00     0.027 C 
HETATM    7  C           1     -13.522   3.276 -21.781  0.00  0.00     0.229 C 
HETATM    8  N           1     -14.114   4.446 -21.055  0.00  0.00    -0.079 N 
HETATM    9  C           1     -10.684   3.784 -21.333  0.00  0.00     0.042 C 
HETATM   10  C           1     -10.742   4.412 -19.947  0.00  0.00     0.274 C 
HETATM   11  H           1     -12.726   5.049 -20.154  0.00  0.00     0.275 HD
HETATM   12  H           1     -12.206   4.902 -18.534  0.00  0.00     0.275 HD
HETATM   13  H           1     -12.563   3.504 -19.446  0.00  0.00     0.275 HD
ENDROOT
BRANCH  10  14
HETATM   14  C           1     -10.172   5.808 -20.003  0.00  0.00     0.249 C 
HETATM   15  O           1      -8.982   5.980 -19.891  0.00  0.00    -0.271 OA
HETATM   16  N           1     -11.006   6.879 -20.180  0.00  0.00    -0.345 N 
HETATM   17  H           1     -12.003   6.735 -20.272  0.00  0.00     0.163 HD
BRANCH  16  18
HETATM   18  C           1     -10.460   8.221 -20.233  0.00  0.00     0.185 C 
BRANCH  18  19
HETATM   19  C           1     -11.044   8.960 -21.430  0.00  0.00     0.039 C 
BRANCH  19  20
HETATM   20 Se           1     -12.641   8.032 -22.052  0.00  0.00     0.000 Se
HETATM   21  H           1     -13.576   8.952 -21.383  0.00  0.00     0.000 HD
ENDBRANCH  19  20
ENDBRANCH  18  19
BRANCH  18  22
HETATM   22  C           1     -10.813   8.959 -18.964  0.00  0.00     0.196 C 
HETATM   23  O           1     -11.954   9.448 -18.823  0.00  0.00    -0.646 OA
HETATM   24  O           1      -9.963   9.081 -18.056  0.00  0.00    -0.646 OA
ENDBRANCH  18  22
ENDBRANCH  16  18
ENDBRANCH  10  14
TORSDOF 5
ENDMDL
MODEL 5
REMARK VINA RESULT:      -5.1      4.941      7.602
REMARK  5 active torsions:
REMARK  status: ('A' for Active; 'I' for Inactive)
REMARK       I    between atoms: C_8  and  N_9 
REMARK    1  A    between atoms: C_8  and  C_17 
REMARK    2  A    between atoms: N_9  and  C_10 
REMARK    3  A    between atoms: C_10  and  C_22 
REMARK    4  A    between atoms: C_10  and  C_11 
REMARK    5  A    between atoms: C_22  and  Se_23 
ROOT
HETATM    1  H           1     -20.947  -2.467  -6.565  0.00  0.00     0.274 HD
HETATM    2  H           1     -21.689  -3.907  -6.028  0.00  0.00     0.274 HD
HETATM    3  H           1     -22.488  -2.903  -7.152  0.00  0.00     0.274 HD
HETATM    4  N           1     -22.637  -5.375  -6.037  0.00  0.00    -0.067 N 
HETATM    5  C           1     -19.750  -5.481  -6.331  0.00  0.00     0.004 C 
HETATM    6  C           1     -19.562  -4.550  -7.520  0.00  0.00     0.027 C 
HETATM    7  C           1     -20.916  -4.020  -7.970  0.00  0.00     0.229 C 
HETATM    8  N           1     -21.559  -3.267  -6.844  0.00  0.00    -0.079 N 
HETATM    9  C           1     -20.642  -6.648  -6.735  0.00  0.00     0.042 C 
HETATM   10  C           1     -21.888  -6.662  -5.860  0.00  0.00     0.274 C 
HETATM   11  H           1     -22.024  -4.575  -5.759  0.00  0.00     0.275 HD
HETATM   12  H           1     -23.492  -5.385  -5.437  0.00  0.00     0.275 HD
HETATM   13  H           1     -22.916  -5.268  -7.039  0.00  0.00     0.275 HD
ENDROOT
BRANCH  10  14
HETATM   14  C           1     -21.486  -6.815  -4.413  0.00  0.00     0.249 C 
HETATM   15  O           1     -21.587  -5.879  -3.656  0.00  0.00    -0.271 OA
HETATM   16  N           1     -21.006  -8.014  -3.960  0.00  0.00    -0.345 N 
HETATM   17  H           1     -20.921  -8.798  -4.595  0.00  0.00     0.163 HD
BRANCH  16  18
HETATM   18  C           1     -20.620  -8.162  -2.570  0.00  0.00     0.185 C 
BRANCH  18  19
HETATM   19  C           1     -21.802  -8.688  -1.767  0.00  0.00     0.039 C 
BRANCH  19  20
HETATM   20 Se           1     -22.321  -7.368  -0.431  0.00  0.00     0.000 Se
HETATM   21  H           1     -22.533  -6.290  -1.412  0.00  0.00     0.000 HD
ENDBRANCH  19  20
ENDBRANCH  18  19
BRANCH  18  22
HETATM   22  C           1     -19.469  -9.134  -2.469  0.00  0.00     0.196 C 
HETATM   23  O           1     -18.451  -8.972  -3.175  0.00  0.00    -0.646 OA
HETATM   24  O           1     -19.536 -10.101  -1.680  0.00  0.00    -0.646 OA
ENDBRANCH  18  22
ENDBRANCH  16  18
ENDBRANCH  10  14
TORSDOF 5
ENDMDL
MODEL 6
REMARK VINA RESULT:      -4.8      6.961      9.687
REMARK  5 active torsions:
REMARK  status: ('A' for Active; 'I' for Inactive)
REMARK       I    between atoms: C_8  and  N_9 
REMARK    1  A    between atoms: C_8  and  C_17 
REMARK    2  A    between atoms: N_9  and  C_10 
REMARK    3  A    between atoms: C_10  and  C_22 
REMARK    4  A    between atoms: C_10  and  C_11 
REMARK    5  A    between atoms: C_22  and  Se_23 
ROOT
HETATM    1  H           1     -21.528  -8.755  -6.291  0.00  0.00     0.274 HD
HETATM    2  H           1     -21.006  -8.715  -4.667  0.00  0.00     0.274 HD
HETATM    3  H           1     -19.863  -8.823  -5.929  0.00  0.00     0.274 HD
HETATM    4  N           1     -20.034  -8.369  -3.257  0.00  0.00    -0.067 N 
HETATM    5  C           1     -22.375  -6.762  -3.864  0.00  0.00     0.004 C 
HETATM    6  C           1     -22.047  -6.328  -5.286  0.00  0.00     0.027 C 
HETATM    7  C           1     -20.707  -6.920  -5.703  0.00  0.00     0.229 C 
HETATM    8  N           1     -20.781  -8.417  -5.643  0.00  0.00    -0.079 N 
HETATM    9  C           1     -21.288  -6.271  -2.918  0.00  0.00     0.042 C 
HETATM   10  C           1     -20.639  -7.462  -2.226  0.00  0.00     0.274 C 
HETATM   11  H           1     -20.781  -8.706  -3.905  0.00  0.00     0.275 HD
HETATM   12  H           1     -19.588  -9.186  -2.782  0.00  0.00     0.275 HD
HETATM   13  H           1     -19.311  -7.846  -3.801  0.00  0.00     0.275 HD
ENDROOT
BRANCH  10  14
HETATM   14  C           1     -21.683  -8.219  -1.442  0.00  0.00     0.249 C 
HETATM   15  O           1     -22.441  -7.623  -0.713  0.00  0.00    -0.271 OA
HETATM   16  N           1     -21.770  -9.580  -1.556  0.00  0.00    -0.345 N 
HETATM   17  H           1     -21.135 -10.079  -2.165  0.00  0.00     0.163 HD
BRANCH  16  18
HETATM   18  C           1     -22.773 -10.308  -0.802  0.00  0.00     0.185 C 
BRANCH  18  19
HETATM   19  C           1     -23.536 -11.236  -1.737  0.00  0.00     0.039 C 
BRANCH  19  20
HETATM   20 Se           1     -22.601 -11.355  -3.443  0.00  0.00     0.000 Se
HETATM   21  H           1     -23.802 -11.084  -4.251  0.00  0.00     0.000 HD
ENDBRANCH  19  20
ENDBRANCH  18  19
BRANCH  18  22
HETATM   22  C           1     -22.099 -11.121   0.276  0.00  0.00     0.196 C 
HETATM   23  O           1     -22.535 -12.255   0.568  0.00  0.00    -0.646 OA
HETATM   24  O           1     -21.105 -10.659   0.878  0.00  0.00    -0.646 OA
ENDBRANCH  18  22
ENDBRANCH  16  18
ENDBRANCH  10  14
TORSDOF 5
ENDMDL
MODEL 7
REMARK VINA RESULT:      -4.8      3.593      6.085
REMARK  5 active torsions:
REMARK  status: ('A' for Active; 'I' for Inactive)
REMARK       I    between atoms: C_8  and  N_9 
REMARK    1  A    between atoms: C_8  and  C_17 
REMARK    2  A    between atoms: N_9  and  C_10 
REMARK    3  A    between atoms: C_10  and  C_22 
REMARK    4  A    between atoms: C_10  and  C_11 
REMARK    5  A    between atoms: C_22  and  Se_23 
ROOT
HETATM    1  H           1     -21.057  -5.712 -11.669  0.00  0.00     0.274 HD
HETATM    2  H           1     -21.180  -4.902 -10.172  0.00  0.00     0.274 HD
HETATM    3  H           1     -20.239  -4.235 -11.429  0.00  0.00     0.274 HD
HETATM    4  N           1     -21.285  -3.608  -9.003  0.00  0.00    -0.067 N 
HETATM    5  C           1     -23.676  -5.005  -9.877  0.00  0.00     0.004 C 
HETATM    6  C           1     -23.566  -4.820 -11.384  0.00  0.00     0.027 C 
HETATM    7  C           1     -22.305  -4.030 -11.708  0.00  0.00     0.229 C 
HETATM    8  N           1     -21.104  -4.776 -11.207  0.00  0.00    -0.079 N 
HETATM    9  C           1     -23.745  -3.642  -9.201  0.00  0.00     0.042 C 
HETATM   10  C           1     -22.572  -3.491  -8.241  0.00  0.00     0.274 C 
HETATM   11  H           1     -21.239  -4.544  -9.466  0.00  0.00     0.275 HD
HETATM   12  H           1     -20.481  -3.504  -8.344  0.00  0.00     0.275 HD
HETATM   13  H           1     -21.240  -2.857  -9.729  0.00  0.00     0.275 HD
ENDROOT
BRANCH  10  14
HETATM   14  C           1     -22.636  -4.575  -7.193  0.00  0.00     0.249 C 
HETATM   15  O           1     -23.665  -4.772  -6.590  0.00  0.00    -0.271 OA
HETATM   16  N           1     -21.529  -5.334  -6.926  0.00  0.00    -0.345 N 
HETATM   17  H           1     -20.668  -5.168  -7.431  0.00  0.00     0.163 HD
BRANCH  16  18
HETATM   18  C           1     -21.590  -6.376  -5.920  0.00  0.00     0.185 C 
BRANCH  18  19
HETATM   19  C           1     -20.579  -7.464  -6.253  0.00  0.00     0.039 C 
BRANCH  19  20
HETATM   20 Se           1     -20.933  -9.039  -5.161  0.00  0.00     0.000 Se
HETATM   21  H           1     -22.296  -9.237  -5.683  0.00  0.00     0.000 HD
ENDBRANCH  19  20
ENDBRANCH  18  19
BRANCH  18  22
HETATM   22  C           1     -21.270  -5.787  -4.567  0.00  0.00     0.196 C 
HETATM   23  O           1     -20.280  -5.037  -4.431  0.00  0.00    -0.646 OA
HETATM   24  O           1     -21.995  -6.051  -3.583  0.00  0.00    -0.646 OA
ENDBRANCH  18  22
ENDBRANCH  16  18
ENDBRANCH  10  14
TORSDOF 5
ENDMDL
MODEL 8
REMARK VINA RESULT:      -4.7      5.786      7.638
REMARK  5 active torsions:
REMARK  status: ('A' for Active; 'I' for Inactive)
REMARK       I    between atoms: C_8  and  N_9 
REMARK    1  A    between atoms: C_8  and  C_17 
REMARK    2  A    between atoms: N_9  and  C_10 
REMARK    3  A    between atoms: C_10  and  C_22 
REMARK    4  A    between atoms: C_10  and  C_11 
REMARK    5  A    between atoms: C_22  and  Se_23 
ROOT
HETATM    1  H           1     -15.072  -9.753  -5.965  0.00  0.00     0.274 HD
HETATM    2  H           1     -16.773  -9.796  -6.093  0.00  0.00     0.274 HD
HETATM    3  H           1     -15.823 -10.914  -6.964  0.00  0.00     0.274 HD
HETATM    4  N           1     -18.397 -10.418  -6.257  0.00  0.00    -0.067 N 
HETATM    5  C           1     -17.351  -9.699  -3.646  0.00  0.00     0.004 C 
HETATM    6  C           1     -16.086 -10.545  -3.616  0.00  0.00     0.027 C 
HETATM    7  C           1     -15.968 -11.329  -4.916  0.00  0.00     0.229 C 
HETATM    8  N           1     -15.904 -10.376  -6.072  0.00  0.00    -0.079 N 
HETATM    9  C           1     -18.565 -10.605  -3.803  0.00  0.00     0.042 C 
HETATM   10  C           1     -19.310 -10.240  -5.080  0.00  0.00     0.274 C 
HETATM   11  H           1     -17.565  -9.795  -6.149  0.00  0.00     0.275 HD
HETATM   12  H           1     -18.909 -10.168  -7.134  0.00  0.00     0.275 HD
HETATM   13  H           1     -18.084 -11.413  -6.309  0.00  0.00     0.275 HD
ENDROOT
BRANCH  10  14
HETATM   14  C           1     -19.762  -8.802  -5.006  0.00  0.00     0.249 C 
HETATM   15  O           1     -19.317  -7.988  -5.780  0.00  0.00    -0.271 OA
HETATM   16  N           1     -20.677  -8.421  -4.062  0.00  0.00    -0.345 N 
HETATM   17  H           1     -21.049  -9.103  -3.413  0.00  0.00     0.163 HD
BRANCH  16  18
HETATM   18  C           1     -21.112  -7.040  -3.990  0.00  0.00     0.185 C 
BRANCH  18  19
HETATM   19  C           1     -22.246  -6.813  -4.981  0.00  0.00     0.039 C 
BRANCH  19  20
HETATM   20 Se           1     -21.730  -5.432  -6.256  0.00  0.00     0.000 Se
HETATM   21  H           1     -21.159  -6.380  -7.228  0.00  0.00     0.000 HD
ENDBRANCH  19  20
ENDBRANCH  18  19
BRANCH  18  22
HETATM   22  C           1     -21.596  -6.737  -2.593  0.00  0.00     0.196 C 
HETATM   23  O           1     -22.487  -5.880  -2.412  0.00  0.00    -0.646 OA
HETATM   24  O           1     -21.104  -7.344  -1.617  0.00  0.00    -0.646 OA
ENDBRANCH  18  22
ENDBRANCH  16  18
ENDBRANCH  10  14
TORSDOF 5
ENDMDL
MODEL 9
REMARK VINA RESULT:      -4.7     17.510     19.490
REMARK  5 active torsions:
REMARK  status: ('A' for Active; 'I' for Inactive)
REMARK       I    between atoms: C_8  and  N_9 
REMARK    1  A    between atoms: C_8  and  C_17 
REMARK    2  A    between atoms: N_9  and  C_10 
REMARK    3  A    between atoms: C_10  and  C_22 
REMARK    4  A    between atoms: C_10  and  C_11 
REMARK    5  A    between atoms: C_22  and  Se_23 
ROOT
HETATM    1  H           1     -11.607   2.614 -19.632  0.00  0.00     0.274 HD
HETATM    2  H           1     -11.104   3.815 -20.736  0.00  0.00     0.274 HD
HETATM    3  H           1     -10.856   2.166 -21.096  0.00  0.00     0.274 HD
HETATM    4  N           1     -10.759   4.624 -22.245  0.00  0.00    -0.067 N 
HETATM    5  C           1     -13.203   5.202 -20.787  0.00  0.00     0.004 C 
HETATM    6  C           1     -13.780   3.800 -20.654  0.00  0.00     0.027 C 
HETATM    7  C           1     -12.841   2.799 -21.314  0.00  0.00     0.229 C 
HETATM    8  N           1     -11.501   2.852 -20.644  0.00  0.00    -0.079 N 
HETATM    9  C           1     -13.046   5.551 -22.261  0.00  0.00     0.042 C 
HETATM   10  C           1     -11.581   5.838 -22.562  0.00  0.00     0.274 C 
HETATM   11  H           1     -10.867   4.387 -21.232  0.00  0.00     0.275 HD
HETATM   12  H           1      -9.754   4.822 -22.452  0.00  0.00     0.275 HD
HETATM   13  H           1     -11.083   3.821 -22.828  0.00  0.00     0.275 HD
ENDROOT
BRANCH  10  14
HETATM   14  C           1     -11.112   6.999 -21.719  0.00  0.00     0.249 C 
HETATM   15  O           1     -10.036   6.952 -21.173  0.00  0.00    -0.271 OA
HETATM   16  N           1     -11.907   8.103 -21.573  0.00  0.00    -0.345 N 
HETATM   17  H           1     -12.809   8.142 -22.030  0.00  0.00     0.163 HD
BRANCH  16  18
HETATM   18  C           1     -11.457   9.218 -20.764  0.00  0.00     0.185 C 
BRANCH  18  19
HETATM   19  C           1     -12.132  10.497 -21.240  0.00  0.00     0.039 C 
BRANCH  19  20
HETATM   20 Se           1     -13.485  10.062 -22.573  0.00  0.00     0.000 Se
HETATM   21  H           1     -12.510   9.665 -23.602  0.00  0.00     0.000 HD
ENDBRANCH  19  20
ENDBRANCH  18  19
BRANCH  18  22
HETATM   22  C           1     -11.816   8.968 -19.319  0.00  0.00     0.196 C 
HETATM   23  O           1     -10.925   8.977 -18.443  0.00  0.00    -0.646 OA
HETATM   24  O           1     -13.005   8.750 -19.000  0.00  0.00    -0.646 OA
ENDBRANCH  18  22
ENDBRANCH  16  18
ENDBRANCH  10  14
TORSDOF 5
ENDMDL
