MODEL 1
REMARK VINA RESULT:      -7.6      0.000      0.000
REMARK  13 active torsions:
REMARK  status: ('A' for Active; 'I' for Inactive)
REMARK    1  A    between atoms: P_1  and  O_28 
REMARK    2  A    between atoms: P_1  and  O_2 
REMARK    3  A    between atoms: C_4  and  C_15 
REMARK    4  A    between atoms: C_7  and  C_24 
REMARK    5  A    between atoms: C_7  and  C_9 
REMARK    6  A    between atoms: N_8  and  C_24 
REMARK    7  A    between atoms: C_9  and  C_16 
REMARK    8  A    between atoms: C_15  and  C_20 
REMARK    9  A    between atoms: C_16  and  N_17 
REMARK   10  A    between atoms: C_20  and  C_29 
REMARK   11  A    between atoms: C_20  and  N_26 
REMARK       I    between atoms: C_23  and  N_26 
REMARK   12  A    between atoms: C_23  and  C_24 
REMARK   13  A    between atoms: C_25  and  O_28 
ROOT
HETATM    1  C           1     -32.400  -4.479 -16.278  0.00  0.00     0.189 C 
ENDROOT
BRANCH   1   2
HETATM    2  C           1     -32.009  -5.754 -17.014  0.00  0.00     0.074 C 
BRANCH   2   3
HETATM    3  C           1     -30.651  -6.194 -16.562  0.00  0.00    -0.056 A 
HETATM    4  C           1     -30.039  -5.566 -15.478  0.00  0.00     0.010 A 
HETATM    5  C           1     -28.774  -5.977 -15.058  0.00  0.00     0.038 A 
HETATM    6  C           1     -28.120  -7.014 -15.724  0.00  0.00     0.081 A 
HETATM    7  C           1     -28.733  -7.641 -16.808  0.00  0.00     0.038 A 
HETATM    8  C           1     -29.998  -7.231 -17.228  0.00  0.00     0.010 A 
BRANCH   6   9
HETATM    9  O           1     -26.891  -7.412 -15.315  0.00  0.00    -0.247 OA
BRANCH   9  10
HETATM   10  P           1     -25.603  -6.699 -15.979  0.00  0.00     0.411 P 
HETATM   11  O           1     -26.016  -5.975 -17.202  0.00  0.00    -0.624 OA
HETATM   12  O           1     -24.597  -7.726 -16.331  0.00  0.00    -0.624 OA
BRANCH  10  13
HETATM   13  O           1     -24.964  -5.655 -14.926  0.00  0.00    -0.300 OA
HETATM   14  H           1     -25.281  -5.933 -14.084  0.00  0.00     0.223 HD
ENDBRANCH  10  13
ENDBRANCH   9  10
ENDBRANCH   6   9
ENDBRANCH   2   3
ENDBRANCH   1   2
BRANCH   1  15
HETATM   15  C           1     -32.386  -3.317 -17.241  0.00  0.00     0.197 C 
HETATM   16  O           1     -31.302  -2.901 -17.702  0.00  0.00    -0.646 OA
HETATM   17  O           1     -33.459  -2.772 -17.578  0.00  0.00    -0.646 OA
ENDBRANCH   1  15
BRANCH   1  18
HETATM   18  N           1     -33.732  -4.630 -15.724  0.00  0.00    -0.344 N 
HETATM   19  H           1     -34.409  -5.222 -16.187  0.00  0.00     0.163 HD
HETATM   20  C           1     -34.072  -3.972 -14.573  0.00  0.00     0.249 C 
HETATM   21  O           1     -34.551  -2.865 -14.630  0.00  0.00    -0.271 OA
BRANCH  20  22
HETATM   22  C           1     -33.850  -4.631 -13.233  0.00  0.00     0.274 C 
BRANCH  22  23
HETATM   23  C           1     -34.697  -3.933 -12.177  0.00  0.00     0.044 C 
BRANCH  23  24
HETATM   24  C           1     -33.851  -3.675 -10.937  0.00  0.00     0.030 C 
BRANCH  24  25
HETATM   25  C           1     -33.967  -2.210 -10.538  0.00  0.00     0.230 C 
BRANCH  25  26
HETATM   26  N           1     -34.368  -1.396 -11.732  0.00  0.00    -0.079 N 
HETATM   27  H           1     -35.411  -1.367 -11.800  0.00  0.00     0.274 HD
HETATM   28  H           1     -33.998  -0.423 -11.633  0.00  0.00     0.274 HD
HETATM   29  H           1     -33.974  -1.830 -12.598  0.00  0.00     0.274 HD
ENDBRANCH  25  26
ENDBRANCH  24  25
ENDBRANCH  23  24
ENDBRANCH  22  23
BRANCH  22  30
HETATM   30  N           1     -32.401  -4.527 -12.860  0.00  0.00    -0.067 N 
HETATM   31  H           1     -31.989  -3.675 -13.301  0.00  0.00     0.275 HD
HETATM   32  H           1     -31.893  -5.375 -13.198  0.00  0.00     0.275 HD
HETATM   33  H           1     -32.313  -4.461 -11.821  0.00  0.00     0.275 HD
ENDBRANCH  22  30
ENDBRANCH  20  22
ENDBRANCH   1  18
TORSDOF 13
ENDMDL
MODEL 2
REMARK VINA RESULT:      -7.2     10.698     13.221
REMARK  13 active torsions:
REMARK  status: ('A' for Active; 'I' for Inactive)
REMARK    1  A    between atoms: P_1  and  O_28 
REMARK    2  A    between atoms: P_1  and  O_2 
REMARK    3  A    between atoms: C_4  and  C_15 
REMARK    4  A    between atoms: C_7  and  C_24 
REMARK    5  A    between atoms: C_7  and  C_9 
REMARK    6  A    between atoms: N_8  and  C_24 
REMARK    7  A    between atoms: C_9  and  C_16 
REMARK    8  A    between atoms: C_15  and  C_20 
REMARK    9  A    between atoms: C_16  and  N_17 
REMARK   10  A    between atoms: C_20  and  C_29 
REMARK   11  A    between atoms: C_20  and  N_26 
REMARK       I    between atoms: C_23  and  N_26 
REMARK   12  A    between atoms: C_23  and  C_24 
REMARK   13  A    between atoms: C_25  and  O_28 
ROOT
HETATM    1  C           1     -21.582  -5.543  -6.625  0.00  0.00     0.189 C 
ENDROOT
BRANCH   1   2
HETATM    2  C           1     -21.956  -4.153  -7.123  0.00  0.00     0.074 C 
BRANCH   2   3
HETATM    3  C           1     -22.405  -4.236  -8.548  0.00  0.00    -0.056 A 
HETATM    4  C           1     -23.759  -4.122  -8.861  0.00  0.00     0.010 A 
HETATM    5  C           1     -24.176  -4.200 -10.190  0.00  0.00     0.038 A 
HETATM    6  C           1     -23.239  -4.392 -11.205  0.00  0.00     0.081 A 
HETATM    7  C           1     -21.885  -4.506 -10.892  0.00  0.00     0.038 A 
HETATM    8  C           1     -21.468  -4.429  -9.563  0.00  0.00     0.010 A 
BRANCH   6   9
HETATM    9  O           1     -23.645  -4.468 -12.496  0.00  0.00    -0.247 OA
BRANCH   9  10
HETATM   10  P           1     -23.812  -3.090 -13.321  0.00  0.00     0.411 P 
HETATM   11  O           1     -22.864  -2.082 -12.796  0.00  0.00    -0.624 OA
HETATM   12  O           1     -25.197  -2.589 -13.168  0.00  0.00    -0.624 OA
BRANCH  10  13
HETATM   13  O           1     -23.503  -3.356 -14.883  0.00  0.00    -0.300 OA
HETATM   14  H           1     -23.509  -4.293 -14.977  0.00  0.00     0.223 HD
ENDBRANCH  10  13
ENDBRANCH   9  10
ENDBRANCH   6   9
ENDBRANCH   2   3
ENDBRANCH   1   2
BRANCH   1  15
HETATM   15  C           1     -20.094  -5.609  -6.385  0.00  0.00     0.197 C 
HETATM   16  O           1     -19.497  -4.629  -5.890  0.00  0.00    -0.646 OA
HETATM   17  O           1     -19.459  -6.644  -6.681  0.00  0.00    -0.646 OA
ENDBRANCH   1  15
BRANCH   1  18
HETATM   18  N           1     -22.284  -5.818  -5.387  0.00  0.00    -0.344 N 
HETATM   19  H           1     -23.245  -5.524  -5.274  0.00  0.00     0.163 HD
HETATM   20  C           1     -21.645  -6.477  -4.371  0.00  0.00     0.249 C 
HETATM   21  O           1     -21.039  -5.853  -3.534  0.00  0.00    -0.271 OA
BRANCH  20  22
HETATM   22  C           1     -21.701  -7.984  -4.297  0.00  0.00     0.274 C 
BRANCH  22  23
HETATM   23  C           1     -20.817  -8.469  -3.155  0.00  0.00     0.044 C 
BRANCH  23  24
HETATM   24  C           1     -21.692  -8.974  -2.015  0.00  0.00     0.030 C 
BRANCH  24  25
HETATM   25  C           1     -21.476  -8.103  -0.785  0.00  0.00     0.230 C 
BRANCH  25  26
HETATM   26  N           1     -22.336  -6.879  -0.881  0.00  0.00    -0.079 N 
HETATM   27  H           1     -21.830  -6.064  -0.465  0.00  0.00     0.274 HD
HETATM   28  H           1     -22.551  -6.680  -1.884  0.00  0.00     0.274 HD
HETATM   29  H           1     -23.228  -7.038  -0.360  0.00  0.00     0.274 HD
ENDBRANCH  25  26
ENDBRANCH  24  25
ENDBRANCH  23  24
ENDBRANCH  22  23
BRANCH  22  30
HETATM   30  N           1     -21.212  -8.566  -5.589  0.00  0.00    -0.067 N 
HETATM   31  H           1     -20.874  -7.797  -6.211  0.00  0.00     0.275 HD
HETATM   32  H           1     -21.993  -9.076  -6.059  0.00  0.00     0.275 HD
HETATM   33  H           1     -20.429  -9.230  -5.398  0.00  0.00     0.275 HD
ENDBRANCH  22  30
ENDBRANCH  20  22
ENDBRANCH   1  18
TORSDOF 13
ENDMDL
MODEL 3
REMARK VINA RESULT:      -7.1     11.959     14.285
REMARK  13 active torsions:
REMARK  status: ('A' for Active; 'I' for Inactive)
REMARK    1  A    between atoms: P_1  and  O_28 
REMARK    2  A    between atoms: P_1  and  O_2 
REMARK    3  A    between atoms: C_4  and  C_15 
REMARK    4  A    between atoms: C_7  and  C_24 
REMARK    5  A    between atoms: C_7  and  C_9 
REMARK    6  A    between atoms: N_8  and  C_24 
REMARK    7  A    between atoms: C_9  and  C_16 
REMARK    8  A    between atoms: C_15  and  C_20 
REMARK    9  A    between atoms: C_16  and  N_17 
REMARK   10  A    between atoms: C_20  and  C_29 
REMARK   11  A    between atoms: C_20  and  N_26 
REMARK       I    between atoms: C_23  and  N_26 
REMARK   12  A    between atoms: C_23  and  C_24 
REMARK   13  A    between atoms: C_25  and  O_28 
ROOT
HETATM    1  C           1     -21.589  -6.821  -5.473  0.00  0.00     0.189 C 
ENDROOT
BRANCH   1   2
HETATM    2  C           1     -20.611  -5.720  -5.864  0.00  0.00     0.074 C 
BRANCH   2   3
HETATM    3  C           1     -21.070  -5.073  -7.133  0.00  0.00    -0.056 A 
HETATM    4  C           1     -22.316  -4.450  -7.188  0.00  0.00     0.010 A 
HETATM    5  C           1     -22.743  -3.847  -8.371  0.00  0.00     0.038 A 
HETATM    6  C           1     -21.924  -3.868  -9.500  0.00  0.00     0.081 A 
HETATM    7  C           1     -20.677  -4.492  -9.444  0.00  0.00     0.038 A 
HETATM    8  C           1     -20.250  -5.094  -8.262  0.00  0.00     0.010 A 
BRANCH   6   9
HETATM    9  O           1     -22.339  -3.283 -10.649  0.00  0.00    -0.247 OA
BRANCH   9  10
HETATM   10  P           1     -23.600  -3.934 -11.420  0.00  0.00     0.411 P 
HETATM   11  O           1     -24.829  -3.184 -11.078  0.00  0.00    -0.624 OA
HETATM   12  O           1     -23.753  -5.347 -11.006  0.00  0.00    -0.624 OA
BRANCH  10  13
HETATM   13  O           1     -23.351  -3.862 -13.015  0.00  0.00    -0.300 OA
HETATM   14  H           1     -23.302  -4.760 -13.294  0.00  0.00     0.223 HD
ENDBRANCH  10  13
ENDBRANCH   9  10
ENDBRANCH   6   9
ENDBRANCH   2   3
ENDBRANCH   1   2
BRANCH   1  15
HETATM   15  C           1     -20.825  -8.083  -5.155  0.00  0.00     0.197 C 
HETATM   16  O           1     -19.592  -8.036  -4.961  0.00  0.00    -0.646 OA
HETATM   17  O           1     -21.427  -9.177  -5.086  0.00  0.00    -0.646 OA
ENDBRANCH   1  15
BRANCH   1  18
HETATM   18  N           1     -22.342  -6.406  -4.305  0.00  0.00    -0.344 N 
HETATM   19  H           1     -23.328  -6.194  -4.388  0.00  0.00     0.163 HD
HETATM   20  C           1     -21.719  -6.302  -3.091  0.00  0.00     0.249 C 
HETATM   21  O           1     -21.213  -5.257  -2.760  0.00  0.00    -0.271 OA
BRANCH  20  22
HETATM   22  C           1     -21.667  -7.494  -2.166  0.00  0.00     0.274 C 
BRANCH  22  23
HETATM   23  C           1     -22.385  -7.159  -0.865  0.00  0.00     0.044 C 
BRANCH  23  24
HETATM   24  C           1     -22.080  -8.229   0.174  0.00  0.00     0.030 C 
BRANCH  24  25
HETATM   25  C           1     -22.997  -9.425  -0.042  0.00  0.00     0.230 C 
BRANCH  25  26
HETATM   26  N           1     -22.181 -10.682  -0.081  0.00  0.00    -0.079 N 
HETATM   27  H           1     -22.743 -11.449  -0.516  0.00  0.00     0.274 HD
HETATM   28  H           1     -21.317 -10.521  -0.646  0.00  0.00     0.274 HD
HETATM   29  H           1     -21.914 -10.954   0.892  0.00  0.00     0.274 HD
ENDBRANCH  25  26
ENDBRANCH  24  25
ENDBRANCH  23  24
ENDBRANCH  22  23
BRANCH  22  30
HETATM   30  N           1     -20.237  -7.836  -1.873  0.00  0.00    -0.067 N 
HETATM   31  H           1     -19.624  -7.438  -2.619  0.00  0.00     0.275 HD
HETATM   32  H           1     -20.125  -8.875  -1.847  0.00  0.00     0.275 HD
HETATM   33  H           1     -19.965  -7.435  -0.947  0.00  0.00     0.275 HD
ENDBRANCH  22  30
ENDBRANCH  20  22
ENDBRANCH   1  18
TORSDOF 13
ENDMDL
MODEL 4
REMARK VINA RESULT:      -7.0     12.010     14.354
REMARK  13 active torsions:
REMARK  status: ('A' for Active; 'I' for Inactive)
REMARK    1  A    between atoms: P_1  and  O_28 
REMARK    2  A    between atoms: P_1  and  O_2 
REMARK    3  A    between atoms: C_4  and  C_15 
REMARK    4  A    between atoms: C_7  and  C_24 
REMARK    5  A    between atoms: C_7  and  C_9 
REMARK    6  A    between atoms: N_8  and  C_24 
REMARK    7  A    between atoms: C_9  and  C_16 
REMARK    8  A    between atoms: C_15  and  C_20 
REMARK    9  A    between atoms: C_16  and  N_17 
REMARK   10  A    between atoms: C_20  and  C_29 
REMARK   11  A    between atoms: C_20  and  N_26 
REMARK       I    between atoms: C_23  and  N_26 
REMARK   12  A    between atoms: C_23  and  C_24 
REMARK   13  A    between atoms: C_25  and  O_28 
ROOT
HETATM    1  C           1     -21.585  -7.003  -5.422  0.00  0.00     0.189 C 
ENDROOT
BRANCH   1   2
HETATM    2  C           1     -20.565  -5.951  -5.837  0.00  0.00     0.074 C 
BRANCH   2   3
HETATM    3  C           1     -21.051  -5.240  -7.061  0.00  0.00    -0.056 A 
HETATM    4  C           1     -20.235  -5.156  -8.189  0.00  0.00     0.010 A 
HETATM    5  C           1     -20.689  -4.493  -9.329  0.00  0.00     0.038 A 
HETATM    6  C           1     -21.958  -3.913  -9.341  0.00  0.00     0.081 A 
HETATM    7  C           1     -22.773  -3.998  -8.213  0.00  0.00     0.038 A 
HETATM    8  C           1     -22.320  -4.661  -7.073  0.00  0.00     0.010 A 
BRANCH   6   9
HETATM    9  O           1     -22.398  -3.269 -10.450  0.00  0.00    -0.247 OA
BRANCH   9  10
HETATM   10  P           1     -23.684  -3.873 -11.216  0.00  0.00     0.411 P 
HETATM   11  O           1     -23.759  -5.332 -10.983  0.00  0.00    -0.624 OA
HETATM   12  O           1     -23.560  -3.611 -12.668  0.00  0.00    -0.624 OA
BRANCH  10  13
HETATM   13  O           1     -25.025  -3.168 -10.654  0.00  0.00    -0.300 OA
HETATM   14  H           1     -24.833  -2.246 -10.651  0.00  0.00     0.223 HD
ENDBRANCH  10  13
ENDBRANCH   9  10
ENDBRANCH   6   9
ENDBRANCH   2   3
ENDBRANCH   1   2
BRANCH   1  15
HETATM   15  C           1     -20.871  -8.280  -5.054  0.00  0.00     0.197 C 
HETATM   16  O           1     -19.634  -8.276  -4.878  0.00  0.00    -0.646 OA
HETATM   17  O           1     -21.517  -9.343  -4.925  0.00  0.00    -0.646 OA
ENDBRANCH   1  15
BRANCH   1  18
HETATM   18  N           1     -22.337  -6.524  -4.278  0.00  0.00    -0.344 N 
HETATM   19  H           1     -23.321  -6.309  -4.373  0.00  0.00     0.163 HD
HETATM   20  C           1     -21.714  -6.362  -3.070  0.00  0.00     0.249 C 
HETATM   21  O           1     -21.200  -5.306  -2.792  0.00  0.00    -0.271 OA
BRANCH  20  22
HETATM   22  C           1     -21.671  -7.505  -2.085  0.00  0.00     0.274 C 
BRANCH  22  23
HETATM   23  C           1     -22.377  -7.095  -0.800  0.00  0.00     0.044 C 
BRANCH  23  24
HETATM   24  C           1     -22.170  -8.169   0.260  0.00  0.00     0.030 C 
BRANCH  24  25
HETATM   25  C           1     -23.051  -9.371  -0.055  0.00  0.00     0.230 C 
BRANCH  25  26
HETATM   26  N           1     -22.214 -10.615  -0.068  0.00  0.00    -0.079 N 
HETATM   27  H           1     -21.849 -10.780  -1.034  0.00  0.00     0.274 HD
HETATM   28  H           1     -21.412 -10.505   0.593  0.00  0.00     0.274 HD
HETATM   29  H           1     -22.798 -11.430   0.227  0.00  0.00     0.274 HD
ENDBRANCH  25  26
ENDBRANCH  24  25
ENDBRANCH  23  24
ENDBRANCH  22  23
BRANCH  22  30
HETATM   30  N           1     -20.244  -7.850  -1.782  0.00  0.00    -0.067 N 
HETATM   31  H           1     -19.619  -7.100  -2.153  0.00  0.00     0.275 HD
HETATM   32  H           1     -20.001  -8.761  -2.234  0.00  0.00     0.275 HD
HETATM   33  H           1     -20.116  -7.931  -0.748  0.00  0.00     0.275 HD
ENDBRANCH  22  30
ENDBRANCH  20  22
ENDBRANCH   1  18
TORSDOF 13
ENDMDL
MODEL 5
REMARK VINA RESULT:      -6.6     12.083     14.531
REMARK  13 active torsions:
REMARK  status: ('A' for Active; 'I' for Inactive)
REMARK    1  A    between atoms: P_1  and  O_28 
REMARK    2  A    between atoms: P_1  and  O_2 
REMARK    3  A    between atoms: C_4  and  C_15 
REMARK    4  A    between atoms: C_7  and  C_24 
REMARK    5  A    between atoms: C_7  and  C_9 
REMARK    6  A    between atoms: N_8  and  C_24 
REMARK    7  A    between atoms: C_9  and  C_16 
REMARK    8  A    between atoms: C_15  and  C_20 
REMARK    9  A    between atoms: C_16  and  N_17 
REMARK   10  A    between atoms: C_20  and  C_29 
REMARK   11  A    between atoms: C_20  and  N_26 
REMARK       I    between atoms: C_23  and  N_26 
REMARK   12  A    between atoms: C_23  and  C_24 
REMARK   13  A    between atoms: C_25  and  O_28 
ROOT
HETATM    1  C           1     -20.653  -4.759  -6.723  0.00  0.00     0.189 C 
ENDROOT
BRANCH   1   2
HETATM    2  C           1     -21.220  -6.171  -6.656  0.00  0.00     0.074 C 
BRANCH   2   3
HETATM    3  C           1     -21.016  -6.726  -5.281  0.00  0.00    -0.056 A 
HETATM    4  C           1     -21.488  -6.028  -4.170  0.00  0.00     0.010 A 
HETATM    5  C           1     -21.297  -6.546  -2.889  0.00  0.00     0.038 A 
HETATM    6  C           1     -20.634  -7.762  -2.719  0.00  0.00     0.081 A 
HETATM    7  C           1     -20.163  -8.459  -3.831  0.00  0.00     0.038 A 
HETATM    8  C           1     -20.353  -7.942  -5.112  0.00  0.00     0.010 A 
BRANCH   6   9
HETATM    9  O           1     -20.449  -8.265  -1.474  0.00  0.00    -0.247 OA
BRANCH   9  10
HETATM   10  P           1     -21.720  -8.922  -0.726  0.00  0.00     0.411 P 
HETATM   11  O           1     -22.368  -9.904  -1.623  0.00  0.00    -0.624 OA
HETATM   12  O           1     -22.689  -7.860  -0.376  0.00  0.00    -0.624 OA
BRANCH  10  13
HETATM   13  O           1     -21.225  -9.667   0.620  0.00  0.00    -0.300 OA
HETATM   14  H           1     -20.310  -9.459   0.691  0.00  0.00     0.223 HD
ENDBRANCH  10  13
ENDBRANCH   9  10
ENDBRANCH   6   9
ENDBRANCH   2   3
ENDBRANCH   1   2
BRANCH   1  15
HETATM   15  C           1     -19.588  -4.694  -7.790  0.00  0.00     0.197 C 
HETATM   16  O           1     -19.840  -5.085  -8.950  0.00  0.00    -0.646 OA
HETATM   17  O           1     -18.453  -4.248  -7.514  0.00  0.00    -0.646 OA
ENDBRANCH   1  15
BRANCH   1  18
HETATM   18  N           1     -21.716  -3.826  -7.044  0.00  0.00    -0.344 N 
HETATM   19  H           1     -21.562  -2.831  -6.948  0.00  0.00     0.163 HD
HETATM   20  C           1     -22.928  -4.292  -7.478  0.00  0.00     0.249 C 
HETATM   21  O           1     -23.799  -4.541  -6.680  0.00  0.00    -0.271 OA
BRANCH  20  22
HETATM   22  C           1     -23.173  -4.495  -8.953  0.00  0.00     0.274 C 
BRANCH  22  23
HETATM   23  C           1     -22.427  -3.428  -9.744  0.00  0.00     0.044 C 
BRANCH  23  24
HETATM   24  C           1     -22.961  -3.385 -11.169  0.00  0.00     0.030 C 
BRANCH  24  25
HETATM   25  C           1     -21.828  -3.667 -12.146  0.00  0.00     0.230 C 
BRANCH  25  26
HETATM   26  N           1     -20.513  -3.550 -11.435  0.00  0.00    -0.079 N 
HETATM   27  H           1     -19.855  -2.979 -12.012  0.00  0.00     0.274 HD
HETATM   28  H           1     -20.656  -3.089 -10.508  0.00  0.00     0.274 HD
HETATM   29  H           1     -20.111  -4.504 -11.289  0.00  0.00     0.274 HD
ENDBRANCH  25  26
ENDBRANCH  24  25
ENDBRANCH  23  24
ENDBRANCH  22  23
BRANCH  22  30
HETATM   30  N           1     -24.642  -4.388  -9.234  0.00  0.00    -0.067 N 
HETATM   31  H           1     -25.031  -5.340  -9.418  0.00  0.00     0.275 HD
HETATM   32  H           1     -24.794  -3.783 -10.072  0.00  0.00     0.275 HD
HETATM   33  H           1     -25.125  -3.966  -8.409  0.00  0.00     0.275 HD
ENDBRANCH  22  30
ENDBRANCH  20  22
ENDBRANCH   1  18
TORSDOF 13
ENDMDL
MODEL 6
REMARK VINA RESULT:      -6.3     13.510     15.864
REMARK  13 active torsions:
REMARK  status: ('A' for Active; 'I' for Inactive)
REMARK    1  A    between atoms: P_1  and  O_28 
REMARK    2  A    between atoms: P_1  and  O_2 
REMARK    3  A    between atoms: C_4  and  C_15 
REMARK    4  A    between atoms: C_7  and  C_24 
REMARK    5  A    between atoms: C_7  and  C_9 
REMARK    6  A    between atoms: N_8  and  C_24 
REMARK    7  A    between atoms: C_9  and  C_16 
REMARK    8  A    between atoms: C_15  and  C_20 
REMARK    9  A    between atoms: C_16  and  N_17 
REMARK   10  A    between atoms: C_20  and  C_29 
REMARK   11  A    between atoms: C_20  and  N_26 
REMARK       I    between atoms: C_23  and  N_26 
REMARK   12  A    between atoms: C_23  and  C_24 
REMARK   13  A    between atoms: C_25  and  O_28 
ROOT
HETATM    1  C           1     -21.298  -7.699  -2.290  0.00  0.00     0.189 C 
ENDROOT
BRANCH   1   2
HETATM    2  C           1     -19.860  -8.180  -2.147  0.00  0.00     0.074 C 
BRANCH   2   3
HETATM    3  C           1     -19.620  -9.323  -3.083  0.00  0.00    -0.056 A 
HETATM    4  C           1     -18.718  -9.184  -4.137  0.00  0.00     0.010 A 
HETATM    5  C           1     -18.495 -10.249  -5.010  0.00  0.00     0.038 A 
HETATM    6  C           1     -19.175 -11.454  -4.828  0.00  0.00     0.081 A 
HETATM    7  C           1     -20.077 -11.592  -3.773  0.00  0.00     0.038 A 
HETATM    8  C           1     -20.300 -10.528  -2.901  0.00  0.00     0.010 A 
BRANCH   6   9
HETATM    9  O           1     -18.958 -12.489  -5.676  0.00  0.00    -0.247 OA
BRANCH   9  10
HETATM   10  P           1     -19.735 -12.485  -7.091  0.00  0.00     0.411 P 
HETATM   11  O           1     -20.106 -13.870  -7.455  0.00  0.00    -0.624 OA
HETATM   12  O           1     -18.852 -11.920  -8.137  0.00  0.00    -0.624 OA
BRANCH  10  13
HETATM   13  O           1     -21.071 -11.585  -6.969  0.00  0.00    -0.300 OA
HETATM   14  H           1     -20.902 -10.824  -7.498  0.00  0.00     0.223 HD
ENDBRANCH  10  13
ENDBRANCH   9  10
ENDBRANCH   6   9
ENDBRANCH   2   3
ENDBRANCH   1   2
BRANCH   1  15
HETATM   15  C           1     -21.933  -7.596  -0.925  0.00  0.00     0.197 C 
HETATM   16  O           1     -22.861  -6.783  -0.727  0.00  0.00    -0.646 OA
HETATM   17  O           1     -21.531  -8.324   0.008  0.00  0.00    -0.646 OA
ENDBRANCH   1  15
BRANCH   1  18
HETATM   18  N           1     -21.311  -6.397  -2.928  0.00  0.00    -0.344 N 
HETATM   19  H           1     -21.062  -5.572  -2.399  0.00  0.00     0.163 HD
HETATM   20  C           1     -21.658  -6.286  -4.248  0.00  0.00     0.249 C 
HETATM   21  O           1     -22.812  -6.111  -4.555  0.00  0.00    -0.271 OA
BRANCH  20  22
HETATM   22  C           1     -20.597  -6.380  -5.317  0.00  0.00     0.274 C 
BRANCH  22  23
HETATM   23  C           1     -20.414  -5.018  -5.972  0.00  0.00     0.044 C 
BRANCH  23  24
HETATM   24  C           1     -20.987  -5.050  -7.383  0.00  0.00     0.030 C 
BRANCH  24  25
HETATM   25  C           1     -22.008  -3.932  -7.543  0.00  0.00     0.230 C 
BRANCH  25  26
HETATM   26  N           1     -23.370  -4.440  -7.173  0.00  0.00    -0.079 N 
HETATM   27  H           1     -23.384  -4.690  -6.158  0.00  0.00     0.274 HD
HETATM   28  H           1     -24.082  -3.698  -7.360  0.00  0.00     0.274 HD
HETATM   29  H           1     -23.592  -5.287  -7.744  0.00  0.00     0.274 HD
ENDBRANCH  25  26
ENDBRANCH  24  25
ENDBRANCH  23  24
ENDBRANCH  22  23
BRANCH  22  30
HETATM   30  N           1     -21.019  -7.379  -6.352  0.00  0.00    -0.067 N 
HETATM   31  H           1     -21.207  -8.298  -5.892  0.00  0.00     0.275 HD
HETATM   32  H           1     -20.258  -7.493  -7.059  0.00  0.00     0.275 HD
HETATM   33  H           1     -21.887  -7.043  -6.829  0.00  0.00     0.275 HD
ENDBRANCH  22  30
ENDBRANCH  20  22
ENDBRANCH   1  18
TORSDOF 13
ENDMDL
MODEL 7
REMARK VINA RESULT:      -6.1     14.321     16.650
REMARK  13 active torsions:
REMARK  status: ('A' for Active; 'I' for Inactive)
REMARK    1  A    between atoms: P_1  and  O_28 
REMARK    2  A    between atoms: P_1  and  O_2 
REMARK    3  A    between atoms: C_4  and  C_15 
REMARK    4  A    between atoms: C_7  and  C_24 
REMARK    5  A    between atoms: C_7  and  C_9 
REMARK    6  A    between atoms: N_8  and  C_24 
REMARK    7  A    between atoms: C_9  and  C_16 
REMARK    8  A    between atoms: C_15  and  C_20 
REMARK    9  A    between atoms: C_16  and  N_17 
REMARK   10  A    between atoms: C_20  and  C_29 
REMARK   11  A    between atoms: C_20  and  N_26 
REMARK       I    between atoms: C_23  and  N_26 
REMARK   12  A    between atoms: C_23  and  C_24 
REMARK   13  A    between atoms: C_25  and  O_28 
ROOT
HETATM    1  C           1     -20.573  -8.554  -3.536  0.00  0.00     0.189 C 
ENDROOT
BRANCH   1   2
HETATM    2  C           1     -19.392  -8.800  -2.606  0.00  0.00     0.074 C 
BRANCH   2   3
HETATM    3  C           1     -18.221  -9.284  -3.404  0.00  0.00    -0.056 A 
HETATM    4  C           1     -18.354  -9.500  -4.775  0.00  0.00     0.010 A 
HETATM    5  C           1     -17.262  -9.951  -5.517  0.00  0.00     0.038 A 
HETATM    6  C           1     -16.039 -10.186  -4.889  0.00  0.00     0.081 A 
HETATM    7  C           1     -15.908  -9.968  -3.517  0.00  0.00     0.038 A 
HETATM    8  C           1     -16.999  -9.518  -2.774  0.00  0.00     0.010 A 
BRANCH   6   9
HETATM    9  O           1     -14.979 -10.623  -5.611  0.00  0.00    -0.247 OA
BRANCH   9  10
HETATM   10  P           1     -14.567 -12.180  -5.485  0.00  0.00     0.411 P 
HETATM   11  O           1     -13.836 -12.597  -6.702  0.00  0.00    -0.624 OA
HETATM   12  O           1     -15.788 -13.002  -5.337  0.00  0.00    -0.624 OA
BRANCH  10  13
HETATM   13  O           1     -13.619 -12.383  -4.193  0.00  0.00    -0.300 OA
HETATM   14  H           1     -13.117 -11.588  -4.132  0.00  0.00     0.223 HD
ENDBRANCH  10  13
ENDBRANCH   9  10
ENDBRANCH   6   9
ENDBRANCH   2   3
ENDBRANCH   1   2
BRANCH   1  15
HETATM   15  C           1     -21.757  -9.367  -3.073  0.00  0.00     0.197 C 
HETATM   16  O           1     -22.336 -10.138  -3.868  0.00  0.00    -0.646 OA
HETATM   17  O           1     -22.159  -9.270  -1.893  0.00  0.00    -0.646 OA
ENDBRANCH   1  15
BRANCH   1  18
HETATM   18  N           1     -20.918  -7.145  -3.516  0.00  0.00    -0.344 N 
HETATM   19  H           1     -20.841  -6.617  -2.657  0.00  0.00     0.163 HD
HETATM   20  C           1     -21.347  -6.530  -4.662  0.00  0.00     0.249 C 
HETATM   21  O           1     -22.525  -6.504  -4.928  0.00  0.00    -0.271 OA
BRANCH  20  22
HETATM   22  C           1     -20.348  -5.886  -5.591  0.00  0.00     0.274 C 
BRANCH  22  23
HETATM   23  C           1     -20.913  -4.570  -6.111  0.00  0.00     0.044 C 
BRANCH  23  24
HETATM   24  C           1     -21.021  -4.627  -7.629  0.00  0.00     0.030 C 
BRANCH  24  25
HETATM   25  C           1     -22.331  -3.990  -8.070  0.00  0.00     0.230 C 
BRANCH  25  26
HETATM   26  N           1     -23.439  -4.446  -7.169  0.00  0.00    -0.079 N 
HETATM   27  H           1     -24.291  -3.868  -7.344  0.00  0.00     0.274 HD
HETATM   28  H           1     -23.654  -5.451  -7.360  0.00  0.00     0.274 HD
HETATM   29  H           1     -23.143  -4.338  -6.172  0.00  0.00     0.274 HD
ENDBRANCH  25  26
ENDBRANCH  24  25
ENDBRANCH  23  24
ENDBRANCH  22  23
BRANCH  22  30
HETATM   30  N           1     -20.076  -6.803  -6.746  0.00  0.00    -0.067 N 
HETATM   31  H           1     -20.284  -6.307  -7.641  0.00  0.00     0.275 HD
HETATM   32  H           1     -20.681  -7.651  -6.668  0.00  0.00     0.275 HD
HETATM   33  H           1     -19.071  -7.091  -6.732  0.00  0.00     0.275 HD
ENDBRANCH  22  30
ENDBRANCH  20  22
ENDBRANCH   1  18
TORSDOF 13
ENDMDL
MODEL 8
REMARK VINA RESULT:      -6.0     12.936     15.336
REMARK  13 active torsions:
REMARK  status: ('A' for Active; 'I' for Inactive)
REMARK    1  A    between atoms: P_1  and  O_28 
REMARK    2  A    between atoms: P_1  and  O_2 
REMARK    3  A    between atoms: C_4  and  C_15 
REMARK    4  A    between atoms: C_7  and  C_24 
REMARK    5  A    between atoms: C_7  and  C_9 
REMARK    6  A    between atoms: N_8  and  C_24 
REMARK    7  A    between atoms: C_9  and  C_16 
REMARK    8  A    between atoms: C_15  and  C_20 
REMARK    9  A    between atoms: C_16  and  N_17 
REMARK   10  A    between atoms: C_20  and  C_29 
REMARK   11  A    between atoms: C_20  and  N_26 
REMARK       I    between atoms: C_23  and  N_26 
REMARK   12  A    between atoms: C_23  and  C_24 
REMARK   13  A    between atoms: C_25  and  O_28 
ROOT
HETATM    1  C           1     -20.937  -7.099  -5.977  0.00  0.00     0.189 C 
ENDROOT
BRANCH   1   2
HETATM    2  C           1     -19.793  -7.805  -5.261  0.00  0.00     0.074 C 
BRANCH   2   3
HETATM    3  C           1     -20.350  -8.802  -4.292  0.00  0.00    -0.056 A 
HETATM    4  C           1     -19.713  -9.018  -3.071  0.00  0.00     0.010 A 
HETATM    5  C           1     -20.232  -9.947  -2.169  0.00  0.00     0.038 A 
HETATM    6  C           1     -21.387 -10.660  -2.489  0.00  0.00     0.081 A 
HETATM    7  C           1     -22.024 -10.443  -3.711  0.00  0.00     0.038 A 
HETATM    8  C           1     -21.505  -9.514  -4.613  0.00  0.00     0.010 A 
BRANCH   6   9
HETATM    9  O           1     -21.891 -11.562  -1.613  0.00  0.00    -0.247 OA
BRANCH   9  10
HETATM   10  P           1     -22.504 -11.010  -0.224  0.00  0.00     0.411 P 
HETATM   11  O           1     -21.442 -10.977   0.806  0.00  0.00    -0.624 OA
HETATM   12  O           1     -23.596 -11.904   0.222  0.00  0.00    -0.624 OA
BRANCH  10  13
HETATM   13  O           1     -23.083  -9.519  -0.447  0.00  0.00    -0.300 OA
HETATM   14  H           1     -22.416  -8.945  -0.113  0.00  0.00     0.223 HD
ENDBRANCH  10  13
ENDBRANCH   9  10
ENDBRANCH   6   9
ENDBRANCH   2   3
ENDBRANCH   1   2
BRANCH   1  15
HETATM   15  C           1     -21.632  -6.164  -5.017  0.00  0.00     0.197 C 
HETATM   16  O           1     -20.968  -5.541  -4.161  0.00  0.00    -0.646 OA
HETATM   17  O           1     -22.871  -6.013  -5.079  0.00  0.00    -0.646 OA
ENDBRANCH   1  15
BRANCH   1  18
HETATM   18  N           1     -20.412  -6.340  -7.095  0.00  0.00    -0.344 N 
HETATM   19  H           1     -19.673  -6.726  -7.666  0.00  0.00     0.163 HD
HETATM   20  C           1     -20.919  -5.100  -7.379  0.00  0.00     0.249 C 
HETATM   21  O           1     -20.430  -4.118  -6.875  0.00  0.00    -0.271 OA
BRANCH  20  22
HETATM   22  C           1     -22.090  -4.961  -8.322  0.00  0.00     0.274 C 
BRANCH  22  23
HETATM   23  C           1     -21.626  -4.297  -9.612  0.00  0.00     0.044 C 
BRANCH  23  24
HETATM   24  C           1     -22.730  -4.391 -10.657  0.00  0.00     0.030 C 
BRANCH  24  25
HETATM   25  C           1     -22.638  -3.202 -11.603  0.00  0.00     0.230 C 
BRANCH  25  26
HETATM   26  N           1     -21.837  -3.585 -12.811  0.00  0.00    -0.079 N 
HETATM   27  H           1     -21.624  -2.730 -13.374  0.00  0.00     0.274 HD
HETATM   28  H           1     -20.943  -4.035 -12.510  0.00  0.00     0.274 HD
HETATM   29  H           1     -22.385  -4.257 -13.394  0.00  0.00     0.274 HD
ENDBRANCH  25  26
ENDBRANCH  24  25
ENDBRANCH  23  24
ENDBRANCH  22  23
BRANCH  22  30
HETATM   30  N           1     -23.152  -4.120  -7.680  0.00  0.00    -0.067 N 
HETATM   31  H           1     -22.953  -3.111  -7.862  0.00  0.00     0.275 HD
HETATM   32  H           1     -23.159  -4.293  -6.649  0.00  0.00     0.275 HD
HETATM   33  H           1     -24.084  -4.370  -8.080  0.00  0.00     0.275 HD
ENDBRANCH  22  30
ENDBRANCH  20  22
ENDBRANCH   1  18
TORSDOF 13
ENDMDL
MODEL 9
REMARK VINA RESULT:      -5.8     14.763     17.580
REMARK  13 active torsions:
REMARK  status: ('A' for Active; 'I' for Inactive)
REMARK    1  A    between atoms: P_1  and  O_28 
REMARK    2  A    between atoms: P_1  and  O_2 
REMARK    3  A    between atoms: C_4  and  C_15 
REMARK    4  A    between atoms: C_7  and  C_24 
REMARK    5  A    between atoms: C_7  and  C_9 
REMARK    6  A    between atoms: N_8  and  C_24 
REMARK    7  A    between atoms: C_9  and  C_16 
REMARK    8  A    between atoms: C_15  and  C_20 
REMARK    9  A    between atoms: C_16  and  N_17 
REMARK   10  A    between atoms: C_20  and  C_29 
REMARK   11  A    between atoms: C_20  and  N_26 
REMARK       I    between atoms: C_23  and  N_26 
REMARK   12  A    between atoms: C_23  and  C_24 
REMARK   13  A    between atoms: C_25  and  O_28 
ROOT
HETATM    1  C           1     -20.785  -9.742  -1.552  0.00  0.00     0.189 C 
ENDROOT
BRANCH   1   2
HETATM    2  C           1     -21.910  -9.511  -2.552  0.00  0.00     0.074 C 
BRANCH   2   3
HETATM    3  C           1     -21.574  -8.339  -3.420  0.00  0.00    -0.056 A 
HETATM    4  C           1     -21.273  -8.533  -4.767  0.00  0.00     0.010 A 
HETATM    5  C           1     -20.960  -7.439  -5.576  0.00  0.00     0.038 A 
HETATM    6  C           1     -20.948  -6.153  -5.036  0.00  0.00     0.081 A 
HETATM    7  C           1     -21.249  -5.961  -3.688  0.00  0.00     0.038 A 
HETATM    8  C           1     -21.562  -7.053  -2.880  0.00  0.00     0.010 A 
BRANCH   6   9
HETATM    9  O           1     -20.643  -5.092  -5.822  0.00  0.00    -0.247 OA
BRANCH   9  10
HETATM   10  P           1     -21.731  -4.626  -6.921  0.00  0.00     0.411 P 
HETATM   11  O           1     -23.092  -4.943  -6.435  0.00  0.00    -0.624 OA
HETATM   12  O           1     -21.483  -5.341  -8.193  0.00  0.00    -0.624 OA
BRANCH  10  13
HETATM   13  O           1     -21.603  -3.034  -7.163  0.00  0.00    -0.300 OA
HETATM   14  H           1     -20.691  -2.840  -7.030  0.00  0.00     0.223 HD
ENDBRANCH  10  13
ENDBRANCH   9  10
ENDBRANCH   6   9
ENDBRANCH   2   3
ENDBRANCH   1   2
BRANCH   1  15
HETATM   15  C           1     -21.337  -9.681  -0.149  0.00  0.00     0.197 C 
HETATM   16  O           1     -21.165  -8.657   0.547  0.00  0.00    -0.646 OA
HETATM   17  O           1     -21.966 -10.654   0.318  0.00  0.00    -0.646 OA
ENDBRANCH   1  15
BRANCH   1  18
HETATM   18  N           1     -20.194 -11.046  -1.781  0.00  0.00    -0.344 N 
HETATM   19  H           1     -20.786 -11.860  -1.878  0.00  0.00     0.163 HD
HETATM   20  C           1     -18.833 -11.174  -1.869  0.00  0.00     0.249 C 
HETATM   21  O           1     -18.183 -11.391  -0.875  0.00  0.00    -0.271 OA
BRANCH  20  22
HETATM   22  C           1     -18.148 -11.046  -3.207  0.00  0.00     0.274 C 
BRANCH  22  23
HETATM   23  C           1     -17.674  -9.612  -3.400  0.00  0.00     0.044 C 
BRANCH  23  24
HETATM   24  C           1     -16.152  -9.569  -3.353  0.00  0.00     0.030 C 
BRANCH  24  25
HETATM   25  C           1     -15.584 -10.463  -4.446  0.00  0.00     0.230 C 
BRANCH  25  26
HETATM   26  N           1     -15.934  -9.897  -5.789  0.00  0.00    -0.079 N 
HETATM   27  H           1     -16.770 -10.396  -6.171  0.00  0.00     0.274 HD
HETATM   28  H           1     -16.149  -8.878  -5.694  0.00  0.00     0.274 HD
HETATM   29  H           1     -15.126 -10.022  -6.441  0.00  0.00     0.274 HD
ENDBRANCH  25  26
ENDBRANCH  24  25
ENDBRANCH  23  24
ENDBRANCH  22  23
BRANCH  22  30
HETATM   30  N           1     -19.113 -11.405  -4.298  0.00  0.00    -0.067 N 
HETATM   31  H           1     -19.853 -10.671  -4.362  0.00  0.00     0.275 HD
HETATM   32  H           1     -19.553 -12.328  -4.085  0.00  0.00     0.275 HD
HETATM   33  H           1     -18.602 -11.466  -5.208  0.00  0.00     0.275 HD
ENDBRANCH  22  30
ENDBRANCH  20  22
ENDBRANCH   1  18
TORSDOF 13
ENDMDL
