MODEL 1
REMARK VINA RESULT:      -6.4      0.000      0.000
REMARK  9 active torsions:
REMARK  status: ('A' for Active; 'I' for Inactive)
REMARK    1  A    between atoms: C_1  and  C_15 
REMARK    2  A    between atoms: N_3  and  C_19 
REMARK    3  A    between atoms: C_8  and  C_17 
REMARK    4  A    between atoms: C_8  and  C_9 
REMARK    5  A    between atoms: C_9  and  C_10 
REMARK    6  A    between atoms: C_9  and  N_22 
REMARK    7  A    between atoms: C_15  and  C_21 
REMARK       I    between atoms: C_18  and  N_22 
REMARK    8  A    between atoms: C_18  and  C_19 
REMARK    9  A    between atoms: C_19  and  C_21 
ROOT
HETATM    1  O           1     -33.782  -2.179 -10.776  0.00  0.00    -0.271 OA
HETATM    2  H           1     -35.986  -2.240 -13.007  0.00  0.00     0.163 HD
HETATM    3  C           1     -34.513  -2.652 -11.613  0.00  0.00     0.249 C 
HETATM    4  N           1     -35.373  -1.844 -12.305  0.00  0.00    -0.344 N 
ENDROOT
BRANCH   3   5
HETATM    5  C           1     -34.478  -4.134 -11.894  0.00  0.00     0.275 C 
BRANCH   5   6
HETATM    6  N           1     -33.417  -4.423 -12.916  0.00  0.00    -0.066 N 
HETATM    7  H           1     -33.685  -3.992 -13.828  0.00  0.00     0.275 HD
HETATM    8  H           1     -32.507  -4.024 -12.595  0.00  0.00     0.275 HD
HETATM    9  H           1     -33.322  -5.458 -13.034  0.00  0.00     0.275 HD
ENDBRANCH   5   6
BRANCH   5  10
HETATM   10  C           1     -34.163  -4.889 -10.610  0.00  0.00     0.053 C 
BRANCH  10  11
HETATM   11  C           1     -33.650  -6.282 -10.951  0.00  0.00     0.115 C 
BRANCH  11  12
HETATM   12  C           1     -34.398  -7.308 -10.136  0.00  0.00     0.172 C 
HETATM   13  O           1     -34.022  -8.500 -10.136  0.00  0.00    -0.648 OA
HETATM   14  O           1     -35.392  -6.966  -9.461  0.00  0.00    -0.648 OA
ENDBRANCH  11  12
ENDBRANCH  10  11
ENDBRANCH   5  10
ENDBRANCH   3   5
BRANCH   4  15
HETATM   15  C           1     -35.407  -0.420 -12.035  0.00  0.00     0.195 C 
BRANCH  15  16
HETATM   16  C           1     -35.503   0.344 -13.349  0.00  0.00     0.149 C 
BRANCH  16  17
HETATM   17  C           1     -35.993  -0.583 -14.435  0.00  0.00     0.175 C 
HETATM   18  O           1     -35.177  -1.268 -15.088  0.00  0.00    -0.648 OA
HETATM   19  O           1     -37.216  -0.665 -14.681  0.00  0.00    -0.648 OA
ENDBRANCH  16  17
ENDBRANCH  15  16
BRANCH  15  20
HETATM   20  C           1     -36.607  -0.100 -11.178  0.00  0.00     0.197 C 
HETATM   21  O           1     -36.514   0.746 -10.262  0.00  0.00    -0.646 OA
HETATM   22  O           1     -37.694  -0.681 -11.383  0.00  0.00    -0.646 OA
ENDBRANCH  15  20
ENDBRANCH   4  15
TORSDOF 9
ENDMDL
MODEL 2
REMARK VINA RESULT:      -6.2      9.110     11.427
REMARK  9 active torsions:
REMARK  status: ('A' for Active; 'I' for Inactive)
REMARK    1  A    between atoms: C_1  and  C_15 
REMARK    2  A    between atoms: N_3  and  C_19 
REMARK    3  A    between atoms: C_8  and  C_17 
REMARK    4  A    between atoms: C_8  and  C_9 
REMARK    5  A    between atoms: C_9  and  C_10 
REMARK    6  A    between atoms: C_9  and  N_22 
REMARK    7  A    between atoms: C_15  and  C_21 
REMARK       I    between atoms: C_18  and  N_22 
REMARK    8  A    between atoms: C_18  and  C_19 
REMARK    9  A    between atoms: C_19  and  C_21 
ROOT
HETATM    1  O           1     -28.307  -5.191 -18.861  0.00  0.00    -0.271 OA
HETATM    2  H           1     -27.279  -7.917 -17.700  0.00  0.00     0.163 HD
HETATM    3  C           1     -28.371  -6.293 -18.373  0.00  0.00     0.249 C 
HETATM    4  N           1     -27.225  -6.994 -18.111  0.00  0.00    -0.344 N 
ENDROOT
BRANCH   3   5
HETATM    5  C           1     -29.716  -6.898 -18.051  0.00  0.00     0.275 C 
BRANCH   5   6
HETATM    6  N           1     -29.535  -8.332 -17.650  0.00  0.00    -0.066 N 
HETATM    7  H           1     -29.033  -8.379 -16.735  0.00  0.00     0.275 HD
HETATM    8  H           1     -30.471  -8.788 -17.558  0.00  0.00     0.275 HD
HETATM    9  H           1     -28.976  -8.829 -18.380  0.00  0.00     0.275 HD
ENDBRANCH   5   6
BRANCH   5  10
HETATM   10  C           1     -30.359  -6.129 -16.905  0.00  0.00     0.053 C 
BRANCH  10  11
HETATM   11  C           1     -31.789  -5.761 -17.279  0.00  0.00     0.115 C 
BRANCH  11  12
HETATM   12  C           1     -32.056  -4.326 -16.898  0.00  0.00     0.172 C 
HETATM   13  O           1     -32.972  -4.053 -16.092  0.00  0.00    -0.648 OA
HETATM   14  O           1     -31.362  -3.409 -17.389  0.00  0.00    -0.648 OA
ENDBRANCH  11  12
ENDBRANCH  10  11
ENDBRANCH   5  10
ENDBRANCH   3   5
BRANCH   4  15
HETATM   15  C           1     -25.933  -6.413 -18.420  0.00  0.00     0.195 C 
BRANCH  15  16
HETATM   16  C           1     -24.910  -6.875 -17.392  0.00  0.00     0.149 C 
BRANCH  16  17
HETATM   17  C           1     -25.433  -6.603 -16.003  0.00  0.00     0.175 C 
HETATM   18  O           1     -26.158  -7.446 -15.431  0.00  0.00    -0.648 OA
HETATM   19  O           1     -25.141  -5.534 -15.423  0.00  0.00    -0.648 OA
ENDBRANCH  16  17
ENDBRANCH  15  16
BRANCH  15  20
HETATM   20  C           1     -25.501  -6.855 -19.797  0.00  0.00     0.197 C 
HETATM   21  O           1     -24.608  -7.721 -19.922  0.00  0.00    -0.646 OA
HETATM   22  O           1     -26.034  -6.356 -20.810  0.00  0.00    -0.646 OA
ENDBRANCH  15  20
ENDBRANCH   4  15
TORSDOF 9
ENDMDL
MODEL 3
REMARK VINA RESULT:      -6.0     12.567     14.191
REMARK  9 active torsions:
REMARK  status: ('A' for Active; 'I' for Inactive)
REMARK    1  A    between atoms: C_1  and  C_15 
REMARK    2  A    between atoms: N_3  and  C_19 
REMARK    3  A    between atoms: C_8  and  C_17 
REMARK    4  A    between atoms: C_8  and  C_9 
REMARK    5  A    between atoms: C_9  and  C_10 
REMARK    6  A    between atoms: C_9  and  N_22 
REMARK    7  A    between atoms: C_15  and  C_21 
REMARK       I    between atoms: C_18  and  N_22 
REMARK    8  A    between atoms: C_18  and  C_19 
REMARK    9  A    between atoms: C_19  and  C_21 
ROOT
HETATM    1  O           1     -20.221  -4.846  -8.896  0.00  0.00    -0.271 OA
HETATM    2  H           1     -23.022  -3.461  -9.171  0.00  0.00     0.163 HD
HETATM    3  C           1     -21.225  -4.274  -8.544  0.00  0.00     0.249 C 
HETATM    4  N           1     -22.180  -3.939  -9.466  0.00  0.00    -0.344 N 
ENDROOT
BRANCH   3   5
HETATM    5  C           1     -21.426  -3.929  -7.090  0.00  0.00     0.275 C 
BRANCH   5   6
HETATM    6  N           1     -22.758  -4.449  -6.633  0.00  0.00    -0.066 N 
HETATM    7  H           1     -23.493  -3.727  -6.808  0.00  0.00     0.275 HD
HETATM    8  H           1     -22.991  -5.320  -7.160  0.00  0.00     0.275 HD
HETATM    9  H           1     -22.715  -4.661  -5.610  0.00  0.00     0.275 HD
ENDBRANCH   5   6
BRANCH   5  10
HETATM   10  C           1     -20.322  -4.565  -6.258  0.00  0.00     0.053 C 
BRANCH  10  11
HETATM   11  C           1     -20.932  -5.559  -5.277  0.00  0.00     0.115 C 
BRANCH  11  12
HETATM   12  C           1     -20.329  -6.924  -5.503  0.00  0.00     0.172 C 
HETATM   13  O           1     -20.461  -7.816  -4.637  0.00  0.00    -0.648 OA
HETATM   14  O           1     -19.700  -7.163  -6.556  0.00  0.00    -0.648 OA
ENDBRANCH  11  12
ENDBRANCH  10  11
ENDBRANCH   5  10
ENDBRANCH   3   5
BRANCH   4  15
HETATM   15  C           1     -21.986  -4.271 -10.864  0.00  0.00     0.195 C 
BRANCH  15  16
HETATM   16  C           1     -23.313  -4.709 -11.470  0.00  0.00     0.149 C 
BRANCH  16  17
HETATM   17  C           1     -24.448  -4.229 -10.599  0.00  0.00     0.175 C 
HETATM   18  O           1     -24.970  -3.113 -10.811  0.00  0.00    -0.648 OA
HETATM   19  O           1     -24.866  -4.946  -9.664  0.00  0.00    -0.648 OA
ENDBRANCH  16  17
ENDBRANCH  15  16
BRANCH  15  20
HETATM   20  C           1     -21.472  -3.059 -11.601  0.00  0.00     0.197 C 
HETATM   21  O           1     -20.312  -2.645 -11.390  0.00  0.00    -0.646 OA
HETATM   22  O           1     -22.207  -2.468 -12.422  0.00  0.00    -0.646 OA
ENDBRANCH  15  20
ENDBRANCH   4  15
TORSDOF 9
ENDMDL
MODEL 4
REMARK VINA RESULT:      -6.0     12.011     14.458
REMARK  9 active torsions:
REMARK  status: ('A' for Active; 'I' for Inactive)
REMARK    1  A    between atoms: C_1  and  C_15 
REMARK    2  A    between atoms: N_3  and  C_19 
REMARK    3  A    between atoms: C_8  and  C_17 
REMARK    4  A    between atoms: C_8  and  C_9 
REMARK    5  A    between atoms: C_9  and  C_10 
REMARK    6  A    between atoms: C_9  and  N_22 
REMARK    7  A    between atoms: C_15  and  C_21 
REMARK       I    between atoms: C_18  and  N_22 
REMARK    8  A    between atoms: C_18  and  C_19 
REMARK    9  A    between atoms: C_19  and  C_21 
ROOT
HETATM    1  O           1     -22.825  -2.863  -9.053  0.00  0.00    -0.271 OA
HETATM    2  H           1     -22.227  -5.792  -8.103  0.00  0.00     0.163 HD
HETATM    3  C           1     -22.971  -4.058  -8.953  0.00  0.00     0.249 C 
HETATM    4  N           1     -22.104  -4.791  -8.188  0.00  0.00    -0.344 N 
ENDROOT
BRANCH   3   5
HETATM    5  C           1     -24.109  -4.741  -9.669  0.00  0.00     0.275 C 
BRANCH   5   6
HETATM    6  N           1     -25.317  -3.852  -9.650  0.00  0.00    -0.066 N 
HETATM    7  H           1     -25.803  -3.903 -10.573  0.00  0.00     0.275 HD
HETATM    8  H           1     -25.968  -4.165  -8.895  0.00  0.00     0.275 HD
HETATM    9  H           1     -25.020  -2.866  -9.467  0.00  0.00     0.275 HD
ENDBRANCH   5   6
BRANCH   5  10
HETATM   10  C           1     -23.708  -5.021 -11.111  0.00  0.00     0.053 C 
BRANCH  10  11
HETATM   11  C           1     -23.226  -3.732 -11.764  0.00  0.00     0.115 C 
BRANCH  11  12
HETATM   12  C           1     -24.189  -3.327 -12.852  0.00  0.00     0.172 C 
HETATM   13  O           1     -23.842  -3.395 -14.051  0.00  0.00    -0.648 OA
HETATM   14  O           1     -25.335  -2.924 -12.556  0.00  0.00    -0.648 OA
ENDBRANCH  11  12
ENDBRANCH  10  11
ENDBRANCH   5  10
ENDBRANCH   3   5
BRANCH   4  15
HETATM   15  C           1     -21.011  -4.134  -7.499  0.00  0.00     0.195 C 
BRANCH  15  16
HETATM   16  C           1     -20.913  -4.668  -6.076  0.00  0.00     0.149 C 
BRANCH  16  17
HETATM   17  C           1     -21.661  -5.975  -5.977  0.00  0.00     0.175 C 
HETATM   18  O           1     -21.181  -7.010  -6.489  0.00  0.00    -0.648 OA
HETATM   19  O           1     -22.760  -6.024  -5.383  0.00  0.00    -0.648 OA
ENDBRANCH  16  17
ENDBRANCH  15  16
BRANCH  15  20
HETATM   20  C           1     -19.719  -4.409  -8.230  0.00  0.00     0.197 C 
HETATM   21  O           1     -19.740  -4.711  -9.443  0.00  0.00    -0.646 OA
HETATM   22  O           1     -18.630  -4.336  -7.623  0.00  0.00    -0.646 OA
ENDBRANCH  15  20
ENDBRANCH   4  15
TORSDOF 9
ENDMDL
MODEL 5
REMARK VINA RESULT:      -5.8     12.583     14.824
REMARK  9 active torsions:
REMARK  status: ('A' for Active; 'I' for Inactive)
REMARK    1  A    between atoms: C_1  and  C_15 
REMARK    2  A    between atoms: N_3  and  C_19 
REMARK    3  A    between atoms: C_8  and  C_17 
REMARK    4  A    between atoms: C_8  and  C_9 
REMARK    5  A    between atoms: C_9  and  C_10 
REMARK    6  A    between atoms: C_9  and  N_22 
REMARK    7  A    between atoms: C_15  and  C_21 
REMARK       I    between atoms: C_18  and  N_22 
REMARK    8  A    between atoms: C_18  and  C_19 
REMARK    9  A    between atoms: C_19  and  C_21 
ROOT
HETATM    1  O           1     -20.357  -2.987 -10.628  0.00  0.00    -0.271 OA
HETATM    2  H           1     -21.949  -5.189  -9.061  0.00  0.00     0.163 HD
HETATM    3  C           1     -21.140  -3.890 -10.454  0.00  0.00     0.249 C 
HETATM    4  N           1     -21.292  -4.433  -9.207  0.00  0.00    -0.344 N 
ENDROOT
BRANCH   3   5
HETATM    5  C           1     -21.951  -4.418 -11.611  0.00  0.00     0.275 C 
BRANCH   5   6
HETATM    6  N           1     -23.356  -4.682 -11.157  0.00  0.00    -0.066 N 
HETATM    7  H           1     -23.426  -5.655 -10.785  0.00  0.00     0.275 HD
HETATM    8  H           1     -23.613  -4.003 -10.406  0.00  0.00     0.275 HD
HETATM    9  H           1     -24.009  -4.570 -11.966  0.00  0.00     0.275 HD
ENDBRANCH   5   6
BRANCH   5  10
HETATM   10  C           1     -21.966  -3.390 -12.734  0.00  0.00     0.053 C 
BRANCH  10  11
HETATM   11  C           1     -23.395  -3.188 -13.220  0.00  0.00     0.115 C 
BRANCH  11  12
HETATM   12  C           1     -23.384  -2.405 -14.509  0.00  0.00     0.172 C 
HETATM   13  O           1     -22.595  -2.722 -15.426  0.00  0.00    -0.648 OA
HETATM   14  O           1     -24.164  -1.440 -14.662  0.00  0.00    -0.648 OA
ENDBRANCH  11  12
ENDBRANCH  10  11
ENDBRANCH   5  10
ENDBRANCH   3   5
BRANCH   4  15
HETATM   15  C           1     -20.512  -3.925  -8.095  0.00  0.00     0.195 C 
BRANCH  15  16
HETATM   16  C           1     -21.447  -3.534  -6.958  0.00  0.00     0.149 C 
BRANCH  16  17
HETATM   17  C           1     -22.666  -4.422  -6.980  0.00  0.00     0.175 C 
HETATM   18  O           1     -22.786  -5.340  -6.140  0.00  0.00    -0.648 OA
HETATM   19  O           1     -23.557  -4.240  -7.838  0.00  0.00    -0.648 OA
ENDBRANCH  16  17
ENDBRANCH  15  16
BRANCH  15  20
HETATM   20  C           1     -19.560  -4.995  -7.619  0.00  0.00     0.197 C 
HETATM   21  O           1     -18.430  -4.679  -7.188  0.00  0.00    -0.646 OA
HETATM   22  O           1     -19.901  -6.196  -7.656  0.00  0.00    -0.646 OA
ENDBRANCH  15  20
ENDBRANCH   4  15
TORSDOF 9
ENDMDL
MODEL 6
REMARK VINA RESULT:      -5.7     10.070     11.984
REMARK  9 active torsions:
REMARK  status: ('A' for Active; 'I' for Inactive)
REMARK    1  A    between atoms: C_1  and  C_15 
REMARK    2  A    between atoms: N_3  and  C_19 
REMARK    3  A    between atoms: C_8  and  C_17 
REMARK    4  A    between atoms: C_8  and  C_9 
REMARK    5  A    between atoms: C_9  and  C_10 
REMARK    6  A    between atoms: C_9  and  N_22 
REMARK    7  A    between atoms: C_15  and  C_21 
REMARK       I    between atoms: C_18  and  N_22 
REMARK    8  A    between atoms: C_18  and  C_19 
REMARK    9  A    between atoms: C_19  and  C_21 
ROOT
HETATM    1  O           1     -28.097  -5.173 -19.100  0.00  0.00    -0.271 OA
HETATM    2  H           1     -27.054  -8.131 -19.073  0.00  0.00     0.163 HD
HETATM    3  C           1     -28.151  -6.377 -19.024  0.00  0.00     0.249 C 
HETATM    4  N           1     -27.009  -7.122 -19.138  0.00  0.00    -0.344 N 
ENDROOT
BRANCH   3   5
HETATM    5  C           1     -29.478  -7.060 -18.801  0.00  0.00     0.275 C 
BRANCH   5   6
HETATM    6  N           1     -29.308  -8.543 -18.952  0.00  0.00    -0.066 N 
HETATM    7  H           1     -29.789  -9.031 -18.163  0.00  0.00     0.275 HD
HETATM    8  H           1     -29.726  -8.851 -19.859  0.00  0.00     0.275 HD
HETATM    9  H           1     -28.290  -8.779 -18.938  0.00  0.00     0.275 HD
ENDBRANCH   5   6
BRANCH   5  10
HETATM   10  C           1     -29.983  -6.747 -17.400  0.00  0.00     0.053 C 
BRANCH  10  11
HETATM   11  C           1     -29.397  -7.749 -16.413  0.00  0.00     0.115 C 
BRANCH  11  12
HETATM   12  C           1     -28.441  -7.042 -15.485  0.00  0.00     0.172 C 
HETATM   13  O           1     -27.600  -7.699 -14.835  0.00  0.00    -0.648 OA
HETATM   14  O           1     -28.489  -5.798 -15.367  0.00  0.00    -0.648 OA
ENDBRANCH  11  12
ENDBRANCH  10  11
ENDBRANCH   5  10
ENDBRANCH   3   5
BRANCH   4  15
HETATM   15  C           1     -25.733  -6.466 -19.352  0.00  0.00     0.195 C 
BRANCH  15  16
HETATM   16  C           1     -24.665  -7.145 -18.505  0.00  0.00     0.149 C 
BRANCH  16  17
HETATM   17  C           1     -24.956  -6.908 -17.043  0.00  0.00     0.175 C 
HETATM   18  O           1     -25.557  -5.872 -16.685  0.00  0.00    -0.648 OA
HETATM   19  O           1     -24.595  -7.747 -16.189  0.00  0.00    -0.648 OA
ENDBRANCH  16  17
ENDBRANCH  15  16
BRANCH  15  20
HETATM   20  C           1     -25.357  -6.563 -20.810  0.00  0.00     0.197 C 
HETATM   21  O           1     -25.432  -5.553 -21.543  0.00  0.00    -0.646 OA
HETATM   22  O           1     -24.971  -7.652 -21.285  0.00  0.00    -0.646 OA
ENDBRANCH  15  20
ENDBRANCH   4  15
TORSDOF 9
ENDMDL
MODEL 7
REMARK VINA RESULT:      -5.6      9.188     11.269
REMARK  9 active torsions:
REMARK  status: ('A' for Active; 'I' for Inactive)
REMARK    1  A    between atoms: C_1  and  C_15 
REMARK    2  A    between atoms: N_3  and  C_19 
REMARK    3  A    between atoms: C_8  and  C_17 
REMARK    4  A    between atoms: C_8  and  C_9 
REMARK    5  A    between atoms: C_9  and  C_10 
REMARK    6  A    between atoms: C_9  and  N_22 
REMARK    7  A    between atoms: C_15  and  C_21 
REMARK       I    between atoms: C_18  and  N_22 
REMARK    8  A    between atoms: C_18  and  C_19 
REMARK    9  A    between atoms: C_19  and  C_21 
ROOT
HETATM    1  O           1     -29.459  -8.249 -18.108  0.00  0.00    -0.271 OA
HETATM    2  H           1     -28.590  -5.287 -18.665  0.00  0.00     0.163 HD
HETATM    3  C           1     -29.571  -7.050 -18.203  0.00  0.00     0.249 C 
HETATM    4  N           1     -28.497  -6.291 -18.584  0.00  0.00    -0.344 N 
ENDROOT
BRANCH   3   5
HETATM    5  C           1     -30.893  -6.389 -17.903  0.00  0.00     0.275 C 
BRANCH   5   6
HETATM    6  N           1     -31.859  -7.416 -17.387  0.00  0.00    -0.066 N 
HETATM    7  H           1     -32.002  -8.155 -18.111  0.00  0.00     0.275 HD
HETATM    8  H           1     -31.474  -7.850 -16.518  0.00  0.00     0.275 HD
HETATM    9  H           1     -32.773  -6.956 -17.173  0.00  0.00     0.275 HD
ENDBRANCH   5   6
BRANCH   5  10
HETATM   10  C           1     -30.695  -5.307 -16.850  0.00  0.00     0.053 C 
BRANCH  10  11
HETATM   11  C           1     -32.029  -4.634 -16.556  0.00  0.00     0.115 C 
BRANCH  11  12
HETATM   12  C           1     -32.194  -3.430 -17.451  0.00  0.00     0.172 C 
HETATM   13  O           1     -33.306  -2.867 -17.542  0.00  0.00    -0.648 OA
HETATM   14  O           1     -31.218  -2.995 -18.100  0.00  0.00    -0.648 OA
ENDBRANCH  11  12
ENDBRANCH  10  11
ENDBRANCH   5  10
ENDBRANCH   3   5
BRANCH   4  15
HETATM   15  C           1     -27.226  -6.927 -18.873  0.00  0.00     0.195 C 
BRANCH  15  16
HETATM   16  C           1     -26.829  -6.635 -20.314  0.00  0.00     0.149 C 
BRANCH  16  17
HETATM   17  C           1     -26.453  -7.924 -21.003  0.00  0.00     0.175 C 
HETATM   18  O           1     -27.345  -8.707 -21.396  0.00  0.00    -0.648 OA
HETATM   19  O           1     -25.248  -8.209 -21.182  0.00  0.00    -0.648 OA
ENDBRANCH  16  17
ENDBRANCH  15  16
BRANCH  15  20
HETATM   20  C           1     -26.170  -6.385 -17.940  0.00  0.00     0.197 C 
HETATM   21  O           1     -24.964  -6.642 -18.145  0.00  0.00    -0.646 OA
HETATM   22  O           1     -26.502  -5.680 -16.963  0.00  0.00    -0.646 OA
ENDBRANCH  15  20
ENDBRANCH   4  15
TORSDOF 9
ENDMDL
MODEL 8
REMARK VINA RESULT:      -5.5     13.911     16.678
REMARK  9 active torsions:
REMARK  status: ('A' for Active; 'I' for Inactive)
REMARK    1  A    between atoms: C_1  and  C_15 
REMARK    2  A    between atoms: N_3  and  C_19 
REMARK    3  A    between atoms: C_8  and  C_17 
REMARK    4  A    between atoms: C_8  and  C_9 
REMARK    5  A    between atoms: C_9  and  C_10 
REMARK    6  A    between atoms: C_9  and  N_22 
REMARK    7  A    between atoms: C_15  and  C_21 
REMARK       I    between atoms: C_18  and  N_22 
REMARK    8  A    between atoms: C_18  and  C_19 
REMARK    9  A    between atoms: C_19  and  C_21 
ROOT
HETATM    1  O           1     -22.537  -5.636  -5.637  0.00  0.00    -0.271 OA
HETATM    2  H           1     -19.831  -6.896  -4.674  0.00  0.00     0.163 HD
HETATM    3  C           1     -21.344  -5.823  -5.590  0.00  0.00     0.249 C 
HETATM    4  N           1     -20.830  -6.739  -4.713  0.00  0.00    -0.344 N 
ENDROOT
BRANCH   3   5
HETATM    5  C           1     -20.423  -5.048  -6.500  0.00  0.00     0.275 C 
BRANCH   5   6
HETATM    6  N           1     -19.896  -5.959  -7.570  0.00  0.00    -0.066 N 
HETATM    7  H           1     -19.866  -5.447  -8.480  0.00  0.00     0.275 HD
HETATM    8  H           1     -18.933  -6.274  -7.316  0.00  0.00     0.275 HD
HETATM    9  H           1     -20.524  -6.790  -7.659  0.00  0.00     0.275 HD
ENDBRANCH   5   6
BRANCH   5  10
HETATM   10  C           1     -21.189  -3.900  -7.142  0.00  0.00     0.053 C 
BRANCH  10  11
HETATM   11  C           1     -21.224  -4.095  -8.653  0.00  0.00     0.115 C 
BRANCH  11  12
HETATM   12  C           1     -22.630  -3.882  -9.156  0.00  0.00     0.172 C 
HETATM   13  O           1     -22.821  -3.438 -10.309  0.00  0.00    -0.648 OA
HETATM   14  O           1     -23.604  -4.150  -8.421  0.00  0.00    -0.648 OA
ENDBRANCH  11  12
ENDBRANCH  10  11
ENDBRANCH   5  10
ENDBRANCH   3   5
BRANCH   4  15
HETATM   15  C           1     -21.715  -7.483  -3.839  0.00  0.00     0.195 C 
BRANCH  15  16
HETATM   16  C           1     -21.281  -8.942  -3.801  0.00  0.00     0.149 C 
BRANCH  16  17
HETATM   17  C           1     -19.976  -9.099  -4.543  0.00  0.00     0.175 C 
HETATM   18  O           1     -18.892  -8.939  -3.942  0.00  0.00    -0.648 OA
HETATM   19  O           1     -19.980  -9.389  -5.759  0.00  0.00    -0.648 OA
ENDBRANCH  16  17
ENDBRANCH  15  16
BRANCH  15  20
HETATM   20  C           1     -21.653  -6.902  -2.447  0.00  0.00     0.197 C 
HETATM   21  O           1     -20.937  -7.442  -1.577  0.00  0.00    -0.646 OA
HETATM   22  O           1     -22.317  -5.882  -2.166  0.00  0.00    -0.646 OA
ENDBRANCH  15  20
ENDBRANCH   4  15
TORSDOF 9
ENDMDL
MODEL 9
REMARK VINA RESULT:      -5.5     11.981     14.228
REMARK  9 active torsions:
REMARK  status: ('A' for Active; 'I' for Inactive)
REMARK    1  A    between atoms: C_1  and  C_15 
REMARK    2  A    between atoms: N_3  and  C_19 
REMARK    3  A    between atoms: C_8  and  C_17 
REMARK    4  A    between atoms: C_8  and  C_9 
REMARK    5  A    between atoms: C_9  and  C_10 
REMARK    6  A    between atoms: C_9  and  N_22 
REMARK    7  A    between atoms: C_15  and  C_21 
REMARK       I    between atoms: C_18  and  N_22 
REMARK    8  A    between atoms: C_18  and  C_19 
REMARK    9  A    between atoms: C_19  and  C_21 
ROOT
HETATM    1  O           1     -22.062  -4.852 -10.210  0.00  0.00    -0.271 OA
HETATM    2  H           1     -24.103  -4.006  -7.983  0.00  0.00     0.163 HD
HETATM    3  C           1     -23.089  -4.427  -9.737  0.00  0.00     0.249 C 
HETATM    4  N           1     -23.242  -4.363  -8.379  0.00  0.00    -0.344 N 
ENDROOT
BRANCH   3   5
HETATM    5  C           1     -24.203  -3.968 -10.645  0.00  0.00     0.275 C 
BRANCH   5   6
HETATM    6  N           1     -25.310  -3.381  -9.820  0.00  0.00    -0.066 N 
HETATM    7  H           1     -26.020  -4.118  -9.613  0.00  0.00     0.275 HD
HETATM    8  H           1     -24.919  -3.013  -8.924  0.00  0.00     0.275 HD
HETATM    9  H           1     -25.762  -2.601 -10.349  0.00  0.00     0.275 HD
ENDBRANCH   5   6
BRANCH   5  10
HETATM   10  C           1     -23.674  -2.913 -11.607  0.00  0.00     0.053 C 
BRANCH  10  11
HETATM   11  C           1     -23.229  -3.582 -12.901  0.00  0.00     0.115 C 
BRANCH  11  12
HETATM   12  C           1     -23.443  -2.637 -14.057  0.00  0.00     0.172 C 
HETATM   13  O           1     -22.677  -2.672 -15.044  0.00  0.00    -0.648 OA
HETATM   14  O           1     -24.388  -1.819 -14.028  0.00  0.00    -0.648 OA
ENDBRANCH  11  12
ENDBRANCH  10  11
ENDBRANCH   5  10
ENDBRANCH   3   5
BRANCH   4  15
HETATM   15  C           1     -22.172  -4.804  -7.507  0.00  0.00     0.195 C 
BRANCH  15  16
HETATM   16  C           1     -21.214  -3.647  -7.253  0.00  0.00     0.149 C 
BRANCH  16  17
HETATM   17  C           1     -19.804  -4.081  -7.571  0.00  0.00     0.175 C 
HETATM   18  O           1     -19.328  -3.876  -8.708  0.00  0.00    -0.648 OA
HETATM   19  O           1     -19.112  -4.647  -6.696  0.00  0.00    -0.648 OA
ENDBRANCH  16  17
ENDBRANCH  15  16
BRANCH  15  20
HETATM   20  C           1     -22.753  -5.274  -6.195  0.00  0.00     0.197 C 
HETATM   21  O           1     -23.982  -5.180  -5.988  0.00  0.00    -0.646 OA
HETATM   22  O           1     -22.006  -5.756  -5.317  0.00  0.00    -0.646 OA
ENDBRANCH  15  20
ENDBRANCH   4  15
TORSDOF 9
ENDMDL
