MODEL 1
REMARK VINA RESULT:      -6.8      0.000      0.000
REMARK  5 active torsions:
REMARK  status: ('A' for Active; 'I' for Inactive)
REMARK    1  A    between atoms: C_3  and  C_7 
REMARK    2  A    between atoms: C_3  and  C_4 
REMARK    3  A    between atoms: C_4  and  C_5 
REMARK    4  A    between atoms: C_4  and  N_11 
REMARK       I    between atoms: N_11  and  C_12 
REMARK    5  A    between atoms: C_12  and  C_13 
ROOT
HETATM    1  H           1     -22.053  -4.641  -7.065  0.00  0.00     0.275 HD
HETATM    2  H           1     -21.354  -3.413  -6.109  0.00  0.00     0.275 HD
HETATM    3  C           1     -20.317  -3.806  -7.886  0.00  0.00     0.274 C 
HETATM    4  C           1     -20.204  -6.664  -5.775  0.00  0.00     0.027 C 
HETATM    5  C           1     -20.077  -6.189  -7.217  0.00  0.00     0.004 C 
HETATM    6  C           1     -19.390  -4.832  -7.247  0.00  0.00     0.042 C 
HETATM    7  C           1     -21.030  -5.659  -4.981  0.00  0.00     0.229 C 
HETATM    8  H           1     -22.961  -4.852  -5.044  0.00  0.00     0.274 HD
HETATM    9  H           1     -22.309  -5.214  -6.578  0.00  0.00     0.274 HD
HETATM   10  H           1     -22.867  -6.473  -5.569  0.00  0.00     0.274 HD
HETATM   11  N           1     -21.581  -3.709  -7.084  0.00  0.00    -0.067 N 
HETATM   12  N           1     -22.395  -5.541  -5.589  0.00  0.00    -0.079 N 
HETATM   13  H           1     -22.217  -3.005  -7.523  0.00  0.00     0.275 HD
ENDROOT
BRANCH   3  14
HETATM   14  C           1     -20.646  -4.233  -9.295  0.00  0.00     0.249 C 
HETATM   15  N           1     -21.878  -3.956  -9.824  0.00  0.00    -0.344 N 
HETATM   16  H           1     -22.568  -3.464  -9.270  0.00  0.00     0.163 HD
HETATM   17  O           1     -19.823  -4.821  -9.956  0.00  0.00    -0.271 OA
BRANCH  15  18
HETATM   18  C           1     -22.194  -4.367 -11.178  0.00  0.00     0.195 C 
BRANCH  18  19
HETATM   19  C           1     -23.622  -4.895 -11.228  0.00  0.00     0.149 C 
BRANCH  19  20
HETATM   20  C           1     -24.478  -4.125 -10.252  0.00  0.00     0.175 C 
HETATM   21  O           1     -24.523  -4.470  -9.051  0.00  0.00    -0.648 OA
HETATM   22  O           1     -25.142  -3.142 -10.645  0.00  0.00    -0.648 OA
ENDBRANCH  19  20
ENDBRANCH  18  19
BRANCH  18  23
HETATM   23  C           1     -22.061  -3.186 -12.106  0.00  0.00     0.197 C 
HETATM   24  O           1     -21.459  -2.157 -11.728  0.00  0.00    -0.646 OA
HETATM   25  O           1     -22.555  -3.234 -13.254  0.00  0.00    -0.646 OA
ENDBRANCH  18  23
ENDBRANCH  15  18
ENDBRANCH   3  14
TORSDOF 5
ENDMDL
MODEL 2
REMARK VINA RESULT:      -5.9      2.550      5.623
REMARK  5 active torsions:
REMARK  status: ('A' for Active; 'I' for Inactive)
REMARK    1  A    between atoms: C_3  and  C_7 
REMARK    2  A    between atoms: C_3  and  C_4 
REMARK    3  A    between atoms: C_4  and  C_5 
REMARK    4  A    between atoms: C_4  and  N_11 
REMARK       I    between atoms: N_11  and  C_12 
REMARK    5  A    between atoms: C_12  and  C_13 
ROOT
HETATM    1  H           1     -23.313  -2.542  -9.992  0.00  0.00     0.275 HD
HETATM    2  H           1     -24.944  -3.040  -9.965  0.00  0.00     0.275 HD
HETATM    3  C           1     -23.679  -4.190  -8.755  0.00  0.00     0.274 C 
HETATM    4  C           1     -22.750  -4.576 -12.164  0.00  0.00     0.027 C 
HETATM    5  C           1     -22.256  -4.701 -10.729  0.00  0.00     0.004 C 
HETATM    6  C           1     -23.384  -5.213  -9.844  0.00  0.00     0.042 C 
HETATM    7  C           1     -23.918  -3.599 -12.215  0.00  0.00     0.229 C 
HETATM    8  H           1     -24.269  -1.585 -11.759  0.00  0.00     0.274 HD
HETATM    9  H           1     -23.130  -2.340 -10.738  0.00  0.00     0.274 HD
HETATM   10  H           1     -22.694  -1.904 -12.329  0.00  0.00     0.274 HD
HETATM   11  N           1     -24.087  -2.892  -9.386  0.00  0.00    -0.067 N 
HETATM   12  N           1     -23.468  -2.255 -11.723  0.00  0.00    -0.079 N 
HETATM   13  H           1     -24.290  -2.192  -8.638  0.00  0.00     0.275 HD
ENDROOT
BRANCH   3  14
HETATM   14  C           1     -22.443  -3.976  -7.917  0.00  0.00     0.249 C 
HETATM   15  N           1     -21.987  -4.978  -7.102  0.00  0.00    -0.344 N 
HETATM   16  H           1     -22.477  -5.862  -7.064  0.00  0.00     0.163 HD
HETATM   17  O           1     -21.857  -2.921  -7.963  0.00  0.00    -0.271 OA
BRANCH  15  18
HETATM   18  C           1     -20.798  -4.771  -6.297  0.00  0.00     0.195 C 
BRANCH  18  19
HETATM   19  C           1     -20.939  -5.528  -4.983  0.00  0.00     0.149 C 
BRANCH  19  20
HETATM   20  C           1     -22.076  -6.515  -5.089  0.00  0.00     0.175 C 
HETATM   21  O           1     -21.844  -7.707  -5.385  0.00  0.00    -0.648 OA
HETATM   22  O           1     -23.250  -6.139  -4.880  0.00  0.00    -0.648 OA
ENDBRANCH  19  20
ENDBRANCH  18  19
BRANCH  18  23
HETATM   23  C           1     -19.590  -5.279  -7.043  0.00  0.00     0.197 C 
HETATM   24  O           1     -18.704  -4.480  -7.418  0.00  0.00    -0.646 OA
HETATM   25  O           1     -19.474  -6.500  -7.289  0.00  0.00    -0.646 OA
ENDBRANCH  18  23
ENDBRANCH  15  18
ENDBRANCH   3  14
TORSDOF 5
ENDMDL
MODEL 3
REMARK VINA RESULT:      -5.7     17.267     19.159
REMARK  5 active torsions:
REMARK  status: ('A' for Active; 'I' for Inactive)
REMARK    1  A    between atoms: C_3  and  C_7 
REMARK    2  A    between atoms: C_3  and  C_4 
REMARK    3  A    between atoms: C_4  and  C_5 
REMARK    4  A    between atoms: C_4  and  N_11 
REMARK       I    between atoms: N_11  and  C_12 
REMARK    5  A    between atoms: C_12  and  C_13 
ROOT
HETATM    1  H           1     -11.741   8.031 -21.780  0.00  0.00     0.275 HD
HETATM    2  H           1     -10.381   9.004 -22.116  0.00  0.00     0.275 HD
HETATM    3  C           1     -10.175   7.809 -20.408  0.00  0.00     0.274 C 
HETATM    4  C           1     -12.782  10.172 -19.909  0.00  0.00     0.027 C 
HETATM    5  C           1     -12.228   8.831 -19.447  0.00  0.00     0.004 C 
HETATM    6  C           1     -10.707   8.877 -19.462  0.00  0.00     0.042 C 
HETATM    7  C           1     -12.297  10.462 -21.324  0.00  0.00     0.229 C 
HETATM    8  H           1     -12.441   9.579 -23.218  0.00  0.00     0.274 HD
HETATM    9  H           1     -12.392   8.460 -21.931  0.00  0.00     0.274 HD
HETATM   10  H           1     -13.817   9.348 -22.237  0.00  0.00     0.274 HD
HETATM   11  N           1     -10.697   8.063 -21.791  0.00  0.00    -0.067 N 
HETATM   12  N           1     -12.773   9.380 -22.248  0.00  0.00    -0.079 N 
HETATM   13  H           1     -10.332   7.330 -22.440  0.00  0.00     0.275 HD
ENDROOT
BRANCH   3  14
HETATM   14  C           1     -10.632   6.449 -19.940  0.00  0.00     0.249 C 
HETATM   15  N           1     -11.439   5.686 -20.740  0.00  0.00    -0.344 N 
HETATM   16  H           1     -11.728   6.032 -21.646  0.00  0.00     0.163 HD
HETATM   17  O           1     -10.287   6.034 -18.859  0.00  0.00    -0.271 OA
BRANCH  15  18
HETATM   18  C           1     -11.877   4.379 -20.290  0.00  0.00     0.195 C 
BRANCH  18  19
HETATM   19  C           1     -13.339   4.177 -20.667  0.00  0.00     0.149 C 
BRANCH  19  20
HETATM   20  C           1     -14.055   5.505 -20.637  0.00  0.00     0.175 C 
HETATM   21  O           1     -14.313   6.052 -19.542  0.00  0.00    -0.648 OA
HETATM   22  O           1     -14.390   6.059 -21.706  0.00  0.00    -0.648 OA
ENDBRANCH  19  20
ENDBRANCH  18  19
BRANCH  18  23
HETATM   23  C           1     -11.037   3.312 -20.946  0.00  0.00     0.197 C 
HETATM   24  O           1     -10.686   3.438 -22.140  0.00  0.00    -0.646 OA
HETATM   25  O           1     -10.692   2.300 -20.297  0.00  0.00    -0.646 OA
ENDBRANCH  18  23
ENDBRANCH  15  18
ENDBRANCH   3  14
TORSDOF 5
ENDMDL
MODEL 4
REMARK VINA RESULT:      -5.6      4.019      6.934
REMARK  5 active torsions:
REMARK  status: ('A' for Active; 'I' for Inactive)
REMARK    1  A    between atoms: C_3  and  C_7 
REMARK    2  A    between atoms: C_3  and  C_4 
REMARK    3  A    between atoms: C_4  and  C_5 
REMARK    4  A    between atoms: C_4  and  N_11 
REMARK       I    between atoms: N_11  and  C_12 
REMARK    5  A    between atoms: C_12  and  C_13 
ROOT
HETATM    1  H           1     -19.872  -5.347  -8.669  0.00  0.00     0.275 HD
HETATM    2  H           1     -19.089  -3.853  -8.414  0.00  0.00     0.275 HD
HETATM    3  C           1     -20.386  -4.413  -6.867  0.00  0.00     0.274 C 
HETATM    4  C           1     -22.241  -3.878  -9.851  0.00  0.00     0.027 C 
HETATM    5  C           1     -22.258  -4.574  -8.496  0.00  0.00     0.004 C 
HETATM    6  C           1     -21.585  -3.685  -7.459  0.00  0.00     0.042 C 
HETATM    7  C           1     -20.800  -3.613 -10.268  0.00  0.00     0.229 C 
HETATM    8  H           1     -19.072  -4.733 -10.653  0.00  0.00     0.274 HD
HETATM    9  H           1     -20.071  -5.392  -9.436  0.00  0.00     0.274 HD
HETATM   10  H           1     -20.522  -5.525 -11.077  0.00  0.00     0.274 HD
HETATM   11  N           1     -19.409  -4.737  -7.959  0.00  0.00    -0.067 N 
HETATM   12  N           1     -20.060  -4.915 -10.366  0.00  0.00    -0.079 N 
HETATM   13  H           1     -18.587  -5.236  -7.551  0.00  0.00     0.275 HD
ENDROOT
BRANCH   3  14
HETATM   14  C           1     -20.847  -5.691  -6.209  0.00  0.00     0.249 C 
HETATM   15  N           1     -20.924  -5.768  -4.844  0.00  0.00    -0.344 N 
HETATM   16  H           1     -20.673  -4.968  -4.277  0.00  0.00     0.163 HD
HETATM   17  O           1     -21.147  -6.645  -6.886  0.00  0.00    -0.271 OA
BRANCH  15  18
HETATM   18  C           1     -21.368  -6.996  -4.212  0.00  0.00     0.195 C 
BRANCH  18  19
HETATM   19  C           1     -20.283  -8.056  -4.348  0.00  0.00     0.149 C 
BRANCH  19  20
HETATM   20  C           1     -20.907  -9.365  -4.763  0.00  0.00     0.175 C 
HETATM   21  O           1     -21.644  -9.987  -3.967  0.00  0.00    -0.648 OA
HETATM   22  O           1     -20.686  -9.829  -5.902  0.00  0.00    -0.648 OA
ENDBRANCH  19  20
ENDBRANCH  18  19
BRANCH  18  23
HETATM   23  C           1     -21.641  -6.740  -2.751  0.00  0.00     0.197 C 
HETATM   24  O           1     -22.518  -5.914  -2.414  0.00  0.00    -0.646 OA
HETATM   25  O           1     -20.990  -7.352  -1.876  0.00  0.00    -0.646 OA
ENDBRANCH  18  23
ENDBRANCH  15  18
ENDBRANCH   3  14
TORSDOF 5
ENDMDL
MODEL 5
REMARK VINA RESULT:      -5.5      3.850      6.722
REMARK  5 active torsions:
REMARK  status: ('A' for Active; 'I' for Inactive)
REMARK    1  A    between atoms: C_3  and  C_7 
REMARK    2  A    between atoms: C_3  and  C_4 
REMARK    3  A    between atoms: C_4  and  C_5 
REMARK    4  A    between atoms: C_4  and  N_11 
REMARK       I    between atoms: N_11  and  C_12 
REMARK    5  A    between atoms: C_12  and  C_13 
ROOT
HETATM    1  H           1     -19.667  -5.024  -8.926  0.00  0.00     0.275 HD
HETATM    2  H           1     -19.157  -3.397  -8.913  0.00  0.00     0.275 HD
HETATM    3  C           1     -20.175  -3.987  -7.180  0.00  0.00     0.274 C 
HETATM    4  C           1     -22.370  -4.143  -9.971  0.00  0.00     0.027 C 
HETATM    5  C           1     -22.129  -4.665  -8.561  0.00  0.00     0.004 C 
HETATM    6  C           1     -21.539  -3.555  -7.702  0.00  0.00     0.042 C 
HETATM    7  C           1     -21.049  -3.682 -10.575  0.00  0.00     0.229 C 
HETATM    8  H           1     -19.186  -4.520 -11.040  0.00  0.00     0.274 HD
HETATM    9  H           1     -19.926  -5.194  -9.658  0.00  0.00     0.274 HD
HETATM   10  H           1     -20.497  -5.598 -11.215  0.00  0.00     0.274 HD
HETATM   11  N           1     -19.262  -4.263  -8.338  0.00  0.00    -0.067 N 
HETATM   12  N           1     -20.092  -4.836 -10.626  0.00  0.00    -0.079 N 
HETATM   13  H           1     -18.326  -4.558  -7.980  0.00  0.00     0.275 HD
ENDROOT
BRANCH   3  14
HETATM   14  C           1     -20.326  -5.238  -6.350  0.00  0.00     0.249 C 
HETATM   15  N           1     -20.879  -5.166  -5.099  0.00  0.00    -0.344 N 
HETATM   16  H           1     -21.188  -4.275  -4.733  0.00  0.00     0.163 HD
HETATM   17  O           1     -19.957  -6.302  -6.787  0.00  0.00    -0.271 OA
BRANCH  15  18
HETATM   18  C           1     -21.024  -6.368  -4.301  0.00  0.00     0.195 C 
BRANCH  18  19
HETATM   19  C           1     -21.221  -5.986  -2.841  0.00  0.00     0.149 C 
BRANCH  19  20
HETATM   20  C           1     -21.223  -7.232  -1.989  0.00  0.00     0.175 C 
HETATM   21  O           1     -20.270  -8.038  -2.057  0.00  0.00    -0.648 OA
HETATM   22  O           1     -22.179  -7.458  -1.215  0.00  0.00    -0.648 OA
ENDBRANCH  19  20
ENDBRANCH  18  19
BRANCH  18  23
HETATM   23  C           1     -22.220  -7.151  -4.783  0.00  0.00     0.197 C 
HETATM   24  O           1     -22.111  -8.371  -5.031  0.00  0.00    -0.646 OA
HETATM   25  O           1     -23.322  -6.578  -4.936  0.00  0.00    -0.646 OA
ENDBRANCH  18  23
ENDBRANCH  15  18
ENDBRANCH   3  14
TORSDOF 5
ENDMDL
MODEL 6
REMARK VINA RESULT:      -5.4      6.676      9.296
REMARK  5 active torsions:
REMARK  status: ('A' for Active; 'I' for Inactive)
REMARK    1  A    between atoms: C_3  and  C_7 
REMARK    2  A    between atoms: C_3  and  C_4 
REMARK    3  A    between atoms: C_4  and  C_5 
REMARK    4  A    between atoms: C_4  and  N_11 
REMARK       I    between atoms: N_11  and  C_12 
REMARK    5  A    between atoms: C_12  and  C_13 
ROOT
HETATM    1  H           1     -20.893 -11.790  -0.422  0.00  0.00     0.275 HD
HETATM    2  H           1     -21.136 -13.127  -1.454  0.00  0.00     0.275 HD
HETATM    3  C           1     -21.537 -11.274  -2.347  0.00  0.00     0.274 C 
HETATM    4  C           1     -23.832 -11.849   0.306  0.00  0.00     0.027 C 
HETATM    5  C           1     -23.188 -10.771  -0.556  0.00  0.00     0.004 C 
HETATM    6  C           1     -23.014 -11.291  -1.976  0.00  0.00     0.042 C 
HETATM    7  C           1     -22.941 -13.084   0.324  0.00  0.00     0.229 C 
HETATM    8  H           1     -20.990 -13.574   0.905  0.00  0.00     0.274 HD
HETATM    9  H           1     -21.157 -11.987   0.300  0.00  0.00     0.274 HD
HETATM   10  H           1     -21.719 -12.368   1.867  0.00  0.00     0.274 HD
HETATM   11  N           1     -20.774 -12.148  -1.396  0.00  0.00    -0.067 N 
HETATM   12  N           1     -21.600 -12.726   0.892  0.00  0.00    -0.079 N 
HETATM   13  H           1     -19.761 -12.137  -1.651  0.00  0.00     0.275 HD
ENDROOT
BRANCH   3  14
HETATM   14  C           1     -21.013  -9.862  -2.262  0.00  0.00     0.249 C 
HETATM   15  N           1     -21.667  -8.850  -2.913  0.00  0.00    -0.344 N 
HETATM   16  H           1     -22.503  -9.049  -3.448  0.00  0.00     0.163 HD
HETATM   17  O           1     -20.016  -9.624  -1.623  0.00  0.00    -0.271 OA
BRANCH  15  18
HETATM   18  C           1     -21.163  -7.492  -2.832  0.00  0.00     0.195 C 
BRANCH  18  19
HETATM   19  C           1     -21.322  -6.812  -4.185  0.00  0.00     0.149 C 
BRANCH  19  20
HETATM   20  C           1     -20.584  -7.603  -5.237  0.00  0.00     0.175 C 
HETATM   21  O           1     -19.534  -8.212  -4.939  0.00  0.00    -0.648 OA
HETATM   22  O           1     -21.024  -7.650  -6.406  0.00  0.00    -0.648 OA
ENDBRANCH  19  20
ENDBRANCH  18  19
BRANCH  18  23
HETATM   23  C           1     -21.941  -6.728  -1.790  0.00  0.00     0.197 C 
HETATM   24  O           1     -22.303  -7.297  -0.736  0.00  0.00    -0.646 OA
HETATM   25  O           1     -22.226  -5.525  -1.979  0.00  0.00    -0.646 OA
ENDBRANCH  18  23
ENDBRANCH  15  18
ENDBRANCH   3  14
TORSDOF 5
ENDMDL
MODEL 7
REMARK VINA RESULT:      -5.3      6.991      9.961
REMARK  5 active torsions:
REMARK  status: ('A' for Active; 'I' for Inactive)
REMARK    1  A    between atoms: C_3  and  C_7 
REMARK    2  A    between atoms: C_3  and  C_4 
REMARK    3  A    between atoms: C_4  and  C_5 
REMARK    4  A    between atoms: C_4  and  N_11 
REMARK       I    between atoms: N_11  and  C_12 
REMARK    5  A    between atoms: C_12  and  C_13 
ROOT
HETATM    1  H           1     -20.695  -8.823  -3.722  0.00  0.00     0.275 HD
HETATM    2  H           1     -19.250  -7.928  -3.577  0.00  0.00     0.275 HD
HETATM    3  C           1     -20.661  -7.520  -2.084  0.00  0.00     0.274 C 
HETATM    4  C           1     -21.939  -6.521  -5.246  0.00  0.00     0.027 C 
HETATM    5  C           1     -22.328  -6.914  -3.827  0.00  0.00     0.004 C 
HETATM    6  C           1     -21.299  -6.367  -2.848  0.00  0.00     0.042 C 
HETATM    7  C           1     -20.568  -7.099  -5.576  0.00  0.00     0.229 C 
HETATM    8  H           1     -19.676  -8.990  -5.694  0.00  0.00     0.274 HD
HETATM    9  H           1     -20.882  -8.864  -4.493  0.00  0.00     0.274 HD
HETATM   10  H           1     -21.322  -8.969  -6.139  0.00  0.00     0.274 HD
HETATM   11  N           1     -19.988  -8.448  -3.051  0.00  0.00    -0.067 N 
HETATM   12  N           1     -20.616  -8.594  -5.467  0.00  0.00    -0.079 N 
HETATM   13  H           1     -19.550  -9.238  -2.526  0.00  0.00     0.275 HD
ENDROOT
BRANCH   3  14
HETATM   14  C           1     -21.727  -8.271  -1.324  0.00  0.00     0.249 C 
HETATM   15  N           1     -21.788  -9.637  -1.402  0.00  0.00    -0.344 N 
HETATM   16  H           1     -21.117 -10.142  -1.967  0.00  0.00     0.163 HD
HETATM   17  O           1     -22.527  -7.668  -0.649  0.00  0.00    -0.271 OA
BRANCH  15  18
HETATM   18  C           1     -22.812 -10.358  -0.671  0.00  0.00     0.195 C 
BRANCH  18  19
HETATM   19  C           1     -23.619 -11.212  -1.641  0.00  0.00     0.149 C 
BRANCH  19  20
HETATM   20  C           1     -22.784 -11.515  -2.860  0.00  0.00     0.175 C 
HETATM   21  O           1     -22.129 -12.578  -2.922  0.00  0.00    -0.648 OA
HETATM   22  O           1     -22.748 -10.703  -3.810  0.00  0.00    -0.648 OA
ENDBRANCH  19  20
ENDBRANCH  18  19
BRANCH  18  23
HETATM   23  C           1     -22.164 -11.246   0.361  0.00  0.00     0.197 C 
HETATM   24  O           1     -22.696 -12.333   0.675  0.00  0.00    -0.646 OA
HETATM   25  O           1     -21.094 -10.895   0.905  0.00  0.00    -0.646 OA
ENDBRANCH  18  23
ENDBRANCH  15  18
ENDBRANCH   3  14
TORSDOF 5
ENDMDL
MODEL 8
REMARK VINA RESULT:      -5.3     16.900     19.395
REMARK  5 active torsions:
REMARK  status: ('A' for Active; 'I' for Inactive)
REMARK    1  A    between atoms: C_3  and  C_7 
REMARK    2  A    between atoms: C_3  and  C_4 
REMARK    3  A    between atoms: C_4  and  C_5 
REMARK    4  A    between atoms: C_4  and  N_11 
REMARK       I    between atoms: N_11  and  C_12 
REMARK    5  A    between atoms: C_12  and  C_13 
ROOT
HETATM    1  H           1     -11.601   8.359 -19.771  0.00  0.00     0.275 HD
HETATM    2  H           1     -11.949  10.020 -19.936  0.00  0.00     0.275 HD
HETATM    3  C           1     -12.503   8.863 -21.592  0.00  0.00     0.274 C 
HETATM    4  C           1      -8.970   8.793 -21.207  0.00  0.00     0.027 C 
HETATM    5  C           1     -10.160   8.058 -21.810  0.00  0.00     0.004 C 
HETATM    6  C           1     -11.179   9.068 -22.317  0.00  0.00     0.042 C 
HETATM    7  C           1      -9.443   9.660 -20.048  0.00  0.00     0.229 C 
HETATM    8  H           1     -10.401   9.390 -18.205  0.00  0.00     0.274 HD
HETATM    9  H           1     -10.895   8.291 -19.414  0.00  0.00     0.274 HD
HETATM   10  H           1      -9.379   8.100 -18.653  0.00  0.00     0.274 HD
HETATM   11  N           1     -12.299   9.053 -20.118  0.00  0.00    -0.067 N 
HETATM   12  N           1     -10.078   8.794 -19.000  0.00  0.00    -0.079 N 
HETATM   13  H           1     -13.208   8.912 -19.621  0.00  0.00     0.275 HD
ENDROOT
BRANCH   3  14
HETATM   14  C           1     -13.009   7.466 -21.854  0.00  0.00     0.249 C 
HETATM   15  N           1     -12.842   6.489 -20.910  0.00  0.00    -0.344 N 
HETATM   16  H           1     -12.381   6.705 -20.035  0.00  0.00     0.163 HD
HETATM   17  O           1     -13.560   7.209 -22.899  0.00  0.00    -0.271 OA
BRANCH  15  18
HETATM   18  C           1     -13.329   5.147 -21.162  0.00  0.00     0.195 C 
BRANCH  18  19
HETATM   19  C           1     -12.352   4.136 -20.577  0.00  0.00     0.149 C 
BRANCH  19  20
HETATM   20  C           1     -11.260   4.863 -19.831  0.00  0.00     0.175 C 
HETATM   21  O           1     -10.124   4.978 -20.341  0.00  0.00    -0.648 OA
HETATM   22  O           1     -11.492   5.350 -18.704  0.00  0.00    -0.648 OA
ENDBRANCH  19  20
ENDBRANCH  18  19
BRANCH  18  23
HETATM   23  C           1     -14.682   4.972 -20.518  0.00  0.00     0.197 C 
HETATM   24  O           1     -15.720   5.254 -21.155  0.00  0.00    -0.646 OA
HETATM   25  O           1     -14.765   4.546 -19.345  0.00  0.00    -0.646 OA
ENDBRANCH  18  23
ENDBRANCH  15  18
ENDBRANCH   3  14
TORSDOF 5
ENDMDL
MODEL 9
REMARK VINA RESULT:      -5.2      8.097     10.279
REMARK  5 active torsions:
REMARK  status: ('A' for Active; 'I' for Inactive)
REMARK    1  A    between atoms: C_3  and  C_7 
REMARK    2  A    between atoms: C_3  and  C_4 
REMARK    3  A    between atoms: C_4  and  C_5 
REMARK    4  A    between atoms: C_4  and  N_11 
REMARK       I    between atoms: N_11  and  C_12 
REMARK    5  A    between atoms: C_12  and  C_13 
ROOT
HETATM    1  H           1     -20.014 -10.079  -5.215  0.00  0.00     0.275 HD
HETATM    2  H           1     -21.242  -9.312  -6.115  0.00  0.00     0.275 HD
HETATM    3  C           1     -21.620  -9.399  -4.057  0.00  0.00     0.274 C 
HETATM    4  C           1     -21.539 -12.688  -5.400  0.00  0.00     0.027 C 
HETATM    5  C           1     -21.393 -11.874  -4.121  0.00  0.00     0.004 C 
HETATM    6  C           1     -22.380 -10.716  -4.140  0.00  0.00     0.042 C 
HETATM    7  C           1     -21.254 -11.798  -6.604  0.00  0.00     0.229 C 
HETATM    8  H           1     -19.661 -10.653  -7.336  0.00  0.00     0.274 HD
HETATM    9  H           1     -19.756 -10.703  -5.633  0.00  0.00     0.274 HD
HETATM   10  H           1     -19.179 -12.057  -6.497  0.00  0.00     0.274 HD
HETATM   11  N           1     -20.690  -9.284  -5.229  0.00  0.00    -0.067 N 
HETATM   12  N           1     -19.856 -11.262  -6.510  0.00  0.00    -0.079 N 
HETATM   13  H           1     -20.170  -8.380  -5.171  0.00  0.00     0.275 HD
ENDROOT
BRANCH   3  14
HETATM   14  C           1     -20.822  -9.358  -2.776  0.00  0.00     0.249 C 
HETATM   15  N           1     -21.462  -9.445  -1.569  0.00  0.00    -0.344 N 
HETATM   16  H           1     -22.469  -9.538  -1.535  0.00  0.00     0.163 HD
HETATM   17  O           1     -19.620  -9.246  -2.816  0.00  0.00    -0.271 OA
BRANCH  15  18
HETATM   18  C           1     -20.695  -9.405  -0.339  0.00  0.00     0.195 C 
BRANCH  18  19
HETATM   19  C           1     -21.362  -8.451   0.643  0.00  0.00     0.149 C 
BRANCH  19  20
HETATM   20  C           1     -22.707  -8.030   0.103  0.00  0.00     0.175 C 
HETATM   21  O           1     -23.729  -8.693   0.383  0.00  0.00    -0.648 OA
HETATM   22  O           1     -22.798  -7.018  -0.625  0.00  0.00    -0.648 OA
ENDBRANCH  19  20
ENDBRANCH  18  19
BRANCH  18  23
HETATM   23  C           1     -20.637 -10.787   0.263  0.00  0.00     0.197 C 
HETATM   24  O           1     -19.541 -11.382   0.359  0.00  0.00    -0.646 OA
HETATM   25  O           1     -21.685 -11.340   0.663  0.00  0.00    -0.646 OA
ENDBRANCH  18  23
ENDBRANCH  15  18
ENDBRANCH   3  14
TORSDOF 5
ENDMDL
