MODEL 1
REMARK VINA RESULT:      -5.0      0.000      0.000
REMARK  8 active torsions:
REMARK  status: ('A' for Active; 'I' for Inactive)
REMARK    1  A    between atoms: S_1  and  C_5 
REMARK    2  A    between atoms: N_2  and  C_6 
REMARK    3  A    between atoms: C_3  and  S_4 
REMARK    4  A    between atoms: C_3  and  C_12 
REMARK    5  A    between atoms: C_5  and  C_6 
REMARK    6  A    between atoms: C_6  and  C_7 
REMARK       I    between atoms: C_7  and  N_8 
REMARK    7  A    between atoms: N_8  and  C_12 
REMARK    8  A    between atoms: C_11  and  C_12 
ROOT
HETATM    1  C           1     -34.303  -2.549 -12.284  0.00  0.00     0.249 C 
HETATM    2  N           1     -34.972  -1.663 -13.085  0.00  0.00    -0.344 N 
HETATM    3  O           1     -33.803  -2.172 -11.251  0.00  0.00    -0.271 OA
HETATM    4  H           1     -35.390  -1.979 -13.951  0.00  0.00     0.163 HD
ENDROOT
BRANCH   1   5
HETATM    5  C           1     -34.191  -3.998 -12.693  0.00  0.00     0.283 C 
BRANCH   5   6
HETATM    6  N           1     -33.678  -4.082 -14.100  0.00  0.00    -0.066 N 
HETATM    7  H           1     -33.157  -3.207 -14.336  0.00  0.00     0.275 HD
HETATM    8  H           1     -33.037  -4.903 -14.188  0.00  0.00     0.275 HD
HETATM    9  H           1     -34.483  -4.196 -14.757  0.00  0.00     0.275 HD
ENDBRANCH   5   6
BRANCH   5  10
HETATM   10  C           1     -33.226  -4.716 -11.759  0.00  0.00     0.113 C 
BRANCH  10  11
HETATM   11  S           1     -34.131  -5.954 -10.788  0.00  0.00    -0.180 SA
HETATM   12  H           1     -35.261  -5.236 -10.663  0.00  0.00     0.101 HD
ENDBRANCH  10  11
ENDBRANCH   5  10
ENDBRANCH   1   5
BRANCH   2  13
HETATM   13  C           1     -35.081  -0.271 -12.693  0.00  0.00     0.194 C 
BRANCH  13  14
HETATM   14  C           1     -35.163   0.602 -13.938  0.00  0.00     0.106 C 
BRANCH  14  15
HETATM   15  S           1     -35.648  -0.415 -15.361  0.00  0.00    -0.180 SA
HETATM   16  H           1     -34.775  -1.411 -15.126  0.00  0.00     0.101 HD
ENDBRANCH  14  15
ENDBRANCH  13  14
BRANCH  13  17
HETATM   17  C           1     -36.325  -0.080 -11.860  0.00  0.00     0.197 C 
HETATM   18  O           1     -36.251   0.489 -10.749  0.00  0.00    -0.646 OA
HETATM   19  O           1     -37.428  -0.488 -12.281  0.00  0.00    -0.646 OA
ENDBRANCH  13  17
ENDBRANCH   2  13
TORSDOF 8
ENDMDL
MODEL 2
REMARK VINA RESULT:      -4.8      2.451      2.686
REMARK  8 active torsions:
REMARK  status: ('A' for Active; 'I' for Inactive)
REMARK    1  A    between atoms: S_1  and  C_5 
REMARK    2  A    between atoms: N_2  and  C_6 
REMARK    3  A    between atoms: C_3  and  S_4 
REMARK    4  A    between atoms: C_3  and  C_12 
REMARK    5  A    between atoms: C_5  and  C_6 
REMARK    6  A    between atoms: C_6  and  C_7 
REMARK       I    between atoms: C_7  and  N_8 
REMARK    7  A    between atoms: N_8  and  C_12 
REMARK    8  A    between atoms: C_11  and  C_12 
ROOT
HETATM    1  C           1     -34.622  -2.285 -12.696  0.00  0.00     0.249 C 
HETATM    2  N           1     -35.310  -1.115 -12.520  0.00  0.00    -0.344 N 
HETATM    3  O           1     -34.651  -2.849 -13.764  0.00  0.00    -0.271 OA
HETATM    4  H           1     -35.287  -0.643 -11.625  0.00  0.00     0.163 HD
ENDROOT
BRANCH   1   5
HETATM    5  C           1     -33.827  -2.871 -11.555  0.00  0.00     0.283 C 
BRANCH   5   6
HETATM    6  N           1     -33.500  -1.790 -10.567  0.00  0.00    -0.066 N 
HETATM    7  H           1     -32.516  -1.907 -10.234  0.00  0.00     0.275 HD
HETATM    8  H           1     -33.603  -0.857 -11.026  0.00  0.00     0.275 HD
HETATM    9  H           1     -34.153  -1.854  -9.753  0.00  0.00     0.275 HD
ENDBRANCH   5   6
BRANCH   5  10
HETATM   10  C           1     -34.647  -3.954 -10.867  0.00  0.00     0.113 C 
BRANCH  10  11
HETATM   11  S           1     -33.828  -5.560 -11.077  0.00  0.00    -0.180 SA
HETATM   12  H           1     -34.833  -6.298 -10.572  0.00  0.00     0.101 HD
ENDBRANCH  10  11
ENDBRANCH   5  10
ENDBRANCH   1   5
BRANCH   2  13
HETATM   13  C           1     -36.075  -0.552 -13.616  0.00  0.00     0.194 C 
BRANCH  13  14
HETATM   14  C           1     -37.452  -0.139 -13.115  0.00  0.00     0.106 C 
BRANCH  14  15
HETATM   15  S           1     -37.468  -0.155 -11.300  0.00  0.00    -0.180 SA
HETATM   16  H           1     -38.798  -0.001 -11.170  0.00  0.00     0.101 HD
ENDBRANCH  14  15
ENDBRANCH  13  14
BRANCH  13  17
HETATM   17  C           1     -35.354   0.657 -14.162  0.00  0.00     0.197 C 
HETATM   18  O           1     -34.454   1.205 -13.488  0.00  0.00    -0.646 OA
HETATM   19  O           1     -35.657   1.109 -15.286  0.00  0.00    -0.646 OA
ENDBRANCH  13  17
ENDBRANCH   2  13
TORSDOF 8
ENDMDL
MODEL 3
REMARK VINA RESULT:      -4.8     12.323     13.905
REMARK  8 active torsions:
REMARK  status: ('A' for Active; 'I' for Inactive)
REMARK    1  A    between atoms: S_1  and  C_5 
REMARK    2  A    between atoms: N_2  and  C_6 
REMARK    3  A    between atoms: C_3  and  S_4 
REMARK    4  A    between atoms: C_3  and  C_12 
REMARK    5  A    between atoms: C_5  and  C_6 
REMARK    6  A    between atoms: C_6  and  C_7 
REMARK       I    between atoms: C_7  and  N_8 
REMARK    7  A    between atoms: N_8  and  C_12 
REMARK    8  A    between atoms: C_11  and  C_12 
ROOT
HETATM    1  C           1     -21.664  -4.516  -7.550  0.00  0.00     0.249 C 
HETATM    2  N           1     -22.257  -4.696  -8.770  0.00  0.00    -0.344 N 
HETATM    3  O           1     -21.602  -3.412  -7.064  0.00  0.00    -0.271 OA
HETATM    4  H           1     -22.309  -5.622  -9.177  0.00  0.00     0.163 HD
ENDROOT
BRANCH   1   5
HETATM    5  C           1     -21.087  -5.699  -6.811  0.00  0.00     0.283 C 
BRANCH   5   6
HETATM    6  N           1     -19.874  -6.200  -7.538  0.00  0.00    -0.066 N 
HETATM    7  H           1     -19.497  -5.444  -8.153  0.00  0.00     0.275 HD
HETATM    8  H           1     -19.144  -6.481  -6.844  0.00  0.00     0.275 HD
HETATM    9  H           1     -20.136  -7.026  -8.123  0.00  0.00     0.275 HD
ENDBRANCH   5   6
BRANCH   5  10
HETATM   10  C           1     -20.693  -5.275  -5.402  0.00  0.00     0.113 C 
BRANCH  10  11
HETATM   11  S           1     -21.505  -6.360  -4.194  0.00  0.00    -0.180 SA
HETATM   12  H           1     -22.713  -5.775  -4.269  0.00  0.00     0.101 HD
ENDBRANCH  10  11
ENDBRANCH   5  10
ENDBRANCH   1   5
BRANCH   2  13
HETATM   13  C           1     -22.812  -3.561  -9.481  0.00  0.00     0.194 C 
BRANCH  13  14
HETATM   14  C           1     -22.139  -3.435 -10.841  0.00  0.00     0.106 C 
BRANCH  14  15
HETATM   15  S           1     -20.529  -4.271 -10.800  0.00  0.00    -0.180 SA
HETATM   16  H           1     -20.069  -3.636  -9.707  0.00  0.00     0.101 HD
ENDBRANCH  14  15
ENDBRANCH  13  14
BRANCH  13  17
HETATM   17  C           1     -24.296  -3.762  -9.669  0.00  0.00     0.197 C 
HETATM   18  O           1     -24.743  -4.898  -9.939  0.00  0.00    -0.646 OA
HETATM   19  O           1     -25.077  -2.794  -9.556  0.00  0.00    -0.646 OA
ENDBRANCH  13  17
ENDBRANCH   2  13
TORSDOF 8
ENDMDL
MODEL 4
REMARK VINA RESULT:      -4.4     12.540     14.159
REMARK  8 active torsions:
REMARK  status: ('A' for Active; 'I' for Inactive)
REMARK    1  A    between atoms: S_1  and  C_5 
REMARK    2  A    between atoms: N_2  and  C_6 
REMARK    3  A    between atoms: C_3  and  S_4 
REMARK    4  A    between atoms: C_3  and  C_12 
REMARK    5  A    between atoms: C_5  and  C_6 
REMARK    6  A    between atoms: C_6  and  C_7 
REMARK       I    between atoms: C_7  and  N_8 
REMARK    7  A    between atoms: N_8  and  C_12 
REMARK    8  A    between atoms: C_11  and  C_12 
ROOT
HETATM    1  C           1     -20.665  -4.359  -9.201  0.00  0.00     0.249 C 
HETATM    2  N           1     -21.899  -4.004  -9.676  0.00  0.00    -0.344 N 
HETATM    3  O           1     -19.909  -4.994  -9.897  0.00  0.00    -0.271 OA
HETATM    4  H           1     -22.533  -3.472  -9.093  0.00  0.00     0.163 HD
ENDROOT
BRANCH   1   5
HETATM    5  C           1     -20.251  -3.956  -7.807  0.00  0.00     0.283 C 
BRANCH   5   6
HETATM    6  N           1     -21.435  -3.398  -7.075  0.00  0.00    -0.066 N 
HETATM    7  H           1     -21.261  -3.438  -6.045  0.00  0.00     0.275 HD
HETATM    8  H           1     -21.586  -2.405  -7.364  0.00  0.00     0.275 HD
HETATM    9  H           1     -22.284  -3.962  -7.306  0.00  0.00     0.275 HD
ENDBRANCH   5   6
BRANCH   5  10
HETATM   10  C           1     -19.723  -5.175  -7.062  0.00  0.00     0.113 C 
BRANCH  10  11
HETATM   11  S           1     -20.629  -5.370  -5.500  0.00  0.00    -0.180 SA
HETATM   12  H           1     -20.620  -4.066  -5.170  0.00  0.00     0.101 HD
ENDBRANCH  10  11
ENDBRANCH   5  10
ENDBRANCH   1   5
BRANCH   2  13
HETATM   13  C           1     -22.298  -4.390 -11.016  0.00  0.00     0.194 C 
BRANCH  13  14
HETATM   14  C           1     -23.779  -4.745 -11.022  0.00  0.00     0.106 C 
BRANCH  14  15
HETATM   15  S           1     -24.683  -3.591  -9.951  0.00  0.00    -0.180 SA
HETATM   16  H           1     -23.656  -3.337  -9.121  0.00  0.00     0.101 HD
ENDBRANCH  14  15
ENDBRANCH  13  14
BRANCH  13  17
HETATM   17  C           1     -22.050  -3.243 -11.965  0.00  0.00     0.197 C 
HETATM   18  O           1     -21.308  -2.298 -11.622  0.00  0.00    -0.646 OA
HETATM   19  O           1     -22.587  -3.238 -13.093  0.00  0.00    -0.646 OA
ENDBRANCH  13  17
ENDBRANCH   2  13
TORSDOF 8
ENDMDL
MODEL 5
REMARK VINA RESULT:      -4.3      9.639     11.020
REMARK  8 active torsions:
REMARK  status: ('A' for Active; 'I' for Inactive)
REMARK    1  A    between atoms: S_1  and  C_5 
REMARK    2  A    between atoms: N_2  and  C_6 
REMARK    3  A    between atoms: C_3  and  S_4 
REMARK    4  A    between atoms: C_3  and  C_12 
REMARK    5  A    between atoms: C_5  and  C_6 
REMARK    6  A    between atoms: C_6  and  C_7 
REMARK       I    between atoms: C_7  and  N_8 
REMARK    7  A    between atoms: N_8  and  C_12 
REMARK    8  A    between atoms: C_11  and  C_12 
ROOT
HETATM    1  C           1     -26.327  -6.337 -18.068  0.00  0.00     0.249 C 
HETATM    2  N           1     -27.638  -6.617 -18.345  0.00  0.00    -0.344 N 
HETATM    3  O           1     -26.024  -5.852 -17.004  0.00  0.00    -0.271 OA
HETATM    4  H           1     -27.892  -7.023 -19.237  0.00  0.00     0.163 HD
ENDROOT
BRANCH   1   5
HETATM    5  C           1     -25.260  -6.635 -19.093  0.00  0.00     0.283 C 
BRANCH   5   6
HETATM    6  N           1     -24.170  -7.447 -18.459  0.00  0.00    -0.066 N 
HETATM    7  H           1     -23.469  -7.720 -19.185  0.00  0.00     0.275 HD
HETATM    8  H           1     -23.700  -6.880 -17.718  0.00  0.00     0.275 HD
HETATM    9  H           1     -24.581  -8.308 -18.032  0.00  0.00     0.275 HD
ENDBRANCH   5   6
BRANCH   5  10
HETATM   10  C           1     -25.870  -7.419 -20.248  0.00  0.00     0.113 C 
BRANCH  10  11
HETATM   11  S           1     -24.573  -7.834 -21.450  0.00  0.00    -0.180 SA
HETATM   12  H           1     -25.397  -7.961 -22.506  0.00  0.00     0.101 HD
ENDBRANCH  10  11
ENDBRANCH   5  10
ENDBRANCH   1   5
BRANCH   2  13
HETATM   13  C           1     -28.663  -6.331 -17.361  0.00  0.00     0.194 C 
BRANCH  13  14
HETATM   14  C           1     -29.993  -6.097 -18.066  0.00  0.00     0.106 C 
BRANCH  14  15
HETATM   15  S           1     -31.175  -5.362 -16.901  0.00  0.00    -0.180 SA
HETATM   16  H           1     -30.327  -5.304 -15.858  0.00  0.00     0.101 HD
ENDBRANCH  14  15
ENDBRANCH  13  14
BRANCH  13  17
HETATM   17  C           1     -28.794  -7.502 -16.416  0.00  0.00     0.197 C 
HETATM   18  O           1     -28.318  -7.429 -15.263  0.00  0.00    -0.646 OA
HETATM   19  O           1     -29.377  -8.542 -16.788  0.00  0.00    -0.646 OA
ENDBRANCH  13  17
ENDBRANCH   2  13
TORSDOF 8
ENDMDL
MODEL 6
REMARK VINA RESULT:      -4.2      9.115     10.444
REMARK  8 active torsions:
REMARK  status: ('A' for Active; 'I' for Inactive)
REMARK    1  A    between atoms: S_1  and  C_5 
REMARK    2  A    between atoms: N_2  and  C_6 
REMARK    3  A    between atoms: C_3  and  S_4 
REMARK    4  A    between atoms: C_3  and  C_12 
REMARK    5  A    between atoms: C_5  and  C_6 
REMARK    6  A    between atoms: C_6  and  C_7 
REMARK       I    between atoms: C_7  and  N_8 
REMARK    7  A    between atoms: N_8  and  C_12 
REMARK    8  A    between atoms: C_11  and  C_12 
ROOT
HETATM    1  C           1     -27.378  -6.345 -17.153  0.00  0.00     0.249 C 
HETATM    2  N           1     -28.274  -6.761 -18.100  0.00  0.00    -0.344 N 
HETATM    3  O           1     -27.765  -6.024 -16.054  0.00  0.00    -0.271 OA
HETATM    4  H           1     -27.950  -7.030 -19.021  0.00  0.00     0.163 HD
ENDROOT
BRANCH   1   5
HETATM    5  C           1     -25.906  -6.287 -17.482  0.00  0.00     0.283 C 
BRANCH   5   6
HETATM    6  N           1     -25.162  -7.261 -16.617  0.00  0.00    -0.066 N 
HETATM    7  H           1     -24.155  -7.279 -16.896  0.00  0.00     0.275 HD
HETATM    8  H           1     -25.241  -6.968 -15.617  0.00  0.00     0.275 HD
HETATM    9  H           1     -25.573  -8.215 -16.735  0.00  0.00     0.275 HD
ENDBRANCH   5   6
BRANCH   5  10
HETATM   10  C           1     -25.698  -6.649 -18.946  0.00  0.00     0.113 C 
BRANCH  10  11
HETATM   11  S           1     -23.998  -7.237 -19.190  0.00  0.00    -0.180 SA
HETATM   12  H           1     -23.747  -7.480 -17.891  0.00  0.00     0.101 HD
ENDBRANCH  10  11
ENDBRANCH   5  10
ENDBRANCH   1   5
BRANCH   2  13
HETATM   13  C           1     -29.688  -6.817 -17.785  0.00  0.00     0.194 C 
BRANCH  13  14
HETATM   14  C           1     -30.323  -5.459 -18.055  0.00  0.00     0.106 C 
BRANCH  14  15
HETATM   15  S           1     -31.391  -5.001 -16.661  0.00  0.00    -0.180 SA
HETATM   16  H           1     -30.438  -5.096 -15.716  0.00  0.00     0.101 HD
ENDBRANCH  14  15
ENDBRANCH  13  14
BRANCH  13  17
HETATM   17  C           1     -30.354  -7.864 -18.645  0.00  0.00     0.197 C 
HETATM   18  O           1     -29.666  -8.756 -19.188  0.00  0.00    -0.646 OA
HETATM   19  O           1     -31.592  -7.840 -18.813  0.00  0.00    -0.646 OA
ENDBRANCH  13  17
ENDBRANCH   2  13
TORSDOF 8
ENDMDL
MODEL 7
REMARK VINA RESULT:      -4.1     24.945     25.848
REMARK  8 active torsions:
REMARK  status: ('A' for Active; 'I' for Inactive)
REMARK    1  A    between atoms: S_1  and  C_5 
REMARK    2  A    between atoms: N_2  and  C_6 
REMARK    3  A    between atoms: C_3  and  S_4 
REMARK    4  A    between atoms: C_3  and  C_12 
REMARK    5  A    between atoms: C_5  and  C_6 
REMARK    6  A    between atoms: C_6  and  C_7 
REMARK       I    between atoms: C_7  and  N_8 
REMARK    7  A    between atoms: N_8  and  C_12 
REMARK    8  A    between atoms: C_11  and  C_12 
ROOT
HETATM    1  C           1     -11.523   6.379 -20.762  0.00  0.00     0.249 C 
HETATM    2  N           1     -12.116   5.215 -20.352  0.00  0.00    -0.344 N 
HETATM    3  O           1     -11.860   6.896 -21.801  0.00  0.00    -0.271 OA
HETATM    4  H           1     -11.833   4.781 -19.483  0.00  0.00     0.163 HD
ENDROOT
BRANCH   1   5
HETATM    5  C           1     -10.448   7.015 -19.916  0.00  0.00     0.283 C 
BRANCH   5   6
HETATM    6  N           1      -9.108   6.474 -20.321  0.00  0.00    -0.066 N 
HETATM    7  H           1      -9.010   6.522 -21.360  0.00  0.00     0.275 HD
HETATM    8  H           1      -8.354   7.043 -19.873  0.00  0.00     0.275 HD
HETATM    9  H           1      -9.026   5.480 -20.009  0.00  0.00     0.275 HD
ENDBRANCH   5   6
BRANCH   5  10
HETATM   10  C           1     -10.467   8.524 -20.121  0.00  0.00     0.113 C 
BRANCH  10  11
HETATM   11  S           1      -9.070   9.011 -21.174  0.00  0.00    -0.180 SA
HETATM   12  H           1      -9.680   8.751 -22.344  0.00  0.00     0.101 HD
ENDBRANCH  10  11
ENDBRANCH   5  10
ENDBRANCH   1   5
BRANCH   2  13
HETATM   13  C           1     -13.150   4.603 -21.165  0.00  0.00     0.194 C 
BRANCH  13  14
HETATM   14  C           1     -12.955   3.093 -21.181  0.00  0.00     0.106 C 
BRANCH  14  15
HETATM   15  S           1     -11.236   2.698 -20.753  0.00  0.00    -0.180 SA
HETATM   16  H           1     -11.533   1.821 -19.777  0.00  0.00     0.101 HD
ENDBRANCH  14  15
ENDBRANCH  13  14
BRANCH  13  17
HETATM   17  C           1     -14.505   4.931 -20.585  0.00  0.00     0.197 C 
HETATM   18  O           1     -15.423   5.331 -21.332  0.00  0.00    -0.646 OA
HETATM   19  O           1     -14.707   4.801 -19.359  0.00  0.00    -0.646 OA
ENDBRANCH  13  17
ENDBRANCH   2  13
TORSDOF 8
ENDMDL
MODEL 8
REMARK VINA RESULT:      -4.1     14.951     16.843
REMARK  8 active torsions:
REMARK  status: ('A' for Active; 'I' for Inactive)
REMARK    1  A    between atoms: S_1  and  C_5 
REMARK    2  A    between atoms: N_2  and  C_6 
REMARK    3  A    between atoms: C_3  and  S_4 
REMARK    4  A    between atoms: C_3  and  C_12 
REMARK    5  A    between atoms: C_5  and  C_6 
REMARK    6  A    between atoms: C_6  and  C_7 
REMARK       I    between atoms: C_7  and  N_8 
REMARK    7  A    between atoms: N_8  and  C_12 
REMARK    8  A    between atoms: C_11  and  C_12 
ROOT
HETATM    1  C           1     -21.424  -5.780  -5.678  0.00  0.00     0.249 C 
HETATM    2  N           1     -20.847  -6.686  -4.830  0.00  0.00    -0.344 N 
HETATM    3  O           1     -22.624  -5.635  -5.683  0.00  0.00    -0.271 OA
HETATM    4  H           1     -19.842  -6.808  -4.826  0.00  0.00     0.163 HD
ENDROOT
BRANCH   1   5
HETATM    5  C           1     -20.561  -4.961  -6.607  0.00  0.00     0.283 C 
BRANCH   5   6
HETATM    6  N           1     -20.003  -5.847  -7.681  0.00  0.00    -0.066 N 
HETATM    7  H           1     -20.319  -6.830  -7.524  0.00  0.00     0.275 HD
HETATM    8  H           1     -20.342  -5.517  -8.614  0.00  0.00     0.275 HD
HETATM    9  H           1     -18.959  -5.808  -7.656  0.00  0.00     0.275 HD
ENDBRANCH   5   6
BRANCH   5  10
HETATM   10  C           1     -21.400  -3.861  -7.242  0.00  0.00     0.113 C 
BRANCH  10  11
HETATM   11  S           1     -21.764  -4.296  -8.967  0.00  0.00    -0.180 SA
HETATM   12  H           1     -20.594  -3.862  -9.470  0.00  0.00     0.101 HD
ENDBRANCH  10  11
ENDBRANCH   5  10
ENDBRANCH   1   5
BRANCH   2  13
HETATM   13  C           1     -21.675  -7.473  -3.937  0.00  0.00     0.194 C 
BRANCH  13  14
HETATM   14  C           1     -21.168  -8.908  -3.906  0.00  0.00     0.106 C 
BRANCH  14  15
HETATM   15  S           1     -19.546  -8.996  -4.716  0.00  0.00    -0.180 SA
HETATM   16  H           1     -18.948  -9.721  -3.754  0.00  0.00     0.101 HD
ENDBRANCH  14  15
ENDBRANCH  13  14
BRANCH  13  17
HETATM   17  C           1     -21.614  -6.887  -2.547  0.00  0.00     0.197 C 
HETATM   18  O           1     -22.338  -5.912  -2.248  0.00  0.00    -0.646 OA
HETATM   19  O           1     -20.841  -7.376  -1.696  0.00  0.00    -0.646 OA
ENDBRANCH  13  17
ENDBRANCH   2  13
TORSDOF 8
ENDMDL
MODEL 9
REMARK VINA RESULT:      -4.0     14.932     16.764
REMARK  8 active torsions:
REMARK  status: ('A' for Active; 'I' for Inactive)
REMARK    1  A    between atoms: S_1  and  C_5 
REMARK    2  A    between atoms: N_2  and  C_6 
REMARK    3  A    between atoms: C_3  and  S_4 
REMARK    4  A    between atoms: C_3  and  C_12 
REMARK    5  A    between atoms: C_5  and  C_6 
REMARK    6  A    between atoms: C_6  and  C_7 
REMARK       I    between atoms: C_7  and  N_8 
REMARK    7  A    between atoms: N_8  and  C_12 
REMARK    8  A    between atoms: C_11  and  C_12 
ROOT
HETATM    1  C           1     -20.985  -5.306  -6.827  0.00  0.00     0.249 C 
HETATM    2  N           1     -20.986  -6.636  -6.502  0.00  0.00    -0.344 N 
HETATM    3  O           1     -20.656  -4.484  -6.006  0.00  0.00    -0.271 OA
HETATM    4  H           1     -21.263  -7.325  -7.189  0.00  0.00     0.163 HD
ENDROOT
BRANCH   1   5
HETATM    5  C           1     -21.396  -4.869  -8.212  0.00  0.00     0.283 C 
BRANCH   5   6
HETATM    6  N           1     -22.376  -3.737  -8.108  0.00  0.00    -0.066 N 
HETATM    7  H           1     -22.303  -3.133  -8.957  0.00  0.00     0.275 HD
HETATM    8  H           1     -23.345  -4.122  -8.037  0.00  0.00     0.275 HD
HETATM    9  H           1     -22.162  -3.169  -7.257  0.00  0.00     0.275 HD
ENDBRANCH   5   6
BRANCH   5  10
HETATM   10  C           1     -20.168  -4.406  -8.984  0.00  0.00     0.113 C 
BRANCH  10  11
HETATM   11  S           1     -20.590  -4.222 -10.740  0.00  0.00    -0.180 SA
HETATM   12  H           1     -20.068  -5.397 -11.134  0.00  0.00     0.101 HD
ENDBRANCH  10  11
ENDBRANCH   5  10
ENDBRANCH   1   5
BRANCH   2  13
HETATM   13  C           1     -20.592  -7.057  -5.172  0.00  0.00     0.194 C 
BRANCH  13  14
HETATM   14  C           1     -21.829  -7.198  -4.296  0.00  0.00     0.106 C 
BRANCH  14  15
HETATM   15  S           1     -21.576  -6.298  -2.740  0.00  0.00    -0.180 SA
HETATM   16  H           1     -21.830  -5.076  -3.242  0.00  0.00     0.101 HD
ENDBRANCH  14  15
ENDBRANCH  13  14
BRANCH  13  17
HETATM   17  C           1     -19.880  -8.386  -5.256  0.00  0.00     0.197 C 
HETATM   18  O           1     -18.919  -8.531  -6.042  0.00  0.00    -0.646 OA
HETATM   19  O           1     -20.252  -9.340  -4.540  0.00  0.00    -0.646 OA
ENDBRANCH  13  17
ENDBRANCH   2  13
TORSDOF 8
ENDMDL
