MODEL 1
REMARK VINA RESULT:      -5.6      0.000      0.000
REMARK  11 active torsions:
REMARK  status: ('A' for Active; 'I' for Inactive)
REMARK    1  A    between atoms: C_4  and  C_23 
REMARK    2  A    between atoms: C_5  and  C_6 
REMARK    3  A    between atoms: C_5  and  S_10 
REMARK    4  A    between atoms: C_6  and  C_16 
REMARK    5  A    between atoms: C_6  and  N_11 
REMARK       I    between atoms: C_16  and  N_17 
REMARK    6  A    between atoms: N_17  and  C_23 
REMARK    7  A    between atoms: C_19  and  C_20 
REMARK    8  A    between atoms: C_19  and  C_24 
REMARK    9  A    between atoms: C_20  and  C_21 
REMARK   10  A    between atoms: C_21  and  N_22 
REMARK   11  A    between atoms: C_23  and  C_24 
ROOT
HETATM    1  H           1     -35.278   0.189 -12.395  0.00  0.00     0.163 HD
HETATM    2  O           1     -34.964  -2.436 -14.083  0.00  0.00    -0.271 OA
HETATM    3  C           1     -35.060  -1.252 -13.864  0.00  0.00     0.249 C 
HETATM    4  N           1     -35.199  -0.803 -12.578  0.00  0.00    -0.345 N 
ENDROOT
BRANCH   4   5
HETATM    5  C           1     -35.231  -1.748 -11.479  0.00  0.00     0.185 C 
BRANCH   5   6
HETATM    6  C           1     -36.253  -1.302 -10.463  0.00  0.00     0.196 C 
HETATM    7  O           1     -35.885  -0.713  -9.423  0.00  0.00    -0.646 OA
HETATM    8  O           1     -37.467  -1.522 -10.660  0.00  0.00    -0.646 OA
ENDBRANCH   5   6
BRANCH   5   9
HETATM    9  C           1     -33.857  -1.811 -10.826  0.00  0.00     0.036 C 
BRANCH   9  10
HETATM   10  C           1     -33.185  -3.131 -11.182  0.00  0.00     0.004 C 
BRANCH  10  11
HETATM   11  C           1     -33.944  -4.280 -10.530  0.00  0.00     0.027 C 
BRANCH  11  12
HETATM   12  C           1     -33.905  -5.498 -11.445  0.00  0.00     0.229 C 
BRANCH  12  13
HETATM   13  N           1     -34.681  -5.209 -12.696  0.00  0.00    -0.079 N 
HETATM   14  H           1     -35.609  -5.687 -12.648  0.00  0.00     0.274 HD
HETATM   15  H           1     -34.825  -4.178 -12.786  0.00  0.00     0.274 HD
HETATM   16  H           1     -34.150  -5.561 -13.524  0.00  0.00     0.274 HD
ENDBRANCH  12  13
ENDBRANCH  11  12
ENDBRANCH  10  11
ENDBRANCH   9  10
ENDBRANCH   5   9
ENDBRANCH   4   5
BRANCH   3  17
HETATM   17  C           1     -35.027  -0.268 -15.008  0.00  0.00     0.283 C 
BRANCH  17  18
HETATM   18  C           1     -36.224   0.666 -14.909  0.00  0.00     0.113 C 
BRANCH  18  19
HETATM   19  S           1     -37.703  -0.174 -15.542  0.00  0.00    -0.180 SA
HETATM   20  H           1     -37.591  -1.264 -14.761  0.00  0.00     0.101 HD
ENDBRANCH  18  19
ENDBRANCH  17  18
BRANCH  17  21
HETATM   21  N           1     -35.080  -1.014 -16.309  0.00  0.00    -0.066 N 
HETATM   22  H           1     -35.403  -1.992 -16.137  0.00  0.00     0.275 HD
HETATM   23  H           1     -35.746  -0.536 -16.957  0.00  0.00     0.275 HD
HETATM   24  H           1     -34.128  -1.033 -16.738  0.00  0.00     0.275 HD
ENDBRANCH  17  21
ENDBRANCH   3  17
TORSDOF 11
ENDMDL
MODEL 2
REMARK VINA RESULT:      -5.6      1.860      2.226
REMARK  11 active torsions:
REMARK  status: ('A' for Active; 'I' for Inactive)
REMARK    1  A    between atoms: C_4  and  C_23 
REMARK    2  A    between atoms: C_5  and  C_6 
REMARK    3  A    between atoms: C_5  and  S_10 
REMARK    4  A    between atoms: C_6  and  C_16 
REMARK    5  A    between atoms: C_6  and  N_11 
REMARK       I    between atoms: C_16  and  N_17 
REMARK    6  A    between atoms: N_17  and  C_23 
REMARK    7  A    between atoms: C_19  and  C_20 
REMARK    8  A    between atoms: C_19  and  C_24 
REMARK    9  A    between atoms: C_20  and  C_21 
REMARK   10  A    between atoms: C_21  and  N_22 
REMARK   11  A    between atoms: C_23  and  C_24 
ROOT
HETATM    1  H           1     -33.990  -1.274 -13.602  0.00  0.00     0.163 HD
HETATM    2  O           1     -37.021  -0.922 -12.873  0.00  0.00    -0.271 OA
HETATM    3  C           1     -35.982  -0.729 -13.457  0.00  0.00     0.249 C 
HETATM    4  N           1     -34.861  -1.436 -13.112  0.00  0.00    -0.345 N 
ENDROOT
BRANCH   4   5
HETATM    5  C           1     -34.921  -2.416 -12.045  0.00  0.00     0.185 C 
BRANCH   5   6
HETATM    6  C           1     -34.477  -1.779 -10.752  0.00  0.00     0.196 C 
HETATM    7  O           1     -35.321  -1.271  -9.982  0.00  0.00    -0.646 OA
HETATM    8  O           1     -33.265  -1.760 -10.449  0.00  0.00    -0.646 OA
ENDBRANCH   5   6
BRANCH   5   9
HETATM    9  C           1     -34.004  -3.584 -12.379  0.00  0.00     0.036 C 
BRANCH   9  10
HETATM   10  C           1     -34.729  -4.895 -12.103  0.00  0.00     0.004 C 
BRANCH  10  11
HETATM   11  C           1     -34.454  -5.338 -10.672  0.00  0.00     0.027 C 
BRANCH  11  12
HETATM   12  C           1     -34.268  -6.849 -10.635  0.00  0.00     0.229 C 
BRANCH  12  13
HETATM   13  N           1     -35.073  -7.425  -9.508  0.00  0.00    -0.079 N 
HETATM   14  H           1     -36.090  -7.382  -9.749  0.00  0.00     0.274 HD
HETATM   15  H           1     -34.795  -8.420  -9.354  0.00  0.00     0.274 HD
HETATM   16  H           1     -34.897  -6.874  -8.638  0.00  0.00     0.274 HD
ENDBRANCH  12  13
ENDBRANCH  11  12
ENDBRANCH  10  11
ENDBRANCH   9  10
ENDBRANCH   5   9
ENDBRANCH   4   5
BRANCH   3  17
HETATM   17  C           1     -35.918   0.292 -14.567  0.00  0.00     0.283 C 
BRANCH  17  18
HETATM   18  C           1     -36.669  -0.233 -15.783  0.00  0.00     0.113 C 
BRANCH  18  19
HETATM   19  S           1     -35.583  -1.328 -16.739  0.00  0.00    -0.180 SA
HETATM   20  H           1     -35.131  -0.380 -17.580  0.00  0.00     0.101 HD
ENDBRANCH  18  19
ENDBRANCH  17  18
BRANCH  17  21
HETATM   21  N           1     -34.485   0.542 -14.933  0.00  0.00    -0.066 N 
HETATM   22  H           1     -34.010  -0.369 -15.122  0.00  0.00     0.275 HD
HETATM   23  H           1     -34.444   1.140 -15.789  0.00  0.00     0.275 HD
HETATM   24  H           1     -34.004   1.028 -14.144  0.00  0.00     0.275 HD
ENDBRANCH  17  21
ENDBRANCH   3  17
TORSDOF 11
ENDMDL
MODEL 3
REMARK VINA RESULT:      -5.5      2.579      4.907
REMARK  11 active torsions:
REMARK  status: ('A' for Active; 'I' for Inactive)
REMARK    1  A    between atoms: C_4  and  C_23 
REMARK    2  A    between atoms: C_5  and  C_6 
REMARK    3  A    between atoms: C_5  and  S_10 
REMARK    4  A    between atoms: C_6  and  C_16 
REMARK    5  A    between atoms: C_6  and  N_11 
REMARK       I    between atoms: C_16  and  N_17 
REMARK    6  A    between atoms: N_17  and  C_23 
REMARK    7  A    between atoms: C_19  and  C_20 
REMARK    8  A    between atoms: C_19  and  C_24 
REMARK    9  A    between atoms: C_20  and  C_21 
REMARK   10  A    between atoms: C_21  and  N_22 
REMARK   11  A    between atoms: C_23  and  C_24 
ROOT
HETATM    1  H           1     -36.050  -2.433 -13.031  0.00  0.00     0.163 HD
HETATM    2  O           1     -33.541  -2.333 -11.151  0.00  0.00    -0.271 OA
HETATM    3  C           1     -34.329  -2.797 -11.940  0.00  0.00     0.249 C 
HETATM    4  N           1     -35.391  -2.045 -12.369  0.00  0.00    -0.345 N 
ENDROOT
BRANCH   4   5
HETATM    5  C           1     -35.569  -0.693 -11.876  0.00  0.00     0.185 C 
BRANCH   5   6
HETATM    6  C           1     -36.557  -0.700 -10.736  0.00  0.00     0.196 C 
HETATM    7  O           1     -37.733  -1.079 -10.930  0.00  0.00    -0.646 OA
HETATM    8  O           1     -36.201  -0.328  -9.598  0.00  0.00    -0.646 OA
ENDBRANCH   5   6
BRANCH   5   9
HETATM    9  C           1     -36.093   0.191 -12.999  0.00  0.00     0.036 C 
BRANCH   9  10
HETATM   10  C           1     -34.937   0.615 -13.895  0.00  0.00     0.004 C 
BRANCH  10  11
HETATM   11  C           1     -35.465   0.954 -15.282  0.00  0.00     0.027 C 
BRANCH  11  12
HETATM   12  C           1     -36.575  -0.020 -15.656  0.00  0.00     0.229 C 
BRANCH  12  13
HETATM   13  N           1     -36.305  -0.587 -17.018  0.00  0.00    -0.079 N 
HETATM   14  H           1     -35.688   0.066 -17.552  0.00  0.00     0.274 HD
HETATM   15  H           1     -35.830  -1.514 -16.922  0.00  0.00     0.274 HD
HETATM   16  H           1     -37.208  -0.709 -17.529  0.00  0.00     0.274 HD
ENDBRANCH  12  13
ENDBRANCH  11  12
ENDBRANCH  10  11
ENDBRANCH   9  10
ENDBRANCH   5   9
ENDBRANCH   4   5
BRANCH   3  17
HETATM   17  C           1     -34.144  -4.203 -12.453  0.00  0.00     0.283 C 
BRANCH  17  18
HETATM   18  C           1     -33.285  -4.992 -11.475  0.00  0.00     0.113 C 
BRANCH  18  19
HETATM   19  S           1     -34.296  -6.268 -10.673  0.00  0.00    -0.180 SA
HETATM   20  H           1     -35.021  -5.420  -9.920  0.00  0.00     0.101 HD
ENDBRANCH  18  19
ENDBRANCH  17  18
BRANCH  17  21
HETATM   21  N           1     -33.468  -4.161 -13.792  0.00  0.00    -0.066 N 
HETATM   22  H           1     -32.442  -4.010 -13.659  0.00  0.00     0.275 HD
HETATM   23  H           1     -33.625  -5.066 -14.291  0.00  0.00     0.275 HD
HETATM   24  H           1     -33.863  -3.377 -14.357  0.00  0.00     0.275 HD
ENDBRANCH  17  21
ENDBRANCH   3  17
TORSDOF 11
ENDMDL
MODEL 4
REMARK VINA RESULT:      -5.4     12.669     14.356
REMARK  11 active torsions:
REMARK  status: ('A' for Active; 'I' for Inactive)
REMARK    1  A    between atoms: C_4  and  C_23 
REMARK    2  A    between atoms: C_5  and  C_6 
REMARK    3  A    between atoms: C_5  and  S_10 
REMARK    4  A    between atoms: C_6  and  C_16 
REMARK    5  A    between atoms: C_6  and  N_11 
REMARK       I    between atoms: C_16  and  N_17 
REMARK    6  A    between atoms: N_17  and  C_23 
REMARK    7  A    between atoms: C_19  and  C_20 
REMARK    8  A    between atoms: C_19  and  C_24 
REMARK    9  A    between atoms: C_20  and  C_21 
REMARK   10  A    between atoms: C_21  and  N_22 
REMARK   11  A    between atoms: C_23  and  C_24 
ROOT
HETATM    1  H           1     -22.118  -5.627  -9.225  0.00  0.00     0.163 HD
HETATM    2  O           1     -21.581  -3.171  -7.350  0.00  0.00    -0.271 OA
HETATM    3  C           1     -21.571  -4.322  -7.715  0.00  0.00     0.249 C 
HETATM    4  N           1     -22.127  -4.663  -8.919  0.00  0.00    -0.345 N 
ENDROOT
BRANCH   4   5
HETATM    5  C           1     -22.728  -3.642  -9.755  0.00  0.00     0.185 C 
BRANCH   5   6
HETATM    6  C           1     -24.227  -3.807  -9.751  0.00  0.00     0.196 C 
HETATM    7  O           1     -24.734  -4.920 -10.011  0.00  0.00    -0.646 OA
HETATM    8  O           1     -24.963  -2.832  -9.488  0.00  0.00    -0.646 OA
ENDBRANCH   5   6
BRANCH   5   9
HETATM    9  C           1     -22.204  -3.781 -11.178  0.00  0.00     0.036 C 
BRANCH   9  10
HETATM   10  C           1     -22.753  -2.647 -12.034  0.00  0.00     0.004 C 
BRANCH  10  11
HETATM   11  C           1     -23.486  -3.227 -13.237  0.00  0.00     0.027 C 
BRANCH  11  12
HETATM   12  C           1     -23.273  -2.324 -14.445  0.00  0.00     0.229 C 
BRANCH  12  13
HETATM   13  N           1     -24.071  -1.065 -14.276  0.00  0.00    -0.079 N 
HETATM   14  H           1     -25.049  -1.224 -14.608  0.00  0.00     0.274 HD
HETATM   15  H           1     -24.086  -0.796 -13.266  0.00  0.00     0.274 HD
HETATM   16  H           1     -23.634  -0.298 -14.835  0.00  0.00     0.274 HD
ENDBRANCH  12  13
ENDBRANCH  11  12
ENDBRANCH  10  11
ENDBRANCH   9  10
ENDBRANCH   5   9
ENDBRANCH   4   5
BRANCH   3  17
HETATM   17  C           1     -20.946  -5.385  -6.844  0.00  0.00     0.283 C 
BRANCH  17  18
HETATM   18  C           1     -21.957  -5.851  -5.807  0.00  0.00     0.113 C 
BRANCH  18  19
HETATM   19  S           1     -21.491  -7.498  -5.203  0.00  0.00    -0.180 SA
HETATM   20  H           1     -21.578  -7.198  -3.894  0.00  0.00     0.101 HD
ENDBRANCH  18  19
ENDBRANCH  17  18
BRANCH  17  21
HETATM   21  N           1     -19.743  -4.817  -6.150  0.00  0.00    -0.066 N 
HETATM   22  H           1     -20.022  -3.968  -5.607  0.00  0.00     0.275 HD
HETATM   23  H           1     -19.347  -5.531  -5.498  0.00  0.00     0.275 HD
HETATM   24  H           1     -19.024  -4.553  -6.860  0.00  0.00     0.275 HD
ENDBRANCH  17  21
ENDBRANCH   3  17
TORSDOF 11
ENDMDL
MODEL 5
REMARK VINA RESULT:      -5.3      2.545      4.082
REMARK  11 active torsions:
REMARK  status: ('A' for Active; 'I' for Inactive)
REMARK    1  A    between atoms: C_4  and  C_23 
REMARK    2  A    between atoms: C_5  and  C_6 
REMARK    3  A    between atoms: C_5  and  S_10 
REMARK    4  A    between atoms: C_6  and  C_16 
REMARK    5  A    between atoms: C_6  and  N_11 
REMARK       I    between atoms: C_16  and  N_17 
REMARK    6  A    between atoms: N_17  and  C_23 
REMARK    7  A    between atoms: C_19  and  C_20 
REMARK    8  A    between atoms: C_19  and  C_24 
REMARK    9  A    between atoms: C_20  and  C_21 
REMARK   10  A    between atoms: C_21  and  N_22 
REMARK   11  A    between atoms: C_23  and  C_24 
ROOT
HETATM    1  H           1     -36.280  -3.249 -12.057  0.00  0.00     0.163 HD
HETATM    2  O           1     -34.512  -1.548 -10.103  0.00  0.00    -0.271 OA
HETATM    3  C           1     -35.439  -1.809 -10.832  0.00  0.00     0.249 C 
HETATM    4  N           1     -35.503  -3.031 -11.448  0.00  0.00    -0.345 N 
ENDROOT
BRANCH   4   5
HETATM    5  C           1     -34.458  -4.011 -11.225  0.00  0.00     0.185 C 
BRANCH   5   6
HETATM    6  C           1     -33.437  -3.916 -12.330  0.00  0.00     0.196 C 
HETATM    7  O           1     -32.227  -4.115 -12.083  0.00  0.00    -0.646 OA
HETATM    8  O           1     -33.798  -3.639 -13.494  0.00  0.00    -0.646 OA
ENDBRANCH   5   6
BRANCH   5   9
HETATM    9  C           1     -35.068  -5.406 -11.213  0.00  0.00     0.036 C 
BRANCH   9  10
HETATM   10  C           1     -34.208  -6.328 -10.358  0.00  0.00     0.004 C 
BRANCH  10  11
HETATM   11  C           1     -35.092  -7.376  -9.693  0.00  0.00     0.027 C 
BRANCH  11  12
HETATM   12  C           1     -34.240  -8.564  -9.269  0.00  0.00     0.229 C 
BRANCH  12  13
HETATM   13  N           1     -33.382  -9.001 -10.419  0.00  0.00    -0.079 N 
HETATM   14  H           1     -33.731  -9.914 -10.788  0.00  0.00     0.274 HD
HETATM   15  H           1     -33.424  -8.282 -11.177  0.00  0.00     0.274 HD
HETATM   16  H           1     -32.395  -9.110 -10.096  0.00  0.00     0.274 HD
ENDBRANCH  12  13
ENDBRANCH  11  12
ENDBRANCH  10  11
ENDBRANCH   9  10
ENDBRANCH   5   9
ENDBRANCH   4   5
BRANCH   3  17
HETATM   17  C           1     -36.526  -0.789 -11.064  0.00  0.00     0.283 C 
BRANCH  17  18
HETATM   18  C           1     -36.602  -0.455 -12.548  0.00  0.00     0.113 C 
BRANCH  18  19
HETATM   19  S           1     -35.071   0.372 -13.062  0.00  0.00    -0.180 SA
HETATM   20  H           1     -34.431   0.228 -11.887  0.00  0.00     0.101 HD
ENDBRANCH  18  19
ENDBRANCH  17  18
BRANCH  17  21
HETATM   21  N           1     -36.216   0.457 -10.287  0.00  0.00    -0.066 N 
HETATM   22  H           1     -36.774   1.254 -10.669  0.00  0.00     0.275 HD
HETATM   23  H           1     -36.461   0.311  -9.282  0.00  0.00     0.275 HD
HETATM   24  H           1     -35.198   0.674 -10.371  0.00  0.00     0.275 HD
ENDBRANCH  17  21
ENDBRANCH   3  17
TORSDOF 11
ENDMDL
MODEL 6
REMARK VINA RESULT:      -5.0     13.974     15.725
REMARK  11 active torsions:
REMARK  status: ('A' for Active; 'I' for Inactive)
REMARK    1  A    between atoms: C_4  and  C_23 
REMARK    2  A    between atoms: C_5  and  C_6 
REMARK    3  A    between atoms: C_5  and  S_10 
REMARK    4  A    between atoms: C_6  and  C_16 
REMARK    5  A    between atoms: C_6  and  N_11 
REMARK       I    between atoms: C_16  and  N_17 
REMARK    6  A    between atoms: N_17  and  C_23 
REMARK    7  A    between atoms: C_19  and  C_20 
REMARK    8  A    between atoms: C_19  and  C_24 
REMARK    9  A    between atoms: C_20  and  C_21 
REMARK   10  A    between atoms: C_21  and  N_22 
REMARK   11  A    between atoms: C_23  and  C_24 
ROOT
HETATM    1  H           1     -22.327  -4.135  -6.590  0.00  0.00     0.163 HD
HETATM    2  O           1     -20.784  -6.805  -7.165  0.00  0.00    -0.271 OA
HETATM    3  C           1     -21.310  -5.936  -6.512  0.00  0.00     0.249 C 
HETATM    4  N           1     -21.885  -4.862  -7.138  0.00  0.00    -0.345 N 
ENDROOT
BRANCH   4   5
HETATM    5  C           1     -21.862  -4.768  -8.584  0.00  0.00     0.185 C 
BRANCH   5   6
HETATM    6  C           1     -20.491  -4.329  -9.037  0.00  0.00     0.196 C 
HETATM    7  O           1     -19.780  -3.627  -8.286  0.00  0.00    -0.646 OA
HETATM    8  O           1     -20.067  -4.667 -10.162  0.00  0.00    -0.646 OA
ENDBRANCH   5   6
BRANCH   5   9
HETATM    9  C           1     -22.899  -3.752  -9.042  0.00  0.00     0.036 C 
BRANCH   9  10
HETATM   10  C           1     -23.991  -4.462  -9.832  0.00  0.00     0.004 C 
BRANCH  10  11
HETATM   11  C           1     -23.473  -4.803 -11.223  0.00  0.00     0.027 C 
BRANCH  11  12
HETATM   12  C           1     -23.045  -3.524 -11.932  0.00  0.00     0.229 C 
BRANCH  12  13
HETATM   13  N           1     -21.710  -3.737 -12.582  0.00  0.00    -0.079 N 
HETATM   14  H           1     -21.533  -4.761 -12.690  0.00  0.00     0.274 HD
HETATM   15  H           1     -21.705  -3.282 -13.524  0.00  0.00     0.274 HD
HETATM   16  H           1     -20.962  -3.315 -11.987  0.00  0.00     0.274 HD
ENDBRANCH  12  13
ENDBRANCH  11  12
ENDBRANCH  10  11
ENDBRANCH   9  10
ENDBRANCH   5   9
ENDBRANCH   4   5
BRANCH   3  17
HETATM   17  C           1     -21.334  -6.034  -5.006  0.00  0.00     0.283 C 
BRANCH  17  18
HETATM   18  C           1     -20.566  -7.272  -4.565  0.00  0.00     0.113 C 
BRANCH  18  19
HETATM   19  S           1     -21.151  -7.798  -2.930  0.00  0.00    -0.180 SA
HETATM   20  H           1     -20.116  -7.287  -2.239  0.00  0.00     0.101 HD
ENDBRANCH  18  19
ENDBRANCH  17  18
BRANCH  17  21
HETATM   21  N           1     -22.756  -6.134  -4.535  0.00  0.00    -0.066 N 
HETATM   22  H           1     -23.309  -6.701  -5.216  0.00  0.00     0.275 HD
HETATM   23  H           1     -22.781  -6.594  -3.598  0.00  0.00     0.275 HD
HETATM   24  H           1     -23.167  -5.176  -4.466  0.00  0.00     0.275 HD
ENDBRANCH  17  21
ENDBRANCH   3  17
TORSDOF 11
ENDMDL
MODEL 7
REMARK VINA RESULT:      -4.8     13.376     14.696
REMARK  11 active torsions:
REMARK  status: ('A' for Active; 'I' for Inactive)
REMARK    1  A    between atoms: C_4  and  C_23 
REMARK    2  A    between atoms: C_5  and  C_6 
REMARK    3  A    between atoms: C_5  and  S_10 
REMARK    4  A    between atoms: C_6  and  C_16 
REMARK    5  A    between atoms: C_6  and  N_11 
REMARK       I    between atoms: C_16  and  N_17 
REMARK    6  A    between atoms: N_17  and  C_23 
REMARK    7  A    between atoms: C_19  and  C_20 
REMARK    8  A    between atoms: C_19  and  C_24 
REMARK    9  A    between atoms: C_20  and  C_21 
REMARK   10  A    between atoms: C_21  and  N_22 
REMARK   11  A    between atoms: C_23  and  C_24 
ROOT
HETATM    1  H           1     -22.220  -5.912  -8.285  0.00  0.00     0.163 HD
HETATM    2  O           1     -22.829  -2.919  -9.000  0.00  0.00    -0.271 OA
HETATM    3  C           1     -22.957  -4.120  -9.012  0.00  0.00     0.249 C 
HETATM    4  N           1     -22.112  -4.906  -8.275  0.00  0.00    -0.345 N 
ENDROOT
BRANCH   4   5
HETATM    5  C           1     -21.064  -4.297  -7.480  0.00  0.00     0.185 C 
BRANCH   5   6
HETATM    6  C           1     -19.727  -4.555  -8.129  0.00  0.00     0.196 C 
HETATM    7  O           1     -18.675  -4.436  -7.464  0.00  0.00    -0.646 OA
HETATM    8  O           1     -19.670  -4.888  -9.332  0.00  0.00    -0.646 OA
ENDBRANCH   5   6
BRANCH   5   9
HETATM    9  C           1     -21.075  -4.900  -6.081  0.00  0.00     0.036 C 
BRANCH   9  10
HETATM   10  C           1     -21.397  -6.386  -6.171  0.00  0.00     0.004 C 
BRANCH  10  11
HETATM   11  C           1     -22.151  -6.819  -4.921  0.00  0.00     0.027 C 
BRANCH  11  12
HETATM   12  C           1     -21.375  -6.387  -3.684  0.00  0.00     0.229 C 
BRANCH  12  13
HETATM   13  N           1     -22.336  -6.032  -2.588  0.00  0.00    -0.079 N 
HETATM   14  H           1     -23.310  -6.031  -2.965  0.00  0.00     0.274 HD
HETATM   15  H           1     -22.262  -6.736  -1.819  0.00  0.00     0.274 HD
HETATM   16  H           1     -22.105  -5.083  -2.217  0.00  0.00     0.274 HD
ENDBRANCH  12  13
ENDBRANCH  11  12
ENDBRANCH  10  11
ENDBRANCH   9  10
ENDBRANCH   5   9
ENDBRANCH   4   5
BRANCH   3  17
HETATM   17  C           1     -24.048  -4.753  -9.840  0.00  0.00     0.283 C 
BRANCH  17  18
HETATM   18  C           1     -23.612  -4.811 -11.297  0.00  0.00     0.113 C 
BRANCH  18  19
HETATM   19  S           1     -24.194  -3.327 -12.164  0.00  0.00    -0.180 SA
HETATM   20  H           1     -22.992  -2.726 -12.239  0.00  0.00     0.101 HD
ENDBRANCH  18  19
ENDBRANCH  17  18
BRANCH  17  21
HETATM   21  N           1     -25.301  -3.935  -9.725  0.00  0.00    -0.066 N 
HETATM   22  H           1     -26.103  -4.558  -9.480  0.00  0.00     0.275 HD
HETATM   23  H           1     -25.179  -3.214  -8.979  0.00  0.00     0.275 HD
HETATM   24  H           1     -25.493  -3.464 -10.638  0.00  0.00     0.275 HD
ENDBRANCH  17  21
ENDBRANCH   3  17
TORSDOF 11
ENDMDL
MODEL 8
REMARK VINA RESULT:      -4.7     14.375     16.194
REMARK  11 active torsions:
REMARK  status: ('A' for Active; 'I' for Inactive)
REMARK    1  A    between atoms: C_4  and  C_23 
REMARK    2  A    between atoms: C_5  and  C_6 
REMARK    3  A    between atoms: C_5  and  S_10 
REMARK    4  A    between atoms: C_6  and  C_16 
REMARK    5  A    between atoms: C_6  and  N_11 
REMARK       I    between atoms: C_16  and  N_17 
REMARK    6  A    between atoms: N_17  and  C_23 
REMARK    7  A    between atoms: C_19  and  C_20 
REMARK    8  A    between atoms: C_19  and  C_24 
REMARK    9  A    between atoms: C_20  and  C_21 
REMARK   10  A    between atoms: C_21  and  N_22 
REMARK   11  A    between atoms: C_23  and  C_24 
ROOT
HETATM    1  H           1     -21.711  -4.956  -5.099  0.00  0.00     0.163 HD
HETATM    2  O           1     -21.213  -7.783  -6.364  0.00  0.00    -0.271 OA
HETATM    3  C           1     -21.414  -6.965  -5.498  0.00  0.00     0.249 C 
HETATM    4  N           1     -21.542  -5.641  -5.824  0.00  0.00    -0.345 N 
ENDROOT
BRANCH   4   5
HETATM    5  C           1     -21.435  -5.221  -7.207  0.00  0.00     0.185 C 
BRANCH   5   6
HETATM    6  C           1     -20.018  -4.788  -7.493  0.00  0.00     0.196 C 
HETATM    7  O           1     -19.655  -4.573  -8.670  0.00  0.00    -0.646 OA
HETATM    8  O           1     -19.207  -4.644  -6.553  0.00  0.00    -0.646 OA
ENDBRANCH   5   6
BRANCH   5   9
HETATM    9  C           1     -22.383  -4.056  -7.457  0.00  0.00     0.036 C 
BRANCH   9  10
HETATM   10  C           1     -23.367  -4.429  -8.558  0.00  0.00     0.004 C 
BRANCH  10  11
HETATM   11  C           1     -23.005  -3.685  -9.837  0.00  0.00     0.027 C 
BRANCH  11  12
HETATM   12  C           1     -24.278  -3.329 -10.595  0.00  0.00     0.229 C 
BRANCH  12  13
HETATM   13  N           1     -25.468  -3.565  -9.713  0.00  0.00    -0.079 N 
HETATM   14  H           1     -25.693  -4.586  -9.696  0.00  0.00     0.274 HD
HETATM   15  H           1     -25.252  -3.240  -8.743  0.00  0.00     0.274 HD
HETATM   16  H           1     -26.287  -3.034 -10.085  0.00  0.00     0.274 HD
ENDBRANCH  12  13
ENDBRANCH  11  12
ENDBRANCH  10  11
ENDBRANCH   9  10
ENDBRANCH   5   9
ENDBRANCH   4   5
BRANCH   3  17
HETATM   17  C           1     -21.525  -7.402  -4.058  0.00  0.00     0.283 C 
BRANCH  17  18
HETATM   18  C           1     -21.532  -6.178  -3.155  0.00  0.00     0.113 C 
BRANCH  18  19
HETATM   19  S           1     -22.165  -6.636  -1.517  0.00  0.00    -0.180 SA
HETATM   20  H           1     -21.021  -7.188  -1.073  0.00  0.00     0.101 HD
ENDBRANCH  18  19
ENDBRANCH  17  18
BRANCH  17  21
HETATM   21  N           1     -20.354  -8.274  -3.710  0.00  0.00    -0.066 N 
HETATM   22  H           1     -20.699  -9.184  -3.329  0.00  0.00     0.275 HD
HETATM   23  H           1     -19.783  -8.450  -4.567  0.00  0.00     0.275 HD
HETATM   24  H           1     -19.767  -7.797  -2.990  0.00  0.00     0.275 HD
ENDBRANCH  17  21
ENDBRANCH   3  17
TORSDOF 11
ENDMDL
MODEL 9
REMARK VINA RESULT:      -4.7     15.332     16.711
REMARK  11 active torsions:
REMARK  status: ('A' for Active; 'I' for Inactive)
REMARK    1  A    between atoms: C_4  and  C_23 
REMARK    2  A    between atoms: C_5  and  C_6 
REMARK    3  A    between atoms: C_5  and  S_10 
REMARK    4  A    between atoms: C_6  and  C_16 
REMARK    5  A    between atoms: C_6  and  N_11 
REMARK       I    between atoms: C_16  and  N_17 
REMARK    6  A    between atoms: N_17  and  C_23 
REMARK    7  A    between atoms: C_19  and  C_20 
REMARK    8  A    between atoms: C_19  and  C_24 
REMARK    9  A    between atoms: C_20  and  C_21 
REMARK   10  A    between atoms: C_21  and  N_22 
REMARK   11  A    between atoms: C_23  and  C_24 
ROOT
HETATM    1  H           1     -21.649  -7.099  -6.986  0.00  0.00     0.163 HD
HETATM    2  O           1     -20.553  -4.297  -6.098  0.00  0.00    -0.271 OA
HETATM    3  C           1     -21.060  -5.122  -6.821  0.00  0.00     0.249 C 
HETATM    4  N           1     -21.223  -6.409  -6.381  0.00  0.00    -0.345 N 
ENDROOT
BRANCH   4   5
HETATM    5  C           1     -20.787  -6.782  -5.050  0.00  0.00     0.185 C 
BRANCH   5   6
HETATM    6  C           1     -20.318  -8.215  -5.058  0.00  0.00     0.196 C 
HETATM    7  O           1     -19.309  -8.539  -5.720  0.00  0.00    -0.646 OA
HETATM    8  O           1     -20.939  -9.080  -4.403  0.00  0.00    -0.646 OA
ENDBRANCH   5   6
BRANCH   5   9
HETATM    9  C           1     -21.948  -6.631  -4.076  0.00  0.00     0.036 C 
BRANCH   9  10
HETATM   10  C           1     -21.439  -6.048  -2.765  0.00  0.00     0.004 C 
BRANCH  10  11
HETATM   11  C           1     -22.236  -6.632  -1.605  0.00  0.00     0.027 C 
BRANCH  11  12
HETATM   12  C           1     -21.451  -7.776  -0.975  0.00  0.00     0.229 C 
BRANCH  12  13
HETATM   13  N           1     -21.959  -9.083  -1.506  0.00  0.00    -0.079 N 
HETATM   14  H           1     -22.680  -9.468  -0.854  0.00  0.00     0.274 HD
HETATM   15  H           1     -22.387  -8.934  -2.448  0.00  0.00     0.274 HD
HETATM   16  H           1     -21.166  -9.759  -1.586  0.00  0.00     0.274 HD
ENDBRANCH  12  13
ENDBRANCH  11  12
ENDBRANCH  10  11
ENDBRANCH   9  10
ENDBRANCH   5   9
ENDBRANCH   4   5
BRANCH   3  17
HETATM   17  C           1     -21.514  -4.734  -8.206  0.00  0.00     0.283 C 
BRANCH  17  18
HETATM   18  C           1     -20.300  -4.415  -9.068  0.00  0.00     0.113 C 
BRANCH  18  19
HETATM   19  S           1     -20.826  -4.163 -10.786  0.00  0.00    -0.180 SA
HETATM   20  H           1     -21.354  -2.940 -10.595  0.00  0.00     0.101 HD
ENDBRANCH  18  19
ENDBRANCH  17  18
BRANCH  17  21
HETATM   21  N           1     -22.399  -3.525  -8.121  0.00  0.00    -0.066 N 
HETATM   22  H           1     -22.005  -2.854  -7.424  0.00  0.00     0.275 HD
HETATM   23  H           1     -22.450  -3.064  -9.058  0.00  0.00     0.275 HD
HETATM   24  H           1     -23.357  -3.815  -7.822  0.00  0.00     0.275 HD
ENDBRANCH  17  21
ENDBRANCH   3  17
TORSDOF 11
ENDMDL
