MODEL 1
REMARK VINA RESULT:      -6.2      0.000      0.000
REMARK  8 active torsions:
REMARK  status: ('A' for Active; 'I' for Inactive)
REMARK       I    between atoms: C_5  and  N_7 
REMARK    1  A    between atoms: C_5  and  C_23 
REMARK    2  A    between atoms: N_8  and  C_22 
REMARK       I    between atoms: N_8  and  C_9 
REMARK    3  A    between atoms: C_9  and  C_10 
REMARK    4  A    between atoms: C_10  and  C_11 
REMARK    5  A    between atoms: C_10  and  N_16 
REMARK    6  A    between atoms: C_11  and  O_15 
REMARK    7  A    between atoms: C_21  and  C_22 
REMARK    8  A    between atoms: C_22  and  C_23 
ROOT
HETATM    1  N           1     -23.359  -4.134  -8.709  0.00  0.00    -0.344 N 
HETATM    2  C           1     -22.277  -4.063  -7.873  0.00  0.00     0.251 C 
HETATM    3  H           1     -24.223  -4.549  -8.385  0.00  0.00     0.163 HD
HETATM    4  O           1     -21.246  -3.569  -8.261  0.00  0.00    -0.271 OA
ENDROOT
BRANCH   1   5
HETATM    5  C           1     -23.265  -3.615 -10.060  0.00  0.00     0.194 C 
BRANCH   5   6
HETATM    6  C           1     -24.645  -3.264 -10.561  0.00  0.00     0.197 C 
HETATM    7  O           1     -24.842  -3.096 -11.784  0.00  0.00    -0.646 OA
HETATM    8  O           1     -25.590  -3.141  -9.753  0.00  0.00    -0.646 OA
ENDBRANCH   5   6
BRANCH   5   9
HETATM    9  C           1     -22.649  -4.672 -10.967  0.00  0.00     0.138 C 
BRANCH   9  10
HETATM   10  C           1     -21.572  -4.042 -11.816  0.00  0.00     0.217 C 
HETATM   11  O           1     -20.428  -4.027 -11.427  0.00  0.00    -0.274 OA
HETATM   12  N           1     -21.890  -3.488 -13.027  0.00  0.00    -0.370 N 
HETATM   13  H           1     -22.847  -3.501 -13.353  0.00  0.00     0.159 HD
HETATM   14  H           1     -21.167  -3.066 -13.595  0.00  0.00     0.159 HD
ENDBRANCH   9  10
ENDBRANCH   5   9
ENDBRANCH   1   5
BRANCH   2  15
HETATM   15  C           1     -22.375  -4.604  -6.468  0.00  0.00     0.302 C 
BRANCH  15  16
HETATM   16  C           1     -21.336  -5.700  -6.271  0.00  0.00     0.153 C 
HETATM   17  C           1     -21.876  -6.743  -5.301  0.00  0.00     0.042 C 
BRANCH  16  18
HETATM   18  O           1     -21.059  -6.308  -7.504  0.00  0.00    -0.393 OA
HETATM   19  H           1     -20.399  -5.785  -7.925  0.00  0.00     0.210 HD
ENDBRANCH  16  18
ENDBRANCH  15  16
BRANCH  15  20
HETATM   20  N           1     -23.746  -5.169  -6.244  0.00  0.00    -0.064 N 
HETATM   21  H           1     -24.288  -4.534  -5.616  0.00  0.00     0.275 HD
HETATM   22  H           1     -24.240  -5.257  -7.161  0.00  0.00     0.275 HD
HETATM   23  H           1     -23.666  -6.112  -5.799  0.00  0.00     0.275 HD
ENDBRANCH  15  20
ENDBRANCH   2  15
TORSDOF 8
ENDMDL
MODEL 2
REMARK VINA RESULT:      -5.8      1.647      1.799
REMARK  8 active torsions:
REMARK  status: ('A' for Active; 'I' for Inactive)
REMARK       I    between atoms: C_5  and  N_7 
REMARK    1  A    between atoms: C_5  and  C_23 
REMARK    2  A    between atoms: N_8  and  C_22 
REMARK       I    between atoms: N_8  and  C_9 
REMARK    3  A    between atoms: C_9  and  C_10 
REMARK    4  A    between atoms: C_10  and  C_11 
REMARK    5  A    between atoms: C_10  and  N_16 
REMARK    6  A    between atoms: C_11  and  O_15 
REMARK    7  A    between atoms: C_21  and  C_22 
REMARK    8  A    between atoms: C_22  and  C_23 
ROOT
HETATM    1  N           1     -22.487  -4.552  -8.881  0.00  0.00    -0.344 N 
HETATM    2  C           1     -21.670  -4.374  -7.797  0.00  0.00     0.251 C 
HETATM    3  H           1     -22.591  -5.471  -9.292  0.00  0.00     0.163 HD
HETATM    4  O           1     -21.545  -3.277  -7.307  0.00  0.00    -0.271 OA
ENDROOT
BRANCH   1   5
HETATM    5  C           1     -23.203  -3.421  -9.440  0.00  0.00     0.194 C 
BRANCH   5   6
HETATM    6  C           1     -24.642  -3.808  -9.681  0.00  0.00     0.197 C 
HETATM    7  O           1     -25.518  -2.922  -9.784  0.00  0.00    -0.646 OA
HETATM    8  O           1     -24.958  -5.013  -9.777  0.00  0.00    -0.646 OA
ENDBRANCH   5   6
BRANCH   5   9
HETATM    9  C           1     -22.558  -3.015 -10.758  0.00  0.00     0.138 C 
BRANCH   9  10
HETATM   10  C           1     -22.188  -4.252 -11.541  0.00  0.00     0.217 C 
HETATM   11  O           1     -21.063  -4.686 -11.486  0.00  0.00    -0.274 OA
HETATM   12  N           1     -23.128  -4.881 -12.312  0.00  0.00    -0.370 N 
HETATM   13  H           1     -24.071  -4.517 -12.358  0.00  0.00     0.159 HD
HETATM   14  H           1     -22.879  -5.710 -12.836  0.00  0.00     0.159 HD
ENDBRANCH   9  10
ENDBRANCH   5   9
ENDBRANCH   1   5
BRANCH   2  15
HETATM   15  C           1     -20.924  -5.550  -7.215  0.00  0.00     0.302 C 
BRANCH  15  16
HETATM   16  C           1     -21.650  -6.047  -5.972  0.00  0.00     0.153 C 
HETATM   17  C           1     -20.842  -5.684  -4.732  0.00  0.00     0.042 C 
BRANCH  16  18
HETATM   18  O           1     -22.915  -5.447  -5.897  0.00  0.00    -0.393 OA
HETATM   19  H           1     -23.037  -5.176  -5.003  0.00  0.00     0.210 HD
ENDBRANCH  16  18
ENDBRANCH  15  16
BRANCH  15  20
HETATM   20  N           1     -19.534  -5.126  -6.844  0.00  0.00    -0.064 N 
HETATM   21  H           1     -19.208  -4.383  -7.502  0.00  0.00     0.275 HD
HETATM   22  H           1     -19.533  -4.752  -5.869  0.00  0.00     0.275 HD
HETATM   23  H           1     -18.891  -5.948  -6.903  0.00  0.00     0.275 HD
ENDBRANCH  15  20
ENDBRANCH   2  15
TORSDOF 8
ENDMDL
MODEL 3
REMARK VINA RESULT:      -5.8      1.873      2.917
REMARK  8 active torsions:
REMARK  status: ('A' for Active; 'I' for Inactive)
REMARK       I    between atoms: C_5  and  N_7 
REMARK    1  A    between atoms: C_5  and  C_23 
REMARK    2  A    between atoms: N_8  and  C_22 
REMARK       I    between atoms: N_8  and  C_9 
REMARK    3  A    between atoms: C_9  and  C_10 
REMARK    4  A    between atoms: C_10  and  C_11 
REMARK    5  A    between atoms: C_10  and  N_16 
REMARK    6  A    between atoms: C_11  and  O_15 
REMARK    7  A    between atoms: C_21  and  C_22 
REMARK    8  A    between atoms: C_22  and  C_23 
ROOT
HETATM    1  N           1     -21.868  -4.052  -9.784  0.00  0.00    -0.344 N 
HETATM    2  C           1     -20.670  -4.358  -9.197  0.00  0.00     0.251 C 
HETATM    3  H           1     -22.583  -3.570  -9.255  0.00  0.00     0.163 HD
HETATM    4  O           1     -19.816  -4.933  -9.829  0.00  0.00    -0.271 OA
ENDROOT
BRANCH   1   5
HETATM    5  C           1     -22.112  -4.419 -11.166  0.00  0.00     0.194 C 
BRANCH   5   6
HETATM    6  C           1     -21.900  -3.215 -12.051  0.00  0.00     0.197 C 
HETATM    7  O           1     -22.399  -3.187 -13.197  0.00  0.00    -0.646 OA
HETATM    8  O           1     -21.226  -2.247 -11.639  0.00  0.00    -0.646 OA
ENDBRANCH   5   6
BRANCH   5   9
HETATM    9  C           1     -23.545  -4.913 -11.314  0.00  0.00     0.138 C 
BRANCH   9  10
HETATM   10  C           1     -24.454  -4.089 -10.436  0.00  0.00     0.217 C 
HETATM   11  O           1     -24.568  -2.902 -10.630  0.00  0.00    -0.274 OA
HETATM   12  N           1     -25.151  -4.685  -9.420  0.00  0.00    -0.370 N 
HETATM   13  H           1     -25.056  -5.680  -9.257  0.00  0.00     0.159 HD
HETATM   14  H           1     -25.761  -4.133  -8.831  0.00  0.00     0.159 HD
ENDBRANCH   9  10
ENDBRANCH   5   9
ENDBRANCH   1   5
BRANCH   2  15
HETATM   15  C           1     -20.416  -3.975  -7.760  0.00  0.00     0.302 C 
BRANCH  15  16
HETATM   16  C           1     -20.094  -5.225  -6.951  0.00  0.00     0.153 C 
HETATM   17  C           1     -20.396  -4.969  -5.480  0.00  0.00     0.042 C 
BRANCH  16  18
HETATM   18  O           1     -20.877  -6.294  -7.409  0.00  0.00    -0.393 OA
HETATM   19  H           1     -21.416  -6.568  -6.687  0.00  0.00     0.210 HD
ENDBRANCH  16  18
ENDBRANCH  15  16
BRANCH  15  20
HETATM   20  N           1     -21.639  -3.317  -7.194  0.00  0.00    -0.064 N 
HETATM   21  H           1     -21.369  -2.424  -6.723  0.00  0.00     0.275 HD
HETATM   22  H           1     -22.312  -3.112  -7.967  0.00  0.00     0.275 HD
HETATM   23  H           1     -22.088  -3.954  -6.499  0.00  0.00     0.275 HD
ENDBRANCH  15  20
ENDBRANCH   2  15
TORSDOF 8
ENDMDL
MODEL 4
REMARK VINA RESULT:      -5.7      2.232      5.498
REMARK  8 active torsions:
REMARK  status: ('A' for Active; 'I' for Inactive)
REMARK       I    between atoms: C_5  and  N_7 
REMARK    1  A    between atoms: C_5  and  C_23 
REMARK    2  A    between atoms: N_8  and  C_22 
REMARK       I    between atoms: N_8  and  C_9 
REMARK    3  A    between atoms: C_9  and  C_10 
REMARK    4  A    between atoms: C_10  and  C_11 
REMARK    5  A    between atoms: C_10  and  N_16 
REMARK    6  A    between atoms: C_11  and  O_15 
REMARK    7  A    between atoms: C_21  and  C_22 
REMARK    8  A    between atoms: C_22  and  C_23 
ROOT
HETATM    1  N           1     -22.219  -5.255  -8.554  0.00  0.00    -0.344 N 
HETATM    2  C           1     -23.069  -4.285  -9.013  0.00  0.00     0.251 C 
HETATM    3  H           1     -22.320  -6.209  -8.874  0.00  0.00     0.163 HD
HETATM    4  O           1     -22.949  -3.145  -8.630  0.00  0.00    -0.271 OA
ENDROOT
BRANCH   1   5
HETATM    5  C           1     -21.174  -4.913  -7.608  0.00  0.00     0.194 C 
BRANCH   5   6
HETATM    6  C           1     -19.884  -4.665  -8.352  0.00  0.00     0.197 C 
HETATM    7  O           1     -18.847  -4.367  -7.722  0.00  0.00    -0.646 OA
HETATM    8  O           1     -19.854  -4.755  -9.598  0.00  0.00    -0.646 OA
ENDBRANCH   5   6
BRANCH   5   9
HETATM    9  C           1     -20.982  -6.063  -6.629  0.00  0.00     0.138 C 
BRANCH   9  10
HETATM   10  C           1     -21.928  -5.897  -5.465  0.00  0.00     0.217 C 
HETATM   11  O           1     -23.109  -5.744  -5.664  0.00  0.00    -0.274 OA
HETATM   12  N           1     -21.448  -5.921  -4.183  0.00  0.00    -0.370 N 
HETATM   13  H           1     -20.458  -6.050  -4.016  0.00  0.00     0.159 HD
HETATM   14  H           1     -22.083  -5.810  -3.403  0.00  0.00     0.159 HD
ENDBRANCH   9  10
ENDBRANCH   5   9
ENDBRANCH   1   5
BRANCH   2  15
HETATM   15  C           1     -24.157  -4.640  -9.997  0.00  0.00     0.302 C 
BRANCH  15  16
HETATM   16  C           1     -23.640  -4.447 -11.416  0.00  0.00     0.153 C 
HETATM   17  C           1     -24.233  -3.172 -12.003  0.00  0.00     0.042 C 
BRANCH  16  18
HETATM   18  O           1     -22.242  -4.345 -11.396  0.00  0.00    -0.393 OA
HETATM   19  H           1     -21.962  -4.247 -12.290  0.00  0.00     0.210 HD
ENDBRANCH  16  18
ENDBRANCH  15  16
BRANCH  15  20
HETATM   20  N           1     -25.343  -3.750  -9.772  0.00  0.00    -0.064 N 
HETATM   21  H           1     -25.123  -2.783 -10.103  0.00  0.00     0.275 HD
HETATM   22  H           1     -26.162  -4.121 -10.304  0.00  0.00     0.275 HD
HETATM   23  H           1     -25.572  -3.724  -8.753  0.00  0.00     0.275 HD
ENDBRANCH  15  20
ENDBRANCH   2  15
TORSDOF 8
ENDMDL
MODEL 5
REMARK VINA RESULT:      -5.3      1.547      3.000
REMARK  8 active torsions:
REMARK  status: ('A' for Active; 'I' for Inactive)
REMARK       I    between atoms: C_5  and  N_7 
REMARK    1  A    between atoms: C_5  and  C_23 
REMARK    2  A    between atoms: N_8  and  C_22 
REMARK       I    between atoms: N_8  and  C_9 
REMARK    3  A    between atoms: C_9  and  C_10 
REMARK    4  A    between atoms: C_10  and  C_11 
REMARK    5  A    between atoms: C_10  and  N_16 
REMARK    6  A    between atoms: C_11  and  O_15 
REMARK    7  A    between atoms: C_21  and  C_22 
REMARK    8  A    between atoms: C_22  and  C_23 
ROOT
HETATM    1  N           1     -22.301  -3.584  -9.338  0.00  0.00    -0.344 N 
HETATM    2  C           1     -22.073  -4.604  -8.454  0.00  0.00     0.251 C 
HETATM    3  H           1     -22.639  -2.690  -9.004  0.00  0.00     0.163 HD
HETATM    4  O           1     -21.671  -5.671  -8.852  0.00  0.00    -0.271 OA
ENDROOT
BRANCH   1   5
HETATM    5  C           1     -22.060  -3.786 -10.754  0.00  0.00     0.194 C 
BRANCH   5   6
HETATM    6  C           1     -20.598  -3.561 -11.052  0.00  0.00     0.197 C 
HETATM    7  O           1     -20.167  -2.401 -11.224  0.00  0.00    -0.646 OA
HETATM    8  O           1     -19.819  -4.535 -11.127  0.00  0.00    -0.646 OA
ENDBRANCH   5   6
BRANCH   5   9
HETATM    9  C           1     -22.900  -2.800 -11.556  0.00  0.00     0.138 C 
BRANCH   9  10
HETATM   10  C           1     -24.343  -3.241 -11.544  0.00  0.00     0.217 C 
HETATM   11  O           1     -24.840  -3.652 -10.522  0.00  0.00    -0.274 OA
HETATM   12  N           1     -25.089  -3.175 -12.690  0.00  0.00    -0.370 N 
HETATM   13  H           1     -24.673  -2.830 -13.545  0.00  0.00     0.159 HD
HETATM   14  H           1     -26.057  -3.470 -12.681  0.00  0.00     0.159 HD
ENDBRANCH   9  10
ENDBRANCH   5   9
ENDBRANCH   1   5
BRANCH   2  15
HETATM   15  C           1     -22.323  -4.394  -6.980  0.00  0.00     0.302 C 
BRANCH  15  16
HETATM   16  C           1     -21.530  -5.418  -6.179  0.00  0.00     0.153 C 
HETATM   17  C           1     -20.288  -4.754  -5.597  0.00  0.00     0.042 C 
BRANCH  16  18
HETATM   18  O           1     -22.325  -5.915  -5.137  0.00  0.00    -0.393 OA
HETATM   19  H           1     -23.160  -5.484  -5.200  0.00  0.00     0.210 HD
ENDBRANCH  16  18
ENDBRANCH  15  16
BRANCH  15  20
HETATM   20  N           1     -23.786  -4.562  -6.694  0.00  0.00    -0.064 N 
HETATM   21  H           1     -24.157  -3.692  -6.249  0.00  0.00     0.275 HD
HETATM   22  H           1     -24.297  -4.740  -7.588  0.00  0.00     0.275 HD
HETATM   23  H           1     -23.924  -5.370  -6.046  0.00  0.00     0.275 HD
ENDBRANCH  15  20
ENDBRANCH   2  15
TORSDOF 8
ENDMDL
MODEL 6
REMARK VINA RESULT:      -5.2      2.706      4.900
REMARK  8 active torsions:
REMARK  status: ('A' for Active; 'I' for Inactive)
REMARK       I    between atoms: C_5  and  N_7 
REMARK    1  A    between atoms: C_5  and  C_23 
REMARK    2  A    between atoms: N_8  and  C_22 
REMARK       I    between atoms: N_8  and  C_9 
REMARK    3  A    between atoms: C_9  and  C_10 
REMARK    4  A    between atoms: C_10  and  C_11 
REMARK    5  A    between atoms: C_10  and  N_16 
REMARK    6  A    between atoms: C_11  and  O_15 
REMARK    7  A    between atoms: C_21  and  C_22 
REMARK    8  A    between atoms: C_22  and  C_23 
ROOT
HETATM    1  N           1     -20.866  -5.278  -5.210  0.00  0.00    -0.344 N 
HETATM    2  C           1     -21.575  -6.111  -4.388  0.00  0.00     0.251 C 
HETATM    3  H           1     -20.138  -4.688  -4.828  0.00  0.00     0.163 HD
HETATM    4  O           1     -22.445  -6.814  -4.844  0.00  0.00    -0.271 OA
ENDROOT
BRANCH   1   5
HETATM    5  C           1     -21.160  -5.240  -6.630  0.00  0.00     0.194 C 
BRANCH   5   6
HETATM    6  C           1     -19.951  -5.705  -7.406  0.00  0.00     0.197 C 
HETATM    7  O           1     -19.426  -6.808  -7.142  0.00  0.00    -0.646 OA
HETATM    8  O           1     -19.476  -4.987  -8.311  0.00  0.00    -0.646 OA
ENDBRANCH   5   6
BRANCH   5   9
HETATM    9  C           1     -21.508  -3.815  -7.038  0.00  0.00     0.138 C 
BRANCH   9  10
HETATM   10  C           1     -22.587  -3.841  -8.092  0.00  0.00     0.217 C 
HETATM   11  O           1     -22.322  -3.554  -9.235  0.00  0.00    -0.274 OA
HETATM   12  N           1     -23.867  -4.191  -7.754  0.00  0.00    -0.370 N 
HETATM   13  H           1     -24.089  -4.432  -6.796  0.00  0.00     0.159 HD
HETATM   14  H           1     -24.590  -4.208  -8.460  0.00  0.00     0.159 HD
ENDBRANCH   9  10
ENDBRANCH   5   9
ENDBRANCH   1   5
BRANCH   2  15
HETATM   15  C           1     -21.270  -6.150  -2.910  0.00  0.00     0.302 C 
BRANCH  15  16
HETATM   16  C           1     -20.681  -7.507  -2.549  0.00  0.00     0.153 C 
HETATM   17  C           1     -21.693  -8.298  -1.731  0.00  0.00     0.042 C 
BRANCH  16  18
HETATM   18  O           1     -20.376  -8.212  -3.722  0.00  0.00    -0.393 OA
HETATM   19  H           1     -19.883  -7.628  -4.272  0.00  0.00     0.210 HD
ENDBRANCH  16  18
ENDBRANCH  15  16
BRANCH  15  20
HETATM   20  N           1     -22.534  -5.932  -2.133  0.00  0.00    -0.064 N 
HETATM   21  H           1     -22.334  -6.008  -1.110  0.00  0.00     0.275 HD
HETATM   22  H           1     -22.913  -4.981  -2.344  0.00  0.00     0.275 HD
HETATM   23  H           1     -23.238  -6.655  -2.403  0.00  0.00     0.275 HD
ENDBRANCH  15  20
ENDBRANCH   2  15
TORSDOF 8
ENDMDL
MODEL 7
REMARK VINA RESULT:      -5.1      5.581      9.221
REMARK  8 active torsions:
REMARK  status: ('A' for Active; 'I' for Inactive)
REMARK       I    between atoms: C_5  and  N_7 
REMARK    1  A    between atoms: C_5  and  C_23 
REMARK    2  A    between atoms: N_8  and  C_22 
REMARK       I    between atoms: N_8  and  C_9 
REMARK    3  A    between atoms: C_9  and  C_10 
REMARK    4  A    between atoms: C_10  and  C_11 
REMARK    5  A    between atoms: C_10  and  N_16 
REMARK    6  A    between atoms: C_11  and  O_15 
REMARK    7  A    between atoms: C_21  and  C_22 
REMARK    8  A    between atoms: C_22  and  C_23 
ROOT
HETATM    1  N           1     -21.188  -8.342  -2.660  0.00  0.00    -0.344 N 
HETATM    2  C           1     -20.200  -8.301  -3.608  0.00  0.00     0.251 C 
HETATM    3  H           1     -22.044  -7.821  -2.798  0.00  0.00     0.163 HD
HETATM    4  O           1     -19.178  -8.922  -3.443  0.00  0.00    -0.271 OA
ENDROOT
BRANCH   1   5
HETATM    5  C           1     -21.005  -9.133  -1.459  0.00  0.00     0.194 C 
BRANCH   5   6
HETATM    6  C           1     -22.035 -10.236  -1.422  0.00  0.00     0.197 C 
HETATM    7  O           1     -22.632 -10.569  -2.468  0.00  0.00    -0.646 OA
HETATM    8  O           1     -22.290 -10.817  -0.345  0.00  0.00    -0.646 OA
ENDBRANCH   5   6
BRANCH   5   9
HETATM    9  C           1     -21.172  -8.241  -0.235  0.00  0.00     0.138 C 
BRANCH   9  10
HETATM   10  C           1     -22.507  -7.542  -0.300  0.00  0.00     0.217 C 
HETATM   11  O           1     -22.665  -6.608  -1.050  0.00  0.00    -0.274 OA
HETATM   12  N           1     -23.541  -7.965   0.492  0.00  0.00    -0.370 N 
HETATM   13  H           1     -23.410  -8.747   1.121  0.00  0.00     0.159 HD
HETATM   14  H           1     -24.437  -7.495   0.449  0.00  0.00     0.159 HD
ENDBRANCH   9  10
ENDBRANCH   5   9
ENDBRANCH   1   5
BRANCH   2  15
HETATM   15  C           1     -20.390  -7.478  -4.858  0.00  0.00     0.302 C 
BRANCH  15  16
HETATM   16  C           1     -20.973  -6.120  -4.490  0.00  0.00     0.153 C 
HETATM   17  C           1     -20.779  -5.152  -5.650  0.00  0.00     0.042 C 
BRANCH  16  18
HETATM   18  O           1     -22.342  -6.256  -4.220  0.00  0.00    -0.393 OA
HETATM   19  H           1     -22.635  -7.027  -4.674  0.00  0.00     0.210 HD
ENDBRANCH  16  18
ENDBRANCH  15  16
BRANCH  15  20
HETATM   20  N           1     -21.329  -8.189  -5.787  0.00  0.00    -0.064 N 
HETATM   21  H           1     -21.178  -9.220  -5.714  0.00  0.00     0.275 HD
HETATM   22  H           1     -22.315  -7.963  -5.525  0.00  0.00     0.275 HD
HETATM   23  H           1     -21.149  -7.880  -6.768  0.00  0.00     0.275 HD
ENDBRANCH  15  20
ENDBRANCH   2  15
TORSDOF 8
ENDMDL
MODEL 8
REMARK VINA RESULT:      -5.0      3.200      6.992
REMARK  8 active torsions:
REMARK  status: ('A' for Active; 'I' for Inactive)
REMARK       I    between atoms: C_5  and  N_7 
REMARK    1  A    between atoms: C_5  and  C_23 
REMARK    2  A    between atoms: N_8  and  C_22 
REMARK       I    between atoms: N_8  and  C_9 
REMARK    3  A    between atoms: C_9  and  C_10 
REMARK    4  A    between atoms: C_10  and  C_11 
REMARK    5  A    between atoms: C_10  and  N_16 
REMARK    6  A    between atoms: C_11  and  O_15 
REMARK    7  A    between atoms: C_21  and  C_22 
REMARK    8  A    between atoms: C_22  and  C_23 
ROOT
HETATM    1  N           1     -20.535  -6.379  -6.189  0.00  0.00    -0.344 N 
HETATM    2  C           1     -20.375  -5.020  -6.228  0.00  0.00     0.251 C 
HETATM    3  H           1     -20.740  -6.890  -7.039  0.00  0.00     0.163 HD
HETATM    4  O           1     -20.132  -4.411  -5.214  0.00  0.00    -0.271 OA
ENDROOT
BRANCH   1   5
HETATM    5  C           1     -20.412  -7.087  -4.929  0.00  0.00     0.194 C 
BRANCH   5   6
HETATM    6  C           1     -19.813  -8.451  -5.175  0.00  0.00     0.197 C 
HETATM    7  O           1     -18.977  -8.610  -6.091  0.00  0.00    -0.646 OA
HETATM    8  O           1     -20.154  -9.420  -4.464  0.00  0.00    -0.646 OA
ENDBRANCH   5   6
BRANCH   5   9
HETATM    9  C           1     -21.789  -7.243  -4.299  0.00  0.00     0.138 C 
BRANCH   9  10
HETATM   10  C           1     -21.732  -6.823  -2.851  0.00  0.00     0.217 C 
HETATM   11  O           1     -22.426  -5.916  -2.457  0.00  0.00    -0.274 OA
HETATM   12  N           1     -20.892  -7.468  -1.983  0.00  0.00    -0.370 N 
HETATM   13  H           1     -20.311  -8.228  -2.313  0.00  0.00     0.159 HD
HETATM   14  H           1     -20.854  -7.186  -1.012  0.00  0.00     0.159 HD
ENDBRANCH   9  10
ENDBRANCH   5   9
ENDBRANCH   1   5
BRANCH   2  15
HETATM   15  C           1     -20.503  -4.283  -7.539  0.00  0.00     0.302 C 
BRANCH  15  16
HETATM   16  C           1     -21.968  -3.951  -7.794  0.00  0.00     0.153 C 
HETATM   17  C           1     -22.349  -4.387  -9.203  0.00  0.00     0.042 C 
BRANCH  16  18
HETATM   18  O           1     -22.770  -4.627  -6.863  0.00  0.00    -0.393 OA
HETATM   19  H           1     -23.118  -5.385  -7.302  0.00  0.00     0.210 HD
ENDBRANCH  16  18
ENDBRANCH  15  16
BRANCH  15  20
HETATM   20  N           1     -19.987  -5.148  -8.650  0.00  0.00    -0.064 N 
HETATM   21  H           1     -19.628  -4.545  -9.424  0.00  0.00     0.275 HD
HETATM   22  H           1     -19.213  -5.751  -8.291  0.00  0.00     0.275 HD
HETATM   23  H           1     -20.760  -5.751  -9.010  0.00  0.00     0.275 HD
ENDBRANCH  15  20
ENDBRANCH   2  15
TORSDOF 8
ENDMDL
MODEL 9
REMARK VINA RESULT:      -5.0      2.061      5.628
REMARK  8 active torsions:
REMARK  status: ('A' for Active; 'I' for Inactive)
REMARK       I    between atoms: C_5  and  N_7 
REMARK    1  A    between atoms: C_5  and  C_23 
REMARK    2  A    between atoms: N_8  and  C_22 
REMARK       I    between atoms: N_8  and  C_9 
REMARK    3  A    between atoms: C_9  and  C_10 
REMARK    4  A    between atoms: C_10  and  C_11 
REMARK    5  A    between atoms: C_10  and  N_16 
REMARK    6  A    between atoms: C_11  and  O_15 
REMARK    7  A    between atoms: C_21  and  C_22 
REMARK    8  A    between atoms: C_22  and  C_23 
ROOT
HETATM    1  N           1     -21.133  -4.236  -9.236  0.00  0.00    -0.344 N 
HETATM    2  C           1     -22.172  -4.015 -10.100  0.00  0.00     0.251 C 
HETATM    3  H           1     -20.231  -3.813  -9.409  0.00  0.00     0.163 HD
HETATM    4  O           1     -23.249  -4.522  -9.893  0.00  0.00    -0.271 OA
ENDROOT
BRANCH   1   5
HETATM    5  C           1     -21.328  -5.078  -8.071  0.00  0.00     0.194 C 
BRANCH   5   6
HETATM    6  C           1     -22.064  -4.302  -7.007  0.00  0.00     0.197 C 
HETATM    7  O           1     -23.147  -4.733  -6.555  0.00  0.00    -0.646 OA
HETATM    8  O           1     -21.591  -3.228  -6.577  0.00  0.00    -0.646 OA
ENDBRANCH   5   6
BRANCH   5   9
HETATM    9  C           1     -19.973  -5.519  -7.533  0.00  0.00     0.138 C 
BRANCH   9  10
HETATM   10  C           1     -20.169  -6.331  -6.276  0.00  0.00     0.217 C 
HETATM   11  O           1     -19.995  -7.526  -6.296  0.00  0.00    -0.274 OA
HETATM   12  N           1     -20.545  -5.713  -5.113  0.00  0.00    -0.370 N 
HETATM   13  H           1     -20.691  -4.712  -5.097  0.00  0.00     0.159 HD
HETATM   14  H           1     -20.676  -6.258  -4.271  0.00  0.00     0.159 HD
ENDBRANCH   9  10
ENDBRANCH   5   9
ENDBRANCH   1   5
BRANCH   2  15
HETATM   15  C           1     -21.970  -3.139 -11.312  0.00  0.00     0.302 C 
BRANCH  15  16
HETATM   16  C           1     -22.816  -3.664 -12.465  0.00  0.00     0.153 C 
HETATM   17  C           1     -24.107  -2.860 -12.554  0.00  0.00     0.042 C 
BRANCH  16  18
HETATM   18  O           1     -22.103  -3.535 -13.665  0.00  0.00    -0.393 OA
HETATM   19  H           1     -22.726  -3.295 -14.330  0.00  0.00     0.210 HD
ENDBRANCH  16  18
ENDBRANCH  15  16
BRANCH  15  20
HETATM   20  N           1     -20.523  -3.157 -11.706  0.00  0.00    -0.064 N 
HETATM   21  H           1     -20.408  -2.696 -12.637  0.00  0.00     0.275 HD
HETATM   22  H           1     -19.961  -2.643 -10.991  0.00  0.00     0.275 HD
HETATM   23  H           1     -20.191  -4.146 -11.766  0.00  0.00     0.275 HD
ENDBRANCH  15  20
ENDBRANCH   2  15
TORSDOF 8
ENDMDL
