MODEL 1
REMARK VINA RESULT:      -5.6      0.000      0.000
REMARK  10 active torsions:
REMARK  status: ('A' for Active; 'I' for Inactive)
REMARK    1  A    between atoms: C_2  and  C_18 
REMARK    2  A    between atoms: C_2  and  C_3 
REMARK    3  A    between atoms: C_2  and  N_7 
REMARK    4  A    between atoms: C_4  and  C_13 
REMARK    5  A    between atoms: C_4  and  N_20 
REMARK       I    between atoms: N_7  and  C_8 
REMARK    6  A    between atoms: C_8  and  C_15 
REMARK    7  A    between atoms: C_13  and  C_14 
REMARK    8  A    between atoms: C_14  and  C_15 
REMARK    9  A    between atoms: C_15  and  N_21 
REMARK   10  A    between atoms: C_18  and  S_19 
ROOT
HETATM    1  C           1     -21.161  -5.825  -6.911  0.00  0.00     0.274 C 
ENDROOT
BRANCH   1   2
HETATM    2  C           1     -21.724  -4.639  -7.655  0.00  0.00     0.249 C 
HETATM    3  N           1     -22.255  -4.805  -8.906  0.00  0.00    -0.344 N 
HETATM    4  H           1     -22.269  -5.723  -9.333  0.00  0.00     0.163 HD
HETATM    5  O           1     -21.707  -3.543  -7.147  0.00  0.00    -0.271 OA
BRANCH   3   6
HETATM    6  C           1     -22.796  -3.665  -9.621  0.00  0.00     0.194 C 
BRANCH   6   7
HETATM    7  C           1     -22.226  -3.636 -11.033  0.00  0.00     0.106 C 
BRANCH   7   8
HETATM    8  S           1     -20.462  -4.062 -10.983  0.00  0.00    -0.180 SA
HETATM    9  H           1     -20.634  -5.391 -11.107  0.00  0.00     0.101 HD
ENDBRANCH   7   8
ENDBRANCH   6   7
BRANCH   6  10
HETATM   10  C           1     -24.299  -3.781  -9.687  0.00  0.00     0.197 C 
HETATM   11  O           1     -24.831  -4.893  -9.899  0.00  0.00    -0.646 OA
HETATM   12  O           1     -25.011  -2.766  -9.529  0.00  0.00    -0.646 OA
ENDBRANCH   6  10
ENDBRANCH   3   6
ENDBRANCH   1   2
BRANCH   1  13
HETATM   13  C           1     -21.007  -5.474  -5.437  0.00  0.00     0.044 C 
BRANCH  13  14
HETATM   14  C           1     -21.917  -6.367  -4.604  0.00  0.00     0.030 C 
BRANCH  14  15
HETATM   15  C           1     -21.381  -6.452  -3.180  0.00  0.00     0.230 C 
BRANCH  15  16
HETATM   16  N           1     -22.404  -5.911  -2.227  0.00  0.00    -0.079 N 
HETATM   17  H           1     -22.410  -6.489  -1.356  0.00  0.00     0.274 HD
HETATM   18  H           1     -22.167  -4.922  -1.987  0.00  0.00     0.274 HD
HETATM   19  H           1     -23.348  -5.944  -2.673  0.00  0.00     0.274 HD
ENDBRANCH  15  16
ENDBRANCH  14  15
ENDBRANCH  13  14
ENDBRANCH   1  13
BRANCH   1  20
HETATM   20  N           1     -19.821  -6.182  -7.482  0.00  0.00    -0.067 N 
HETATM   21  H           1     -19.112  -5.479  -7.175  0.00  0.00     0.275 HD
HETATM   22  H           1     -19.540  -7.131  -7.145  0.00  0.00     0.275 HD
HETATM   23  H           1     -19.876  -6.186  -8.526  0.00  0.00     0.275 HD
ENDBRANCH   1  20
TORSDOF 10
ENDMDL
MODEL 2
REMARK VINA RESULT:      -5.2      3.394      6.149
REMARK  10 active torsions:
REMARK  status: ('A' for Active; 'I' for Inactive)
REMARK    1  A    between atoms: C_2  and  C_18 
REMARK    2  A    between atoms: C_2  and  C_3 
REMARK    3  A    between atoms: C_2  and  N_7 
REMARK    4  A    between atoms: C_4  and  C_13 
REMARK    5  A    between atoms: C_4  and  N_20 
REMARK       I    between atoms: N_7  and  C_8 
REMARK    6  A    between atoms: C_8  and  C_15 
REMARK    7  A    between atoms: C_13  and  C_14 
REMARK    8  A    between atoms: C_14  and  C_15 
REMARK    9  A    between atoms: C_15  and  N_21 
REMARK   10  A    between atoms: C_18  and  S_19 
ROOT
HETATM    1  C           1     -20.482  -4.968  -6.590  0.00  0.00     0.274 C 
ENDROOT
BRANCH   1   2
HETATM    2  C           1     -21.371  -5.772  -5.673  0.00  0.00     0.249 C 
HETATM    3  N           1     -20.821  -6.689  -4.816  0.00  0.00    -0.344 N 
HETATM    4  H           1     -19.819  -6.827  -4.799  0.00  0.00     0.163 HD
HETATM    5  O           1     -22.568  -5.608  -5.694  0.00  0.00    -0.271 OA
BRANCH   3   6
HETATM    6  C           1     -21.676  -7.461  -3.936  0.00  0.00     0.194 C 
BRANCH   6   7
HETATM    7  C           1     -21.195  -8.906  -3.903  0.00  0.00     0.106 C 
BRANCH   7   8
HETATM    8  S           1     -19.569  -9.021  -4.701  0.00  0.00    -0.180 SA
HETATM    9  H           1     -19.992  -8.680  -5.932  0.00  0.00     0.101 HD
ENDBRANCH   7   8
ENDBRANCH   6   7
BRANCH   6  10
HETATM   10  C           1     -21.619  -6.880  -2.544  0.00  0.00     0.197 C 
HETATM   11  O           1     -20.851  -7.376  -1.691  0.00  0.00    -0.646 OA
HETATM   12  O           1     -22.339  -5.903  -2.245  0.00  0.00    -0.646 OA
ENDBRANCH   6  10
ENDBRANCH   3   6
ENDBRANCH   1   2
BRANCH   1  13
HETATM   13  C           1     -21.284  -3.828  -7.203  0.00  0.00     0.044 C 
BRANCH  13  14
HETATM   14  C           1     -21.457  -4.074  -8.697  0.00  0.00     0.030 C 
BRANCH  14  15
HETATM   15  C           1     -22.888  -3.746  -9.104  0.00  0.00     0.230 C 
BRANCH  15  16
HETATM   16  N           1     -23.818  -4.077  -7.975  0.00  0.00    -0.079 N 
HETATM   17  H           1     -24.787  -3.774  -8.222  0.00  0.00     0.274 HD
HETATM   18  H           1     -23.807  -5.108  -7.806  0.00  0.00     0.274 HD
HETATM   19  H           1     -23.507  -3.580  -7.110  0.00  0.00     0.274 HD
ENDBRANCH  15  16
ENDBRANCH  14  15
ENDBRANCH  13  14
ENDBRANCH   1  13
BRANCH   1  20
HETATM   20  N           1     -19.959  -5.855  -7.681  0.00  0.00    -0.067 N 
HETATM   21  H           1     -18.917  -5.902  -7.622  0.00  0.00     0.275 HD
HETATM   22  H           1     -20.358  -6.815  -7.570  0.00  0.00     0.275 HD
HETATM   23  H           1     -20.238  -5.467  -8.610  0.00  0.00     0.275 HD
ENDBRANCH   1  20
TORSDOF 10
ENDMDL
MODEL 3
REMARK VINA RESULT:      -5.0      1.698      2.152
REMARK  10 active torsions:
REMARK  status: ('A' for Active; 'I' for Inactive)
REMARK    1  A    between atoms: C_2  and  C_18 
REMARK    2  A    between atoms: C_2  and  C_3 
REMARK    3  A    between atoms: C_2  and  N_7 
REMARK    4  A    between atoms: C_4  and  C_13 
REMARK    5  A    between atoms: C_4  and  N_20 
REMARK       I    between atoms: N_7  and  C_8 
REMARK    6  A    between atoms: C_8  and  C_15 
REMARK    7  A    between atoms: C_13  and  C_14 
REMARK    8  A    between atoms: C_14  and  C_15 
REMARK    9  A    between atoms: C_15  and  N_21 
REMARK   10  A    between atoms: C_18  and  S_19 
ROOT
HETATM    1  C           1     -21.477  -5.264  -5.928  0.00  0.00     0.274 C 
ENDROOT
BRANCH   1   2
HETATM    2  C           1     -21.729  -4.322  -7.080  0.00  0.00     0.249 C 
HETATM    3  N           1     -22.522  -4.715  -8.125  0.00  0.00    -0.344 N 
HETATM    4  H           1     -22.938  -5.638  -8.125  0.00  0.00     0.163 HD
HETATM    5  O           1     -21.232  -3.221  -7.079  0.00  0.00    -0.271 OA
BRANCH   3   6
HETATM    6  C           1     -22.764  -3.809  -9.231  0.00  0.00     0.194 C 
BRANCH   6   7
HETATM    7  C           1     -21.930  -4.241 -10.430  0.00  0.00     0.106 C 
BRANCH   7   8
HETATM    8  S           1     -22.075  -3.000 -11.747  0.00  0.00    -0.180 SA
HETATM    9  H           1     -23.167  -3.533 -12.324  0.00  0.00     0.101 HD
ENDBRANCH   7   8
ENDBRANCH   6   7
BRANCH   6  10
HETATM   10  C           1     -24.228  -3.843  -9.597  0.00  0.00     0.197 C 
HETATM   11  O           1     -24.753  -4.913  -9.975  0.00  0.00    -0.646 OA
HETATM   12  O           1     -24.915  -2.802  -9.520  0.00  0.00    -0.646 OA
ENDBRANCH   6  10
ENDBRANCH   3   6
ENDBRANCH   1   2
BRANCH   1  13
HETATM   13  C           1     -20.586  -6.409  -6.392  0.00  0.00     0.044 C 
BRANCH  13  14
HETATM   14  C           1     -20.997  -7.692  -5.682  0.00  0.00     0.030 C 
BRANCH  14  15
HETATM   15  C           1     -19.824  -8.218  -4.864  0.00  0.00     0.230 C 
BRANCH  15  16
HETATM   16  N           1     -19.035  -9.191  -5.688  0.00  0.00    -0.079 N 
HETATM   17  H           1     -19.438  -9.239  -6.651  0.00  0.00     0.274 HD
HETATM   18  H           1     -18.040  -8.876  -5.742  0.00  0.00     0.274 HD
HETATM   19  H           1     -19.076 -10.137  -5.245  0.00  0.00     0.274 HD
ENDBRANCH  15  16
ENDBRANCH  14  15
ENDBRANCH  13  14
ENDBRANCH   1  13
BRANCH   1  20
HETATM   20  N           1     -22.784  -5.814  -5.438  0.00  0.00    -0.067 N 
HETATM   21  H           1     -23.463  -5.032  -5.304  0.00  0.00     0.275 HD
HETATM   22  H           1     -23.162  -6.489  -6.141  0.00  0.00     0.275 HD
HETATM   23  H           1     -22.636  -6.307  -4.528  0.00  0.00     0.275 HD
ENDBRANCH   1  20
TORSDOF 10
ENDMDL
MODEL 4
REMARK VINA RESULT:      -5.0      2.564      2.828
REMARK  10 active torsions:
REMARK  status: ('A' for Active; 'I' for Inactive)
REMARK    1  A    between atoms: C_2  and  C_18 
REMARK    2  A    between atoms: C_2  and  C_3 
REMARK    3  A    between atoms: C_2  and  N_7 
REMARK    4  A    between atoms: C_4  and  C_13 
REMARK    5  A    between atoms: C_4  and  N_20 
REMARK       I    between atoms: N_7  and  C_8 
REMARK    6  A    between atoms: C_8  and  C_15 
REMARK    7  A    between atoms: C_13  and  C_14 
REMARK    8  A    between atoms: C_14  and  C_15 
REMARK    9  A    between atoms: C_15  and  N_21 
REMARK   10  A    between atoms: C_18  and  S_19 
ROOT
HETATM    1  C           1     -20.294  -3.931  -7.733  0.00  0.00     0.274 C 
ENDROOT
BRANCH   1   2
HETATM    2  C           1     -20.672  -4.353  -9.132  0.00  0.00     0.249 C 
HETATM    3  N           1     -21.892  -4.003  -9.646  0.00  0.00    -0.344 N 
HETATM    4  H           1     -22.541  -3.463  -9.088  0.00  0.00     0.163 HD
HETATM    5  O           1     -19.899  -4.999  -9.798  0.00  0.00    -0.271 OA
BRANCH   3   6
HETATM    6  C           1     -22.255  -4.409 -10.990  0.00  0.00     0.194 C 
BRANCH   6   7
HETATM    7  C           1     -23.732  -4.782 -11.025  0.00  0.00     0.106 C 
BRANCH   7   8
HETATM    8  S           1     -24.671  -3.633  -9.979  0.00  0.00    -0.180 SA
HETATM    9  H           1     -24.207  -2.508 -10.554  0.00  0.00     0.101 HD
ENDBRANCH   7   8
ENDBRANCH   6   7
BRANCH   6  10
HETATM   10  C           1     -22.001  -3.269 -11.945  0.00  0.00     0.197 C 
HETATM   11  O           1     -22.512  -3.283 -13.086  0.00  0.00    -0.646 OA
HETATM   12  O           1     -21.279  -2.310 -11.595  0.00  0.00    -0.646 OA
ENDBRANCH   6  10
ENDBRANCH   3   6
ENDBRANCH   1   2
BRANCH   1  13
HETATM   13  C           1     -19.913  -5.159  -6.917  0.00  0.00     0.044 C 
BRANCH  13  14
HETATM   14  C           1     -21.161  -5.749  -6.274  0.00  0.00     0.030 C 
BRANCH  14  15
HETATM   15  C           1     -20.963  -5.837  -4.766  0.00  0.00     0.230 C 
BRANCH  15  16
HETATM   16  N           1     -22.245  -6.268  -4.117  0.00  0.00    -0.079 N 
HETATM   17  H           1     -22.699  -7.007  -4.700  0.00  0.00     0.274 HD
HETATM   18  H           1     -22.042  -6.649  -3.166  0.00  0.00     0.274 HD
HETATM   19  H           1     -22.887  -5.448  -4.034  0.00  0.00     0.274 HD
ENDBRANCH  15  16
ENDBRANCH  14  15
ENDBRANCH  13  14
ENDBRANCH   1  13
BRANCH   1  20
HETATM   20  N           1     -21.460  -3.243  -7.087  0.00  0.00    -0.067 N 
HETATM   21  H           1     -22.323  -3.814  -7.227  0.00  0.00     0.275 HD
HETATM   22  H           1     -21.276  -3.134  -6.064  0.00  0.00     0.275 HD
HETATM   23  H           1     -21.592  -2.300  -7.519  0.00  0.00     0.275 HD
ENDBRANCH   1  20
TORSDOF 10
ENDMDL
MODEL 5
REMARK VINA RESULT:      -4.9      1.751      2.503
REMARK  10 active torsions:
REMARK  status: ('A' for Active; 'I' for Inactive)
REMARK    1  A    between atoms: C_2  and  C_18 
REMARK    2  A    between atoms: C_2  and  C_3 
REMARK    3  A    between atoms: C_2  and  N_7 
REMARK    4  A    between atoms: C_4  and  C_13 
REMARK    5  A    between atoms: C_4  and  N_20 
REMARK       I    between atoms: N_7  and  C_8 
REMARK    6  A    between atoms: C_8  and  C_15 
REMARK    7  A    between atoms: C_13  and  C_14 
REMARK    8  A    between atoms: C_14  and  C_15 
REMARK    9  A    between atoms: C_15  and  N_21 
REMARK   10  A    between atoms: C_18  and  S_19 
ROOT
HETATM    1  C           1     -22.426  -4.793  -6.692  0.00  0.00     0.274 C 
ENDROOT
BRANCH   1   2
HETATM    2  C           1     -22.405  -4.006  -7.980  0.00  0.00     0.249 C 
HETATM    3  N           1     -23.227  -4.364  -9.015  0.00  0.00    -0.344 N 
HETATM    4  H           1     -23.848  -5.157  -8.917  0.00  0.00     0.163 HD
HETATM    5  O           1     -21.663  -3.060  -8.097  0.00  0.00    -0.271 OA
BRANCH   3   6
HETATM    6  C           1     -23.205  -3.607 -10.252  0.00  0.00     0.194 C 
BRANCH   6   7
HETATM    7  C           1     -22.534  -4.435 -11.340  0.00  0.00     0.106 C 
BRANCH   7   8
HETATM    8  S           1     -20.747  -4.117 -11.326  0.00  0.00    -0.180 SA
HETATM    9  H           1     -20.839  -2.785 -11.489  0.00  0.00     0.101 HD
ENDBRANCH   7   8
ENDBRANCH   6   7
BRANCH   6  10
HETATM   10  C           1     -24.620  -3.282 -10.666  0.00  0.00     0.197 C 
HETATM   11  O           1     -25.517  -3.182  -9.801  0.00  0.00    -0.646 OA
HETATM   12  O           1     -24.893  -3.112 -11.874  0.00  0.00    -0.646 OA
ENDBRANCH   6  10
ENDBRANCH   3   6
ENDBRANCH   1   2
BRANCH   1  13
HETATM   13  C           1     -21.660  -6.095  -6.879  0.00  0.00     0.044 C 
BRANCH  13  14
HETATM   14  C           1     -20.489  -6.140  -5.905  0.00  0.00     0.030 C 
BRANCH  14  15
HETATM   15  C           1     -19.770  -4.797  -5.912  0.00  0.00     0.230 C 
BRANCH  15  16
HETATM   16  N           1     -18.999  -4.649  -7.190  0.00  0.00    -0.079 N 
HETATM   17  H           1     -18.032  -5.023  -7.059  0.00  0.00     0.274 HD
HETATM   18  H           1     -19.479  -5.182  -7.950  0.00  0.00     0.274 HD
HETATM   19  H           1     -18.949  -3.639  -7.452  0.00  0.00     0.274 HD
ENDBRANCH  15  16
ENDBRANCH  14  15
ENDBRANCH  13  14
ENDBRANCH   1  13
BRANCH   1  20
HETATM   20  N           1     -23.847  -5.098  -6.318  0.00  0.00    -0.067 N 
HETATM   21  H           1     -23.983  -4.926  -5.297  0.00  0.00     0.275 HD
HETATM   22  H           1     -24.491  -4.482  -6.864  0.00  0.00     0.275 HD
HETATM   23  H           1     -24.057  -6.099  -6.533  0.00  0.00     0.275 HD
ENDBRANCH   1  20
TORSDOF 10
ENDMDL
MODEL 6
REMARK VINA RESULT:      -4.8      3.621      6.533
REMARK  10 active torsions:
REMARK  status: ('A' for Active; 'I' for Inactive)
REMARK    1  A    between atoms: C_2  and  C_18 
REMARK    2  A    between atoms: C_2  and  C_3 
REMARK    3  A    between atoms: C_2  and  N_7 
REMARK    4  A    between atoms: C_4  and  C_13 
REMARK    5  A    between atoms: C_4  and  N_20 
REMARK       I    between atoms: N_7  and  C_8 
REMARK    6  A    between atoms: C_8  and  C_15 
REMARK    7  A    between atoms: C_13  and  C_14 
REMARK    8  A    between atoms: C_14  and  C_15 
REMARK    9  A    between atoms: C_15  and  N_21 
REMARK   10  A    between atoms: C_18  and  S_19 
ROOT
HETATM    1  C           1     -21.561  -4.580  -8.298  0.00  0.00     0.274 C 
ENDROOT
BRANCH   1   2
HETATM    2  C           1     -21.053  -5.021  -6.947  0.00  0.00     0.249 C 
HETATM    3  N           1     -21.352  -6.273  -6.479  0.00  0.00    -0.344 N 
HETATM    4  H           1     -21.914  -6.902  -7.039  0.00  0.00     0.163 HD
HETATM    5  O           1     -20.383  -4.270  -6.279  0.00  0.00    -0.271 OA
BRANCH   3   6
HETATM    6  C           1     -20.864  -6.697  -5.181  0.00  0.00     0.194 C 
BRANCH   6   7
HETATM    7  C           1     -21.992  -6.607  -4.162  0.00  0.00     0.106 C 
BRANCH   7   8
HETATM    8  S           1     -21.348  -6.992  -2.510  0.00  0.00    -0.180 SA
HETATM    9  H           1     -22.403  -6.509  -1.830  0.00  0.00     0.101 HD
ENDBRANCH   7   8
ENDBRANCH   6   7
BRANCH   6  10
HETATM   10  C           1     -20.376  -8.122  -5.269  0.00  0.00     0.197 C 
HETATM   11  O           1     -21.104  -9.001  -5.778  0.00  0.00    -0.646 OA
HETATM   12  O           1     -19.244  -8.423  -4.832  0.00  0.00    -0.646 OA
ENDBRANCH   6  10
ENDBRANCH   3   6
ENDBRANCH   1   2
BRANCH   1  13
HETATM   13  C           1     -20.400  -4.049  -9.130  0.00  0.00     0.044 C 
BRANCH  13  14
HETATM   14  C           1     -20.609  -4.425 -10.591  0.00  0.00     0.030 C 
BRANCH  14  15
HETATM   15  C           1     -21.200  -3.238 -11.341  0.00  0.00     0.230 C 
BRANCH  15  16
HETATM   16  N           1     -21.650  -3.679 -12.702  0.00  0.00    -0.079 N 
HETATM   17  H           1     -20.896  -3.484 -13.399  0.00  0.00     0.274 HD
HETATM   18  H           1     -21.853  -4.704 -12.686  0.00  0.00     0.274 HD
HETATM   19  H           1     -22.514  -3.157 -12.970  0.00  0.00     0.274 HD
ENDBRANCH  15  16
ENDBRANCH  14  15
ENDBRANCH  13  14
ENDBRANCH   1  13
BRANCH   1  20
HETATM   20  N           1     -22.582  -3.496  -8.117  0.00  0.00    -0.067 N 
HETATM   21  H           1     -22.110  -2.622  -7.794  0.00  0.00     0.275 HD
HETATM   22  H           1     -23.064  -3.316  -9.027  0.00  0.00     0.275 HD
HETATM   23  H           1     -23.286  -3.795  -7.404  0.00  0.00     0.275 HD
ENDBRANCH   1  20
TORSDOF 10
ENDMDL
MODEL 7
REMARK VINA RESULT:      -4.8     11.956     13.257
REMARK  10 active torsions:
REMARK  status: ('A' for Active; 'I' for Inactive)
REMARK    1  A    between atoms: C_2  and  C_18 
REMARK    2  A    between atoms: C_2  and  C_3 
REMARK    3  A    between atoms: C_2  and  N_7 
REMARK    4  A    between atoms: C_4  and  C_13 
REMARK    5  A    between atoms: C_4  and  N_20 
REMARK       I    between atoms: N_7  and  C_8 
REMARK    6  A    between atoms: C_8  and  C_15 
REMARK    7  A    between atoms: C_13  and  C_14 
REMARK    8  A    between atoms: C_14  and  C_15 
REMARK    9  A    between atoms: C_15  and  N_21 
REMARK   10  A    between atoms: C_18  and  S_19 
ROOT
HETATM    1  C           1     -29.808  -6.899 -17.924  0.00  0.00     0.274 C 
ENDROOT
BRANCH   1   2
HETATM    2  C           1     -28.543  -6.275 -18.460  0.00  0.00     0.249 C 
HETATM    3  N           1     -27.371  -6.983 -18.448  0.00  0.00    -0.344 N 
HETATM    4  H           1     -27.353  -7.925 -18.078  0.00  0.00     0.163 HD
HETATM    5  O           1     -28.564  -5.150 -18.900  0.00  0.00    -0.271 OA
BRANCH   3   6
HETATM    6  C           1     -26.156  -6.382 -18.963  0.00  0.00     0.194 C 
BRANCH   6   7
HETATM    7  C           1     -24.973  -6.826 -18.113  0.00  0.00     0.106 C 
BRANCH   7   8
HETATM    8  S           1     -25.431  -6.765 -16.358  0.00  0.00    -0.180 SA
HETATM    9  H           1     -25.416  -5.424 -16.255  0.00  0.00     0.101 HD
ENDBRANCH   7   8
ENDBRANCH   6   7
BRANCH   6  10
HETATM   10  C           1     -25.945  -6.823 -20.391  0.00  0.00     0.197 C 
HETATM   11  O           1     -26.503  -7.859 -20.814  0.00  0.00    -0.646 OA
HETATM   12  O           1     -25.212  -6.152 -21.149  0.00  0.00    -0.646 OA
ENDBRANCH   6  10
ENDBRANCH   3   6
ENDBRANCH   1   2
BRANCH   1  13
HETATM   13  C           1     -30.349  -6.050 -16.781  0.00  0.00     0.044 C 
BRANCH  13  14
HETATM   14  C           1     -31.744  -5.550 -17.135  0.00  0.00     0.030 C 
BRANCH  14  15
HETATM   15  C           1     -31.729  -4.029 -17.229  0.00  0.00     0.230 C 
BRANCH  15  16
HETATM   16  N           1     -33.138  -3.516 -17.260  0.00  0.00    -0.079 N 
HETATM   17  H           1     -33.128  -2.472 -17.273  0.00  0.00     0.274 HD
HETATM   18  H           1     -33.619  -3.872 -18.117  0.00  0.00     0.274 HD
HETATM   19  H           1     -33.649  -3.849 -16.412  0.00  0.00     0.274 HD
ENDBRANCH  15  16
ENDBRANCH  14  15
ENDBRANCH  13  14
ENDBRANCH   1  13
BRANCH   1  20
HETATM   20  N           1     -29.509  -8.281 -17.423  0.00  0.00    -0.067 N 
HETATM   21  H           1     -30.261  -8.935 -17.735  0.00  0.00     0.275 HD
HETATM   22  H           1     -28.589  -8.598 -17.806  0.00  0.00     0.275 HD
HETATM   23  H           1     -29.466  -8.272 -16.379  0.00  0.00     0.275 HD
ENDBRANCH   1  20
TORSDOF 10
ENDMDL
MODEL 8
REMARK VINA RESULT:      -4.6      4.352      7.113
REMARK  10 active torsions:
REMARK  status: ('A' for Active; 'I' for Inactive)
REMARK    1  A    between atoms: C_2  and  C_18 
REMARK    2  A    between atoms: C_2  and  C_3 
REMARK    3  A    between atoms: C_2  and  N_7 
REMARK    4  A    between atoms: C_4  and  C_13 
REMARK    5  A    between atoms: C_4  and  N_20 
REMARK       I    between atoms: N_7  and  C_8 
REMARK    6  A    between atoms: C_8  and  C_15 
REMARK    7  A    between atoms: C_13  and  C_14 
REMARK    8  A    between atoms: C_14  and  C_15 
REMARK    9  A    between atoms: C_15  and  N_21 
REMARK   10  A    between atoms: C_18  and  S_19 
ROOT
HETATM    1  C           1     -20.647  -6.158  -5.608  0.00  0.00     0.274 C 
ENDROOT
BRANCH   1   2
HETATM    2  C           1     -21.191  -7.161  -4.620  0.00  0.00     0.249 C 
HETATM    3  N           1     -20.983  -6.984  -3.279  0.00  0.00    -0.344 N 
HETATM    4  H           1     -20.464  -6.181  -2.949  0.00  0.00     0.163 HD
HETATM    5  O           1     -21.811  -8.121  -5.014  0.00  0.00    -0.271 OA
BRANCH   3   6
HETATM    6  C           1     -21.507  -7.949  -2.331  0.00  0.00     0.194 C 
BRANCH   6   7
HETATM    7  C           1     -20.363  -8.792  -1.783  0.00  0.00     0.106 C 
BRANCH   7   8
HETATM    8  S           1     -20.652 -10.538  -2.183  0.00  0.00    -0.180 SA
HETATM    9  H           1     -19.359 -10.855  -2.375  0.00  0.00     0.101 HD
ENDBRANCH   7   8
ENDBRANCH   6   7
BRANCH   6  10
HETATM   10  C           1     -22.184  -7.221  -1.196  0.00  0.00     0.197 C 
HETATM   11  O           1     -22.423  -5.997  -1.293  0.00  0.00    -0.646 OA
HETATM   12  O           1     -22.507  -7.841  -0.160  0.00  0.00    -0.646 OA
ENDBRANCH   6  10
ENDBRANCH   3   6
ENDBRANCH   1   2
BRANCH   1  13
HETATM   13  C           1     -21.800  -5.396  -6.247  0.00  0.00     0.044 C 
BRANCH  13  14
HETATM   14  C           1     -21.247  -4.284  -7.129  0.00  0.00     0.030 C 
BRANCH  14  15
HETATM   15  C           1     -22.281  -3.910  -8.184  0.00  0.00     0.230 C 
BRANCH  15  16
HETATM   16  N           1     -23.657  -4.198  -7.660  0.00  0.00    -0.079 N 
HETATM   17  H           1     -24.072  -4.996  -8.192  0.00  0.00     0.274 HD
HETATM   18  H           1     -23.598  -4.448  -6.647  0.00  0.00     0.274 HD
HETATM   19  H           1     -24.258  -3.352  -7.775  0.00  0.00     0.274 HD
ENDBRANCH  15  16
ENDBRANCH  14  15
ENDBRANCH  13  14
ENDBRANCH   1  13
BRANCH   1  20
HETATM   20  N           1     -19.872  -6.877  -6.672  0.00  0.00    -0.067 N 
HETATM   21  H           1     -20.482  -7.027  -7.506  0.00  0.00     0.275 HD
HETATM   22  H           1     -19.042  -6.303  -6.945  0.00  0.00     0.275 HD
HETATM   23  H           1     -19.550  -7.801  -6.306  0.00  0.00     0.275 HD
ENDBRANCH   1  20
TORSDOF 10
ENDMDL
MODEL 9
REMARK VINA RESULT:      -4.5      3.148      6.179
REMARK  10 active torsions:
REMARK  status: ('A' for Active; 'I' for Inactive)
REMARK    1  A    between atoms: C_2  and  C_18 
REMARK    2  A    between atoms: C_2  and  C_3 
REMARK    3  A    between atoms: C_2  and  N_7 
REMARK    4  A    between atoms: C_4  and  C_13 
REMARK    5  A    between atoms: C_4  and  N_20 
REMARK       I    between atoms: N_7  and  C_8 
REMARK    6  A    between atoms: C_8  and  C_15 
REMARK    7  A    between atoms: C_13  and  C_14 
REMARK    8  A    between atoms: C_14  and  C_15 
REMARK    9  A    between atoms: C_15  and  N_21 
REMARK   10  A    between atoms: C_18  and  S_19 
ROOT
HETATM    1  C           1     -22.208  -4.527  -8.681  0.00  0.00     0.274 C 
ENDROOT
BRANCH   1   2
HETATM    2  C           1     -22.273  -5.138  -7.303  0.00  0.00     0.249 C 
HETATM    3  N           1     -21.292  -5.999  -6.888  0.00  0.00    -0.344 N 
HETATM    4  H           1     -20.523  -6.226  -7.507  0.00  0.00     0.163 HD
HETATM    5  O           1     -23.191  -4.868  -6.565  0.00  0.00    -0.271 OA
BRANCH   3   6
HETATM    6  C           1     -21.355  -6.586  -5.564  0.00  0.00     0.194 C 
BRANCH   6   7
HETATM    7  C           1     -20.447  -7.808  -5.509  0.00  0.00     0.106 C 
BRANCH   7   8
HETATM    8  S           1     -21.254  -9.118  -4.546  0.00  0.00    -0.180 SA
HETATM    9  H           1     -20.142  -9.532  -3.911  0.00  0.00     0.101 HD
ENDBRANCH   7   8
ENDBRANCH   6   7
BRANCH   6  10
HETATM   10  C           1     -20.899  -5.573  -4.543  0.00  0.00     0.197 C 
HETATM   11  O           1     -20.108  -4.664  -4.876  0.00  0.00    -0.646 OA
HETATM   12  O           1     -21.312  -5.643  -3.366  0.00  0.00    -0.646 OA
ENDBRANCH   6  10
ENDBRANCH   3   6
ENDBRANCH   1   2
BRANCH   1  13
HETATM   13  C           1     -20.783  -4.074  -8.970  0.00  0.00     0.044 C 
BRANCH  13  14
HETATM   14  C           1     -20.403  -4.470 -10.391  0.00  0.00     0.030 C 
BRANCH  14  15
HETATM   15  C           1     -20.706  -3.317 -11.339  0.00  0.00     0.230 C 
BRANCH  15  16
HETATM   16  N           1     -21.603  -3.798 -12.441  0.00  0.00    -0.079 N 
HETATM   17  H           1     -21.685  -3.056 -13.172  0.00  0.00     0.274 HD
HETATM   18  H           1     -21.199  -4.663 -12.866  0.00  0.00     0.274 HD
HETATM   19  H           1     -22.549  -4.010 -12.052  0.00  0.00     0.274 HD
ENDBRANCH  15  16
ENDBRANCH  14  15
ENDBRANCH  13  14
ENDBRANCH   1  13
BRANCH   1  20
HETATM   20  N           1     -23.131  -3.346  -8.746  0.00  0.00    -0.067 N 
HETATM   21  H           1     -23.806  -3.474  -9.532  0.00  0.00     0.275 HD
HETATM   22  H           1     -23.656  -3.264  -7.845  0.00  0.00     0.275 HD
HETATM   23  H           1     -22.574  -2.476  -8.904  0.00  0.00     0.275 HD
ENDBRANCH   1  20
TORSDOF 10
ENDMDL
