MODEL 1
REMARK VINA RESULT:      -5.3      0.000      0.000
REMARK  5 active torsions:
REMARK  status: ('A' for Active; 'I' for Inactive)
REMARK    1  A    between atoms: C_2  and  C_3 
REMARK       I    between atoms: C_3  and  N_4 
REMARK    2  A    between atoms: N_4  and  C_20 
REMARK    3  A    between atoms: C_18  and  O_19 
REMARK    4  A    between atoms: C_18  and  C_20 
REMARK    5  A    between atoms: C_20  and  C_21 
ROOT
HETATM    1  C           1     -23.103  -4.177  -8.801  0.00  0.00     0.249 C 
HETATM    2  N           1     -22.216  -5.028  -8.199  0.00  0.00    -0.343 N 
HETATM    3  H           1     -22.375  -6.027  -8.225  0.00  0.00     0.163 HD
HETATM    4  O           1     -22.913  -2.984  -8.770  0.00  0.00    -0.271 OA
ENDROOT
BRANCH   1   5
HETATM    5  C           1     -24.319  -4.729  -9.504  0.00  0.00     0.274 C 
HETATM    6  C           1     -23.882  -5.512 -10.735  0.00  0.00     0.042 C 
HETATM    7  C           1     -23.123  -4.590 -11.681  0.00  0.00     0.003 C 
HETATM    8 Se           1     -24.281  -3.120 -12.225  0.00  0.00     0.000 Se
HETATM    9  C           1     -22.943  -2.270 -13.359  0.00  0.00     0.000 C 
HETATM   10  H           1     -24.689  -2.965 -10.573  0.00  0.00     0.275 HD
HETATM   11  N           1     -25.210  -3.597  -9.923  0.00  0.00    -0.067 N 
HETATM   12  H           1     -26.052  -3.978 -10.411  0.00  0.00     0.275 HD
HETATM   13  H           1     -25.511  -3.059  -9.079  0.00  0.00     0.275 HD
ENDBRANCH   1   5
BRANCH   2  14
HETATM   14  C           1     -21.048  -4.497  -7.523  0.00  0.00     0.214 C 
BRANCH  14  15
HETATM   15  C           1     -20.689  -5.398  -6.349  0.00  0.00     0.147 C 
HETATM   16  C           1     -21.964  -5.892  -5.680  0.00  0.00     0.042 C 
BRANCH  15  17
HETATM   17  O           1     -19.948  -6.494  -6.812  0.00  0.00    -0.393 OA
HETATM   18  H           1     -19.346  -6.727  -6.126  0.00  0.00     0.210 HD
ENDBRANCH  15  17
ENDBRANCH  14  15
BRANCH  14  19
HETATM   19  C           1     -19.890  -4.443  -8.489  0.00  0.00     0.199 C 
HETATM   20  O           1     -20.031  -4.862  -9.658  0.00  0.00    -0.646 OA
HETATM   21  O           1     -18.790  -3.979  -8.119  0.00  0.00    -0.646 OA
ENDBRANCH  14  19
ENDBRANCH   2  14
TORSDOF 5
ENDMDL
MODEL 2
REMARK VINA RESULT:      -5.3     12.000     14.204
REMARK  5 active torsions:
REMARK  status: ('A' for Active; 'I' for Inactive)
REMARK    1  A    between atoms: C_2  and  C_3 
REMARK       I    between atoms: C_3  and  N_4 
REMARK    2  A    between atoms: N_4  and  C_20 
REMARK    3  A    between atoms: C_18  and  O_19 
REMARK    4  A    between atoms: C_18  and  C_20 
REMARK    5  A    between atoms: C_20  and  C_21 
ROOT
HETATM    1  C           1     -34.352  -2.278 -10.882  0.00  0.00     0.249 C 
HETATM    2  N           1     -35.367  -1.788 -11.659  0.00  0.00    -0.343 N 
HETATM    3  H           1     -36.053  -2.420 -12.052  0.00  0.00     0.163 HD
HETATM    4  O           1     -33.532  -1.524 -10.413  0.00  0.00    -0.271 OA
ENDROOT
BRANCH   1   5
HETATM    5  C           1     -34.256  -3.759 -10.611  0.00  0.00     0.274 C 
HETATM    6  C           1     -32.992  -4.313 -11.255  0.00  0.00     0.042 C 
HETATM    7  C           1     -33.040  -4.075 -12.758  0.00  0.00     0.003 C 
HETATM    8 Se           1     -34.598  -4.973 -13.510  0.00  0.00     0.000 Se
HETATM    9  C           1     -34.243  -4.408 -15.341  0.00  0.00     0.000 C 
HETATM   10  H           1     -35.488  -4.287 -12.221  0.00  0.00     0.275 HD
HETATM   11  N           1     -35.456  -4.451 -11.190  0.00  0.00    -0.067 N 
HETATM   12  H           1     -35.391  -5.477 -11.003  0.00  0.00     0.275 HD
HETATM   13  H           1     -36.323  -4.071 -10.748  0.00  0.00     0.275 HD
ENDBRANCH   1   5
BRANCH   2  14
HETATM   14  C           1     -35.458  -0.365 -11.919  0.00  0.00     0.214 C 
BRANCH  14  15
HETATM   15  C           1     -35.632  -0.133 -13.414  0.00  0.00     0.147 C 
HETATM   16  C           1     -34.741   1.021 -13.855  0.00  0.00     0.042 C 
BRANCH  15  17
HETATM   17  O           1     -35.273  -1.295 -14.111  0.00  0.00    -0.393 OA
HETATM   18  H           1     -35.948  -1.931 -13.950  0.00  0.00     0.210 HD
ENDBRANCH  15  17
ENDBRANCH  14  15
BRANCH  14  19
HETATM   19  C           1     -36.644   0.206 -11.180  0.00  0.00     0.199 C 
HETATM   20  O           1     -36.490   0.710 -10.047  0.00  0.00    -0.646 OA
HETATM   21  O           1     -37.779   0.174 -11.702  0.00  0.00    -0.646 OA
ENDBRANCH  14  19
ENDBRANCH   2  14
TORSDOF 5
ENDMDL
MODEL 3
REMARK VINA RESULT:      -5.2      2.751      5.449
REMARK  5 active torsions:
REMARK  status: ('A' for Active; 'I' for Inactive)
REMARK    1  A    between atoms: C_2  and  C_3 
REMARK       I    between atoms: C_3  and  N_4 
REMARK    2  A    between atoms: N_4  and  C_20 
REMARK    3  A    between atoms: C_18  and  O_19 
REMARK    4  A    between atoms: C_18  and  C_20 
REMARK    5  A    between atoms: C_20  and  C_21 
ROOT
HETATM    1  C           1     -20.764  -4.114  -9.239  0.00  0.00     0.249 C 
HETATM    2  N           1     -22.034  -3.706  -9.546  0.00  0.00    -0.343 N 
HETATM    3  H           1     -22.513  -3.046  -8.945  0.00  0.00     0.163 HD
HETATM    4  O           1     -20.193  -4.901  -9.955  0.00  0.00    -0.271 OA
ENDROOT
BRANCH   1   5
HETATM    5  C           1     -20.078  -3.581  -8.005  0.00  0.00     0.274 C 
HETATM    6  C           1     -19.045  -4.590  -7.521  0.00  0.00     0.042 C 
HETATM    7  C           1     -19.737  -5.905  -7.188  0.00  0.00     0.003 C 
HETATM    8 Se           1     -21.059  -5.608  -5.787  0.00  0.00     0.000 Se
HETATM    9  C           1     -21.638  -7.467  -5.713  0.00  0.00     0.000 C 
HETATM   10  H           1     -21.570  -4.255  -6.699  0.00  0.00     0.275 HD
HETATM   11  N           1     -21.096  -3.352  -6.927  0.00  0.00    -0.067 N 
HETATM   12  H           1     -20.622  -2.983  -6.072  0.00  0.00     0.275 HD
HETATM   13  H           1     -21.805  -2.659  -7.258  0.00  0.00     0.275 HD
ENDBRANCH   1   5
BRANCH   2  14
HETATM   14  C           1     -22.693  -4.219 -10.731  0.00  0.00     0.214 C 
BRANCH  14  15
HETATM   15  C           1     -24.199  -4.234 -10.506  0.00  0.00     0.147 C 
HETATM   16  C           1     -24.496  -3.965  -9.037  0.00  0.00     0.042 C 
BRANCH  15  17
HETATM   17  O           1     -24.799  -3.241 -11.295  0.00  0.00    -0.393 OA
HETATM   18  H           1     -24.175  -3.006 -11.959  0.00  0.00     0.210 HD
ENDBRANCH  15  17
ENDBRANCH  14  15
BRANCH  14  19
HETATM   19  C           1     -22.369  -3.333 -11.909  0.00  0.00     0.199 C 
HETATM   20  O           1     -21.851  -2.212 -11.724  0.00  0.00    -0.646 OA
HETATM   21  O           1     -22.620  -3.722 -13.070  0.00  0.00    -0.646 OA
ENDBRANCH  14  19
ENDBRANCH   2  14
TORSDOF 5
ENDMDL
MODEL 4
REMARK VINA RESULT:      -5.2     11.954     14.120
REMARK  5 active torsions:
REMARK  status: ('A' for Active; 'I' for Inactive)
REMARK    1  A    between atoms: C_2  and  C_3 
REMARK       I    between atoms: C_3  and  N_4 
REMARK    2  A    between atoms: N_4  and  C_20 
REMARK    3  A    between atoms: C_18  and  O_19 
REMARK    4  A    between atoms: C_18  and  C_20 
REMARK    5  A    between atoms: C_20  and  C_21 
ROOT
HETATM    1  C           1     -33.761  -2.790 -12.032  0.00  0.00     0.249 C 
HETATM    2  N           1     -34.794  -2.002 -12.463  0.00  0.00    -0.343 N 
HETATM    3  H           1     -35.252  -2.204 -13.343  0.00  0.00     0.163 HD
HETATM    4  O           1     -33.214  -2.549 -10.982  0.00  0.00    -0.271 OA
ENDROOT
BRANCH   1   5
HETATM    5  C           1     -33.306  -3.961 -12.868  0.00  0.00     0.274 C 
HETATM    6  C           1     -34.500  -4.850 -13.191  0.00  0.00     0.042 C 
HETATM    7  C           1     -35.118  -5.361 -11.897  0.00  0.00     0.003 C 
HETATM    8 Se           1     -33.793  -6.390 -10.905  0.00  0.00     0.000 Se
HETATM    9  C           1     -34.986  -6.805  -9.421  0.00  0.00     0.000 C 
HETATM   10  H           1     -32.711  -5.104 -11.216  0.00  0.00     0.275 HD
HETATM   11  N           1     -32.286  -4.753 -12.104  0.00  0.00    -0.067 N 
HETATM   12  H           1     -31.970  -5.564 -12.682  0.00  0.00     0.275 HD
HETATM   13  H           1     -31.466  -4.144 -11.883  0.00  0.00     0.275 HD
ENDBRANCH   1   5
BRANCH   2  14
HETATM   14  C           1     -35.231  -0.877 -11.659  0.00  0.00     0.214 C 
BRANCH  14  15
HETATM   15  C           1     -36.009   0.098 -12.533  0.00  0.00     0.147 C 
HETATM   16  C           1     -35.110   0.605 -13.653  0.00  0.00     0.042 C 
BRANCH  15  17
HETATM   17  O           1     -37.121  -0.555 -13.085  0.00  0.00    -0.393 OA
HETATM   18  H           1     -37.800   0.092 -13.178  0.00  0.00     0.210 HD
ENDBRANCH  15  17
ENDBRANCH  14  15
BRANCH  14  19
HETATM   19  C           1     -36.119  -1.372 -10.544  0.00  0.00     0.199 C 
HETATM   20  O           1     -36.162  -0.753  -9.459  0.00  0.00    -0.646 OA
HETATM   21  O           1     -36.810  -2.401 -10.705  0.00  0.00    -0.646 OA
ENDBRANCH  14  19
ENDBRANCH   2  14
TORSDOF 5
ENDMDL
MODEL 5
REMARK VINA RESULT:      -4.8     11.928     13.865
REMARK  5 active torsions:
REMARK  status: ('A' for Active; 'I' for Inactive)
REMARK    1  A    between atoms: C_2  and  C_3 
REMARK       I    between atoms: C_3  and  N_4 
REMARK    2  A    between atoms: N_4  and  C_20 
REMARK    3  A    between atoms: C_18  and  O_19 
REMARK    4  A    between atoms: C_18  and  C_20 
REMARK    5  A    between atoms: C_20  and  C_21 
ROOT
HETATM    1  C           1     -35.837  -1.729 -11.525  0.00  0.00     0.249 C 
HETATM    2  N           1     -34.805  -2.412 -12.110  0.00  0.00    -0.343 N 
HETATM    3  H           1     -34.116  -1.914 -12.660  0.00  0.00     0.163 HD
HETATM    4  O           1     -36.660  -2.323 -10.869  0.00  0.00    -0.271 OA
ENDROOT
BRANCH   1   5
HETATM    5  C           1     -35.947  -0.234 -11.700  0.00  0.00     0.274 C 
HETATM    6  C           1     -37.190   0.092 -12.517  0.00  0.00     0.042 C 
HETATM    7  C           1     -37.090  -0.572 -13.883  0.00  0.00     0.003 C 
HETATM    8 Se           1     -35.510   0.090 -14.814  0.00  0.00     0.000 Se
HETATM    9  C           1     -35.800  -0.986 -16.412  0.00  0.00     0.000 C 
HETATM   10  H           1     -34.663  -0.180 -13.354  0.00  0.00     0.275 HD
HETATM   11  N           1     -34.731   0.275 -12.417  0.00  0.00    -0.067 N 
HETATM   12  H           1     -34.806   1.311 -12.538  0.00  0.00     0.275 HD
HETATM   13  H           1     -33.877   0.052 -11.856  0.00  0.00     0.275 HD
ENDBRANCH   1   5
BRANCH   2  14
HETATM   14  C           1     -34.699  -3.848 -11.942  0.00  0.00     0.214 C 
BRANCH  14  15
HETATM   15  C           1     -34.979  -4.536 -13.272  0.00  0.00     0.147 C 
HETATM   16  C           1     -33.898  -4.159 -14.276  0.00  0.00     0.042 C 
BRANCH  15  17
HETATM   17  O           1     -34.982  -5.926 -13.087  0.00  0.00    -0.393 OA
HETATM   18  H           1     -35.672  -6.273 -13.626  0.00  0.00     0.210 HD
ENDBRANCH  15  17
ENDBRANCH  14  15
BRANCH  14  19
HETATM   19  C           1     -33.307  -4.199 -11.478  0.00  0.00     0.199 C 
HETATM   20  O           1     -32.437  -3.307 -11.383  0.00  0.00    -0.646 OA
HETATM   21  O           1     -33.025  -5.382 -11.189  0.00  0.00    -0.646 OA
ENDBRANCH  14  19
ENDBRANCH   2  14
TORSDOF 5
ENDMDL
MODEL 6
REMARK VINA RESULT:      -4.8      2.953      5.786
REMARK  5 active torsions:
REMARK  status: ('A' for Active; 'I' for Inactive)
REMARK    1  A    between atoms: C_2  and  C_3 
REMARK       I    between atoms: C_3  and  N_4 
REMARK    2  A    between atoms: N_4  and  C_20 
REMARK    3  A    between atoms: C_18  and  O_19 
REMARK    4  A    between atoms: C_18  and  C_20 
REMARK    5  A    between atoms: C_20  and  C_21 
ROOT
HETATM    1  C           1     -21.323  -3.876  -8.439  0.00  0.00     0.249 C 
HETATM    2  N           1     -21.799  -3.960  -9.720  0.00  0.00    -0.343 N 
HETATM    3  H           1     -21.266  -4.451 -10.427  0.00  0.00     0.163 HD
HETATM    4  O           1     -21.959  -3.290  -7.596  0.00  0.00    -0.271 OA
ENDROOT
BRANCH   1   5
HETATM    5  C           1     -20.005  -4.517  -8.082  0.00  0.00     0.274 C 
HETATM    6  C           1     -20.174  -6.029  -8.021  0.00  0.00     0.042 C 
HETATM    7  C           1     -21.213  -6.383  -6.966  0.00  0.00     0.003 C 
HETATM    8 Se           1     -20.624  -5.727  -5.227  0.00  0.00     0.000 Se
HETATM    9  C           1     -22.188  -6.382  -4.267  0.00  0.00     0.000 C 
HETATM   10  H           1     -20.264  -4.255  -6.020  0.00  0.00     0.275 HD
HETATM   11  N           1     -19.551  -4.012  -6.744  0.00  0.00    -0.067 N 
HETATM   12  H           1     -18.638  -4.455  -6.495  0.00  0.00     0.275 HD
HETATM   13  H           1     -19.434  -2.974  -6.784  0.00  0.00     0.275 HD
ENDBRANCH   1   5
BRANCH   2  14
HETATM   14  C           1     -23.066  -3.344 -10.064  0.00  0.00     0.214 C 
BRANCH  14  15
HETATM   15  C           1     -22.946  -2.659 -11.419  0.00  0.00     0.147 C 
HETATM   16  C           1     -21.962  -3.428 -12.290  0.00  0.00     0.042 C 
BRANCH  15  17
HETATM   17  O           1     -24.202  -2.634 -12.042  0.00  0.00    -0.393 OA
HETATM   18  H           1     -24.837  -2.455 -11.370  0.00  0.00     0.210 HD
ENDBRANCH  15  17
ENDBRANCH  14  15
BRANCH  14  19
HETATM   19  C           1     -24.138  -4.404 -10.129  0.00  0.00     0.199 C 
HETATM   20  O           1     -25.295  -4.148  -9.733  0.00  0.00    -0.646 OA
HETATM   21  O           1     -23.868  -5.539 -10.580  0.00  0.00    -0.646 OA
ENDBRANCH  14  19
ENDBRANCH   2  14
TORSDOF 5
ENDMDL
MODEL 7
REMARK VINA RESULT:      -4.7      2.801      4.764
REMARK  5 active torsions:
REMARK  status: ('A' for Active; 'I' for Inactive)
REMARK    1  A    between atoms: C_2  and  C_3 
REMARK       I    between atoms: C_3  and  N_4 
REMARK    2  A    between atoms: N_4  and  C_20 
REMARK    3  A    between atoms: C_18  and  O_19 
REMARK    4  A    between atoms: C_18  and  C_20 
REMARK    5  A    between atoms: C_20  and  C_21 
ROOT
HETATM    1  C           1     -20.810  -5.891  -6.537  0.00  0.00     0.249 C 
HETATM    2  N           1     -20.660  -6.054  -5.186  0.00  0.00    -0.343 N 
HETATM    3  H           1     -20.137  -5.373  -4.649  0.00  0.00     0.163 HD
HETATM    4  O           1     -21.434  -6.703  -7.178  0.00  0.00    -0.271 OA
ENDROOT
BRANCH   1   5
HETATM    5  C           1     -20.197  -4.696  -7.225  0.00  0.00     0.274 C 
HETATM    6  C           1     -21.169  -3.525  -7.172  0.00  0.00     0.042 C 
HETATM    7  C           1     -22.464  -3.906  -7.876  0.00  0.00     0.003 C 
HETATM    8 Se           1     -22.087  -4.351  -9.735  0.00  0.00     0.000 Se
HETATM    9  C           1     -23.941  -4.747 -10.187  0.00  0.00     0.000 C 
HETATM   10  H           1     -20.796  -5.300  -9.139  0.00  0.00     0.275 HD
HETATM   11  N           1     -19.907  -5.039  -8.657  0.00  0.00    -0.067 N 
HETATM   12  H           1     -19.482  -4.212  -9.134  0.00  0.00     0.275 HD
HETATM   13  H           1     -19.239  -5.842  -8.694  0.00  0.00     0.275 HD
ENDBRANCH   1   5
BRANCH   2  14
HETATM   14  C           1     -21.249  -7.202  -4.525  0.00  0.00     0.214 C 
BRANCH  14  15
HETATM   15  C           1     -20.273  -8.370  -4.572  0.00  0.00     0.147 C 
HETATM   16  C           1     -21.040  -9.661  -4.826  0.00  0.00     0.042 C 
BRANCH  15  17
HETATM   17  O           1     -19.349  -8.164  -5.607  0.00  0.00    -0.393 OA
HETATM   18  H           1     -19.376  -8.930  -6.155  0.00  0.00     0.210 HD
ENDBRANCH  15  17
ENDBRANCH  14  15
BRANCH  14  19
HETATM   19  C           1     -21.548  -6.855  -3.087  0.00  0.00     0.199 C 
HETATM   20  O           1     -20.903  -7.398  -2.165  0.00  0.00    -0.646 OA
HETATM   21  O           1     -22.443  -6.024  -2.819  0.00  0.00    -0.646 OA
ENDBRANCH  14  19
ENDBRANCH   2  14
TORSDOF 5
ENDMDL
MODEL 8
REMARK VINA RESULT:      -4.6      6.473      8.704
REMARK  5 active torsions:
REMARK  status: ('A' for Active; 'I' for Inactive)
REMARK    1  A    between atoms: C_2  and  C_3 
REMARK       I    between atoms: C_3  and  N_4 
REMARK    2  A    between atoms: N_4  and  C_20 
REMARK    3  A    between atoms: C_18  and  O_19 
REMARK    4  A    between atoms: C_18  and  C_20 
REMARK    5  A    between atoms: C_20  and  C_21 
ROOT
HETATM    1  C           1     -20.219  -9.411  -2.571  0.00  0.00     0.249 C 
HETATM    2  N           1     -21.291  -8.855  -1.925  0.00  0.00    -0.343 N 
HETATM    3  H           1     -22.207  -8.877  -2.354  0.00  0.00     0.163 HD
HETATM    4  O           1     -19.125  -9.385  -2.058  0.00  0.00    -0.271 OA
ENDROOT
BRANCH   1   5
HETATM    5  C           1     -20.404 -10.055  -3.922  0.00  0.00     0.274 C 
HETATM    6  C           1     -19.432  -9.437  -4.918  0.00  0.00     0.042 C 
HETATM    7  C           1     -19.699  -7.942  -5.028  0.00  0.00     0.003 C 
HETATM    8 Se           1     -21.526  -7.651  -5.641  0.00  0.00     0.000 Se
HETATM    9  C           1     -21.395  -5.706  -5.625  0.00  0.00     0.000 C 
HETATM   10  H           1     -21.993  -8.805  -4.470  0.00  0.00     0.275 HD
HETATM   11  N           1     -21.811  -9.831  -4.394  0.00  0.00    -0.067 N 
HETATM   12  H           1     -21.941 -10.277  -5.330  0.00  0.00     0.275 HD
HETATM   13  H           1     -22.479 -10.255  -3.711  0.00  0.00     0.275 HD
ENDBRANCH   1   5
BRANCH   2  14
HETATM   14  C           1     -21.113  -8.236  -0.626  0.00  0.00     0.214 C 
BRANCH  14  15
HETATM   15  C           1     -22.069  -7.059  -0.490  0.00  0.00     0.147 C 
HETATM   16  C           1     -22.271  -6.410  -1.853  0.00  0.00     0.042 C 
BRANCH  15  17
HETATM   17  O           1     -23.302  -7.514  -0.000  0.00  0.00    -0.393 OA
HETATM   18  H           1     -23.248  -8.453   0.046  0.00  0.00     0.210 HD
ENDBRANCH  15  17
ENDBRANCH  14  15
BRANCH  14  19
HETATM   19  C           1     -21.401  -9.247   0.456  0.00  0.00     0.199 C 
HETATM   20  O           1     -20.933  -9.085   1.604  0.00  0.00    -0.646 OA
HETATM   21  O           1     -22.109 -10.246   0.205  0.00  0.00    -0.646 OA
ENDBRANCH  14  19
ENDBRANCH   2  14
TORSDOF 5
ENDMDL
MODEL 9
REMARK VINA RESULT:      -4.6      6.481      8.802
REMARK  5 active torsions:
REMARK  status: ('A' for Active; 'I' for Inactive)
REMARK    1  A    between atoms: C_2  and  C_3 
REMARK       I    between atoms: C_3  and  N_4 
REMARK    2  A    between atoms: N_4  and  C_20 
REMARK    3  A    between atoms: C_18  and  O_19 
REMARK    4  A    between atoms: C_18  and  C_20 
REMARK    5  A    between atoms: C_20  and  C_21 
ROOT
HETATM    1  C           1     -21.520  -9.927  -3.378  0.00  0.00     0.249 C 
HETATM    2  N           1     -21.121  -8.621  -3.471  0.00  0.00    -0.343 N 
HETATM    3  H           1     -20.444  -8.250  -2.815  0.00  0.00     0.163 HD
HETATM    4  O           1     -22.327 -10.369  -4.160  0.00  0.00    -0.271 OA
ENDROOT
BRANCH   1   5
HETATM    5  C           1     -20.949 -10.815  -2.299  0.00  0.00     0.274 C 
HETATM    6  C           1     -22.084 -11.391  -1.463  0.00  0.00     0.042 C 
HETATM    7  C           1     -22.872 -10.257  -0.822  0.00  0.00     0.003 C 
HETATM    8 Se           1     -21.691  -9.210   0.322  0.00  0.00     0.000 Se
HETATM    9  C           1     -23.075  -7.957   0.881  0.00  0.00     0.000 C 
HETATM   10  H           1     -20.582  -9.230  -0.979  0.00  0.00     0.275 HD
HETATM   11  N           1     -20.040 -10.009  -1.418  0.00  0.00    -0.067 N 
HETATM   12  H           1     -19.645 -10.622  -0.671  0.00  0.00     0.275 HD
HETATM   13  H           1     -19.261  -9.613  -1.991  0.00  0.00     0.275 HD
ENDBRANCH   1   5
BRANCH   2  14
HETATM   14  C           1     -21.669  -7.768  -4.508  0.00  0.00     0.214 C 
BRANCH  14  15
HETATM   15  C           1     -21.909  -6.374  -3.943  0.00  0.00     0.147 C 
HETATM   16  C           1     -21.911  -6.437  -2.421  0.00  0.00     0.042 C 
BRANCH  15  17
HETATM   17  O           1     -20.890  -5.513  -4.375  0.00  0.00    -0.393 OA
HETATM   18  H           1     -20.857  -4.799  -3.762  0.00  0.00     0.210 HD
ENDBRANCH  15  17
ENDBRANCH  14  15
BRANCH  14  19
HETATM   19  C           1     -20.694  -7.684  -5.656  0.00  0.00     0.199 C 
HETATM   20  O           1     -19.552  -8.180  -5.545  0.00  0.00    -0.646 OA
HETATM   21  O           1     -21.029  -7.118  -6.719  0.00  0.00    -0.646 OA
ENDBRANCH  14  19
ENDBRANCH   2  14
TORSDOF 5
ENDMDL
