MODEL 1
REMARK VINA RESULT:      -7.9      0.000      0.000
REMARK  10 active torsions:
REMARK  status: ('A' for Active; 'I' for Inactive)
REMARK    1  A    between atoms: O_3  and  P_4 
REMARK    2  A    between atoms: P_4  and  O_5 
REMARK    3  A    between atoms: O_5  and  C_6 
REMARK    4  A    between atoms: N_8  and  C_16 
REMARK    5  A    between atoms: C_9  and  C_17 
REMARK    6  A    between atoms: C_9  and  C_26 
REMARK    7  A    between atoms: C_9  and  N_28 
REMARK    8  A    between atoms: C_16  and  C_23 
REMARK    9  A    between atoms: C_16  and  C_24 
REMARK       I    between atoms: C_23  and  N_28 
REMARK   10  A    between atoms: C_25  and  C_26 
ROOT
HETATM    1  C           1     -21.589  -5.540  -6.630  0.00  0.00     0.189 C 
ENDROOT
BRANCH   1   2
HETATM    2  C           1     -20.101  -5.590  -6.383  0.00  0.00     0.197 C 
HETATM    3  O           1     -19.517  -4.603  -5.886  0.00  0.00    -0.646 OA
HETATM    4  O           1     -19.453  -6.617  -6.676  0.00  0.00    -0.646 OA
ENDBRANCH   1   2
BRANCH   1   5
HETATM    5  C           1     -21.977  -4.150  -7.117  0.00  0.00     0.074 C 
BRANCH   5   6
HETATM    6  C           1     -22.438  -4.228  -8.539  0.00  0.00    -0.056 A 
HETATM    7  C           1     -21.509  -4.424  -9.562  0.00  0.00     0.010 A 
HETATM    8  C           1     -21.938  -4.496 -10.887  0.00  0.00     0.038 A 
HETATM    9  C           1     -23.294  -4.373 -11.190  0.00  0.00     0.081 A 
HETATM   10  C           1     -24.222  -4.177 -10.167  0.00  0.00     0.038 A 
HETATM   11  C           1     -23.794  -4.106  -8.842  0.00  0.00     0.010 A 
BRANCH   9  12
HETATM   12  O           1     -23.711  -4.444 -12.478  0.00  0.00    -0.247 OA
BRANCH  12  13
HETATM   13  P           1     -23.850  -3.066 -13.307  0.00  0.00     0.411 P 
HETATM   14  O           1     -22.862  -2.085 -12.805  0.00  0.00    -0.624 OA
HETATM   15  O           1     -25.216  -2.523 -13.135  0.00  0.00    -0.624 OA
BRANCH  13  16
HETATM   16  O           1     -23.577  -3.350 -14.873  0.00  0.00    -0.300 OA
HETATM   17  H           1     -23.295  -4.248 -14.912  0.00  0.00     0.223 HD
ENDBRANCH  13  16
ENDBRANCH  12  13
ENDBRANCH   9  12
ENDBRANCH   5   6
ENDBRANCH   1   5
BRANCH   1  18
HETATM   18  N           1     -22.292  -5.833  -5.397  0.00  0.00    -0.344 N 
HETATM   19  H           1     -23.248  -5.524  -5.274  0.00  0.00     0.163 HD
HETATM   20  C           1     -21.665  -6.529  -4.398  0.00  0.00     0.249 C 
HETATM   21  O           1     -21.045  -5.936  -3.548  0.00  0.00    -0.271 OA
BRANCH  20  22
HETATM   22  C           1     -21.747  -8.035  -4.360  0.00  0.00     0.278 C 
BRANCH  22  23
HETATM   23  N           1     -21.201  -8.597  -5.639  0.00  0.00    -0.066 N 
HETATM   24  H           1     -21.813  -8.310  -6.436  0.00  0.00     0.275 HD
HETATM   25  H           1     -20.233  -8.235  -5.794  0.00  0.00     0.275 HD
HETATM   26  H           1     -21.175  -9.641  -5.577  0.00  0.00     0.275 HD
ENDBRANCH  22  23
BRANCH  22  27
HETATM   27  C           1     -20.932  -8.559  -3.186  0.00  0.00     0.017 C 
HETATM   28  C           1     -19.603  -9.103  -3.694  0.00  0.00     0.012 C 
HETATM   29  C           1     -21.703  -9.674  -2.490  0.00  0.00     0.012 C 
ENDBRANCH  22  27
ENDBRANCH  20  22
ENDBRANCH   1  18
TORSDOF 10
ENDMDL
MODEL 2
REMARK VINA RESULT:      -7.8      1.955      2.858
REMARK  10 active torsions:
REMARK  status: ('A' for Active; 'I' for Inactive)
REMARK    1  A    between atoms: O_3  and  P_4 
REMARK    2  A    between atoms: P_4  and  O_5 
REMARK    3  A    between atoms: O_5  and  C_6 
REMARK    4  A    between atoms: N_8  and  C_16 
REMARK    5  A    between atoms: C_9  and  C_17 
REMARK    6  A    between atoms: C_9  and  C_26 
REMARK    7  A    between atoms: C_9  and  N_28 
REMARK    8  A    between atoms: C_16  and  C_23 
REMARK    9  A    between atoms: C_16  and  C_24 
REMARK       I    between atoms: C_23  and  N_28 
REMARK   10  A    between atoms: C_25  and  C_26 
ROOT
HETATM    1  C           1     -20.659  -7.479  -5.750  0.00  0.00     0.189 C 
ENDROOT
BRANCH   1   2
HETATM    2  C           1     -19.397  -8.253  -5.463  0.00  0.00     0.197 C 
HETATM    3  O           1     -19.178  -8.685  -4.310  0.00  0.00    -0.646 OA
HETATM    4  O           1     -18.570  -8.462  -6.376  0.00  0.00    -0.646 OA
ENDBRANCH   1   2
BRANCH   1   5
HETATM    5  C           1     -20.372  -5.986  -5.661  0.00  0.00     0.074 C 
BRANCH   5   6
HETATM    6  C           1     -20.823  -5.313  -6.920  0.00  0.00    -0.056 A 
HETATM    7  C           1     -20.006  -5.333  -8.052  0.00  0.00     0.010 A 
HETATM    8  C           1     -20.425  -4.706  -9.225  0.00  0.00     0.038 A 
HETATM    9  C           1     -21.660  -4.061  -9.268  0.00  0.00     0.081 A 
HETATM   10  C           1     -22.477  -4.041  -8.137  0.00  0.00     0.038 A 
HETATM   11  C           1     -22.058  -4.668  -6.964  0.00  0.00     0.010 A 
BRANCH   9  12
HETATM   12  O           1     -22.069  -3.452 -10.408  0.00  0.00    -0.247 OA
BRANCH  12  13
HETATM   13  P           1     -23.430  -3.975 -11.103  0.00  0.00     0.411 P 
HETATM   14  O           1     -24.547  -3.077 -10.738  0.00  0.00    -0.624 OA
HETATM   15  O           1     -23.726  -5.347 -10.633  0.00  0.00    -0.624 OA
BRANCH  13  16
HETATM   16  O           1     -23.246  -3.983 -12.707  0.00  0.00    -0.300 OA
HETATM   17  H           1     -22.736  -4.752 -12.891  0.00  0.00     0.223 HD
ENDBRANCH  13  16
ENDBRANCH  12  13
ENDBRANCH   9  12
ENDBRANCH   5   6
ENDBRANCH   1   5
BRANCH   1  18
HETATM   18  N           1     -21.674  -7.834  -4.778  0.00  0.00    -0.344 N 
HETATM   19  H           1     -22.020  -8.784  -4.731  0.00  0.00     0.163 HD
HETATM   20  C           1     -22.166  -6.884  -3.923  0.00  0.00     0.249 C 
HETATM   21  O           1     -23.130  -6.228  -4.240  0.00  0.00    -0.271 OA
BRANCH  20  22
HETATM   22  C           1     -21.505  -6.656  -2.586  0.00  0.00     0.278 C 
BRANCH  22  23
HETATM   23  N           1     -22.102  -5.445  -1.933  0.00  0.00    -0.066 N 
HETATM   24  H           1     -21.354  -4.734  -1.768  0.00  0.00     0.275 HD
HETATM   25  H           1     -22.837  -5.040  -2.556  0.00  0.00     0.275 HD
HETATM   26  H           1     -22.531  -5.718  -1.020  0.00  0.00     0.275 HD
ENDBRANCH  22  23
BRANCH  22  27
HETATM   27  C           1     -21.724  -7.872  -1.696  0.00  0.00     0.017 C 
HETATM   28  C           1     -22.533  -7.464  -0.471  0.00  0.00     0.012 C 
HETATM   29  C           1     -20.377  -8.426  -1.252  0.00  0.00     0.012 C 
ENDBRANCH  22  27
ENDBRANCH  20  22
ENDBRANCH   1  18
TORSDOF 10
ENDMDL
MODEL 3
REMARK VINA RESULT:      -7.7      1.870      2.746
REMARK  10 active torsions:
REMARK  status: ('A' for Active; 'I' for Inactive)
REMARK    1  A    between atoms: O_3  and  P_4 
REMARK    2  A    between atoms: P_4  and  O_5 
REMARK    3  A    between atoms: O_5  and  C_6 
REMARK    4  A    between atoms: N_8  and  C_16 
REMARK    5  A    between atoms: C_9  and  C_17 
REMARK    6  A    between atoms: C_9  and  C_26 
REMARK    7  A    between atoms: C_9  and  N_28 
REMARK    8  A    between atoms: C_16  and  C_23 
REMARK    9  A    between atoms: C_16  and  C_24 
REMARK       I    between atoms: C_23  and  N_28 
REMARK   10  A    between atoms: C_25  and  C_26 
ROOT
HETATM    1  C           1     -21.683  -6.918  -5.437  0.00  0.00     0.189 C 
ENDROOT
BRANCH   1   2
HETATM    2  C           1     -20.745  -8.099  -5.432  0.00  0.00     0.197 C 
HETATM    3  O           1     -19.533  -7.932  -5.176  0.00  0.00    -0.646 OA
HETATM    4  O           1     -21.179  -9.243  -5.684  0.00  0.00    -0.646 OA
ENDBRANCH   1   2
BRANCH   1   5
HETATM    5  C           1     -20.889  -5.638  -5.661  0.00  0.00     0.074 C 
BRANCH   5   6
HETATM    6  C           1     -21.283  -5.026  -6.969  0.00  0.00    -0.056 A 
HETATM    7  C           1     -22.544  -4.449  -7.117  0.00  0.00     0.010 A 
HETATM    8  C           1     -22.912  -3.880  -8.336  0.00  0.00     0.038 A 
HETATM    9  C           1     -22.019  -3.887  -9.407  0.00  0.00     0.081 A 
HETATM   10  C           1     -20.757  -4.465  -9.259  0.00  0.00     0.038 A 
HETATM   11  C           1     -20.390  -5.033  -8.040  0.00  0.00     0.010 A 
BRANCH   9  12
HETATM   12  O           1     -22.375  -3.334 -10.592  0.00  0.00    -0.247 OA
BRANCH  12  13
HETATM   13  P           1     -23.616  -3.988 -11.393  0.00  0.00     0.411 P 
HETATM   14  O           1     -24.843  -3.207 -11.124  0.00  0.00    -0.624 OA
HETATM   15  O           1     -23.811  -5.384 -10.943  0.00  0.00    -0.624 OA
BRANCH  13  16
HETATM   16  O           1     -23.302  -3.970 -12.977  0.00  0.00    -0.300 OA
HETATM   17  H           1     -22.520  -4.484 -13.077  0.00  0.00     0.223 HD
ENDBRANCH  13  16
ENDBRANCH  12  13
ENDBRANCH   9  12
ENDBRANCH   5   6
ENDBRANCH   1   5
BRANCH   1  18
HETATM   18  N           1     -22.371  -6.843  -4.163  0.00  0.00    -0.344 N 
HETATM   19  H           1     -23.379  -6.755  -4.137  0.00  0.00     0.163 HD
HETATM   20  C           1     -21.658  -6.891  -2.995  0.00  0.00     0.249 C 
HETATM   21  O           1     -21.253  -5.870  -2.493  0.00  0.00    -0.271 OA
BRANCH  20  22
HETATM   22  C           1     -21.378  -8.219  -2.336  0.00  0.00     0.278 C 
BRANCH  22  23
HETATM   23  N           1     -19.919  -8.311  -1.999  0.00  0.00    -0.066 N 
HETATM   24  H           1     -19.424  -8.856  -2.740  0.00  0.00     0.275 HD
HETATM   25  H           1     -19.513  -7.350  -1.942  0.00  0.00     0.275 HD
HETATM   26  H           1     -19.805  -8.792  -1.077  0.00  0.00     0.275 HD
ENDBRANCH  22  23
BRANCH  22  27
HETATM   27  C           1     -22.202  -8.338  -1.061  0.00  0.00     0.017 C 
HETATM   28  C           1     -21.324  -8.019   0.141  0.00  0.00     0.012 C 
HETATM   29  C           1     -22.737  -9.759  -0.934  0.00  0.00     0.012 C 
ENDBRANCH  22  27
ENDBRANCH  20  22
ENDBRANCH   1  18
TORSDOF 10
ENDMDL
MODEL 4
REMARK VINA RESULT:      -7.7      4.119      8.613
REMARK  10 active torsions:
REMARK  status: ('A' for Active; 'I' for Inactive)
REMARK    1  A    between atoms: O_3  and  P_4 
REMARK    2  A    between atoms: P_4  and  O_5 
REMARK    3  A    between atoms: O_5  and  C_6 
REMARK    4  A    between atoms: N_8  and  C_16 
REMARK    5  A    between atoms: C_9  and  C_17 
REMARK    6  A    between atoms: C_9  and  C_26 
REMARK    7  A    between atoms: C_9  and  N_28 
REMARK    8  A    between atoms: C_16  and  C_23 
REMARK    9  A    between atoms: C_16  and  C_24 
REMARK       I    between atoms: C_23  and  N_28 
REMARK   10  A    between atoms: C_25  and  C_26 
ROOT
HETATM    1  C           1     -21.081  -4.777  -6.537  0.00  0.00     0.189 C 
ENDROOT
BRANCH   1   2
HETATM    2  C           1     -19.797  -5.232  -7.186  0.00  0.00     0.197 C 
HETATM    3  O           1     -18.883  -4.409  -7.407  0.00  0.00    -0.646 OA
HETATM    4  O           1     -19.647  -6.432  -7.503  0.00  0.00    -0.646 OA
ENDBRANCH   1   2
BRANCH   1   5
HETATM    5  C           1     -21.990  -5.978  -6.312  0.00  0.00     0.074 C 
BRANCH   5   6
HETATM    6  C           1     -21.701  -6.582  -4.973  0.00  0.00    -0.056 A 
HETATM    7  C           1     -21.793  -7.963  -4.797  0.00  0.00     0.010 A 
HETATM    8  C           1     -21.524  -8.526  -3.550  0.00  0.00     0.038 A 
HETATM    9  C           1     -21.163  -7.709  -2.479  0.00  0.00     0.081 A 
HETATM   10  C           1     -21.071  -6.327  -2.655  0.00  0.00     0.038 A 
HETATM   11  C           1     -21.340  -5.765  -3.902  0.00  0.00     0.010 A 
BRANCH   9  12
HETATM   12  O           1     -20.901  -8.255  -1.266  0.00  0.00    -0.247 OA
BRANCH  12  13
HETATM   13  P           1     -22.112  -8.358  -0.203  0.00  0.00     0.411 P 
HETATM   14  O           1     -23.008  -7.191  -0.361  0.00  0.00    -0.624 OA
HETATM   15  O           1     -21.560  -8.375   1.170  0.00  0.00    -0.624 OA
BRANCH  13  16
HETATM   16  O           1     -22.945  -9.716  -0.466  0.00  0.00    -0.300 OA
HETATM   17  H           1     -22.581 -10.345   0.133  0.00  0.00     0.223 HD
ENDBRANCH  13  16
ENDBRANCH  12  13
ENDBRANCH   9  12
ENDBRANCH   5   6
ENDBRANCH   1   5
BRANCH   1  18
HETATM   18  N           1     -21.746  -3.822  -7.401  0.00  0.00    -0.344 N 
HETATM   19  H           1     -21.465  -2.850  -7.392  0.00  0.00     0.163 HD
HETATM   20  C           1     -22.755  -4.235  -8.230  0.00  0.00     0.249 C 
HETATM   21  O           1     -23.899  -4.222  -7.841  0.00  0.00    -0.271 OA
BRANCH  20  22
HETATM   22  C           1     -22.439  -4.707  -9.628  0.00  0.00     0.278 C 
BRANCH  22  23
HETATM   23  N           1     -23.709  -4.819 -10.417  0.00  0.00    -0.066 N 
HETATM   24  H           1     -24.525  -4.617  -9.795  0.00  0.00     0.275 HD
HETATM   25  H           1     -23.693  -4.131 -11.204  0.00  0.00     0.275 HD
HETATM   26  H           1     -23.796  -5.787 -10.802  0.00  0.00     0.275 HD
ENDBRANCH  22  23
BRANCH  22  27
HETATM   27  C           1     -21.508  -3.708 -10.303  0.00  0.00     0.017 C 
HETATM   28  C           1     -22.222  -3.073 -11.489  0.00  0.00     0.012 C 
HETATM   29  C           1     -20.258  -4.429 -10.791  0.00  0.00     0.012 C 
ENDBRANCH  22  27
ENDBRANCH  20  22
ENDBRANCH   1  18
TORSDOF 10
ENDMDL
MODEL 5
REMARK VINA RESULT:      -7.0      3.325      5.066
REMARK  10 active torsions:
REMARK  status: ('A' for Active; 'I' for Inactive)
REMARK    1  A    between atoms: O_3  and  P_4 
REMARK    2  A    between atoms: P_4  and  O_5 
REMARK    3  A    between atoms: O_5  and  C_6 
REMARK    4  A    between atoms: N_8  and  C_16 
REMARK    5  A    between atoms: C_9  and  C_17 
REMARK    6  A    between atoms: C_9  and  C_26 
REMARK    7  A    between atoms: C_9  and  N_28 
REMARK    8  A    between atoms: C_16  and  C_23 
REMARK    9  A    between atoms: C_16  and  C_24 
REMARK       I    between atoms: C_23  and  N_28 
REMARK   10  A    between atoms: C_25  and  C_26 
ROOT
HETATM    1  C           1     -21.059  -9.467  -4.298  0.00  0.00     0.189 C 
ENDROOT
BRANCH   1   2
HETATM    2  C           1     -21.247 -10.581  -5.296  0.00  0.00     0.197 C 
HETATM    3  O           1     -22.016 -11.532  -5.034  0.00  0.00    -0.646 OA
HETATM    4  O           1     -20.636 -10.555  -6.386  0.00  0.00    -0.646 OA
ENDBRANCH   1   2
BRANCH   1   5
HETATM    5  C           1     -19.914  -8.569  -4.747  0.00  0.00     0.074 C 
BRANCH   5   6
HETATM    6  C           1     -20.467  -7.342  -5.401  0.00  0.00    -0.056 A 
HETATM    7  C           1     -21.776  -6.940  -5.134  0.00  0.00     0.010 A 
HETATM    8  C           1     -22.293  -5.797  -5.744  0.00  0.00     0.038 A 
HETATM    9  C           1     -21.500  -5.055  -6.619  0.00  0.00     0.081 A 
HETATM   10  C           1     -20.191  -5.456  -6.886  0.00  0.00     0.038 A 
HETATM   11  C           1     -19.674  -6.599  -6.276  0.00  0.00     0.010 A 
BRANCH   9  12
HETATM   12  O           1     -22.001  -3.943  -7.212  0.00  0.00    -0.247 OA
BRANCH  12  13
HETATM   13  P           1     -22.687  -4.101  -8.665  0.00  0.00     0.411 P 
HETATM   14  O           1     -22.653  -5.523  -9.075  0.00  0.00    -0.624 OA
HETATM   15  O           1     -21.944  -3.286  -9.651  0.00  0.00    -0.624 OA
BRANCH  13  16
HETATM   16  O           1     -24.220  -3.598  -8.594  0.00  0.00    -0.300 OA
HETATM   17  H           1     -24.324  -3.029  -9.337  0.00  0.00     0.223 HD
ENDBRANCH  13  16
ENDBRANCH  12  13
ENDBRANCH   9  12
ENDBRANCH   5   6
ENDBRANCH   1   5
BRANCH   1  18
HETATM   18  N           1     -20.749 -10.031  -2.998  0.00  0.00    -0.344 N 
HETATM   19  H           1     -19.909 -10.581  -2.873  0.00  0.00     0.163 HD
HETATM   20  C           1     -21.592  -9.820  -1.940  0.00  0.00     0.249 C 
HETATM   21  O           1     -22.494 -10.594  -1.724  0.00  0.00    -0.271 OA
BRANCH  20  22
HETATM   22  C           1     -21.396  -8.620  -1.046  0.00  0.00     0.278 C 
BRANCH  22  23
HETATM   23  N           1     -22.042  -7.420  -1.671  0.00  0.00    -0.066 N 
HETATM   24  H           1     -22.326  -6.748  -0.923  0.00  0.00     0.275 HD
HETATM   25  H           1     -21.364  -6.956  -2.317  0.00  0.00     0.275 HD
HETATM   26  H           1     -22.886  -7.720  -2.210  0.00  0.00     0.275 HD
ENDBRANCH  22  23
BRANCH  22  27
HETATM   27  C           1     -22.032  -8.889   0.312  0.00  0.00     0.017 C 
HETATM   28  C           1     -23.208  -7.944   0.516  0.00  0.00     0.012 C 
HETATM   29  C           1     -21.000  -8.660   1.409  0.00  0.00     0.012 C 
ENDBRANCH  22  27
ENDBRANCH  20  22
ENDBRANCH   1  18
TORSDOF 10
ENDMDL
MODEL 6
REMARK VINA RESULT:      -6.9      4.801      6.811
REMARK  10 active torsions:
REMARK  status: ('A' for Active; 'I' for Inactive)
REMARK    1  A    between atoms: O_3  and  P_4 
REMARK    2  A    between atoms: P_4  and  O_5 
REMARK    3  A    between atoms: O_5  and  C_6 
REMARK    4  A    between atoms: N_8  and  C_16 
REMARK    5  A    between atoms: C_9  and  C_17 
REMARK    6  A    between atoms: C_9  and  C_26 
REMARK    7  A    between atoms: C_9  and  N_28 
REMARK    8  A    between atoms: C_16  and  C_23 
REMARK    9  A    between atoms: C_16  and  C_24 
REMARK       I    between atoms: C_23  and  N_28 
REMARK   10  A    between atoms: C_25  and  C_26 
ROOT
HETATM    1  C           1     -19.614 -10.427  -2.257  0.00  0.00     0.189 C 
ENDROOT
BRANCH   1   2
HETATM    2  C           1     -18.386 -10.772  -3.060  0.00  0.00     0.197 C 
HETATM    3  O           1     -18.481 -11.522  -4.055  0.00  0.00    -0.646 OA
HETATM    4  O           1     -17.273 -10.309  -2.731  0.00  0.00    -0.646 OA
ENDBRANCH   1   2
BRANCH   1   5
HETATM    5  C           1     -19.566  -8.957  -1.859  0.00  0.00     0.074 C 
BRANCH   5   6
HETATM    6  C           1     -20.343  -8.145  -2.848  0.00  0.00    -0.056 A 
HETATM    7  C           1     -21.045  -7.016  -2.425  0.00  0.00     0.010 A 
HETATM    8  C           1     -21.770  -6.260  -3.345  0.00  0.00     0.038 A 
HETATM    9  C           1     -21.793  -6.631  -4.689  0.00  0.00     0.081 A 
HETATM   10  C           1     -21.091  -7.761  -5.113  0.00  0.00     0.038 A 
HETATM   11  C           1     -20.366  -8.517  -4.192  0.00  0.00     0.010 A 
BRANCH   9  12
HETATM   12  O           1     -22.496  -5.897  -5.584  0.00  0.00    -0.247 OA
BRANCH  12  13
HETATM   13  P           1     -21.672  -5.050  -6.686  0.00  0.00     0.411 P 
HETATM   14  O           1     -21.160  -5.965  -7.729  0.00  0.00    -0.624 OA
HETATM   15  O           1     -20.538  -4.363  -6.031  0.00  0.00    -0.624 OA
BRANCH  13  16
HETATM   16  O           1     -22.648  -3.955  -7.363  0.00  0.00    -0.300 OA
HETATM   17  H           1     -22.804  -4.274  -8.234  0.00  0.00     0.223 HD
ENDBRANCH  13  16
ENDBRANCH  12  13
ENDBRANCH   9  12
ENDBRANCH   5   6
ENDBRANCH   1   5
BRANCH   1  18
HETATM   18  N           1     -19.657 -11.248  -1.063  0.00  0.00    -0.344 N 
HETATM   19  H           1     -18.805 -11.446  -0.554  0.00  0.00     0.163 HD
HETATM   20  C           1     -20.851 -11.757  -0.623  0.00  0.00     0.249 C 
HETATM   21  O           1     -21.226 -12.837  -1.013  0.00  0.00    -0.271 OA
BRANCH  20  22
HETATM   22  C           1     -21.696 -10.969   0.347  0.00  0.00     0.278 C 
BRANCH  22  23
HETATM   23  N           1     -20.829  -9.996   1.089  0.00  0.00    -0.066 N 
HETATM   24  H           1     -21.378  -9.561   1.865  0.00  0.00     0.275 HD
HETATM   25  H           1     -20.002 -10.497   1.486  0.00  0.00     0.275 HD
HETATM   26  H           1     -20.501  -9.250   0.433  0.00  0.00     0.275 HD
ENDBRANCH  22  23
BRANCH  22  27
HETATM   27  C           1     -22.772 -10.209  -0.417  0.00  0.00     0.017 C 
HETATM   28  C           1     -22.925  -8.814   0.175  0.00  0.00     0.012 C 
HETATM   29  C           1     -24.095 -10.954  -0.306  0.00  0.00     0.012 C 
ENDBRANCH  22  27
ENDBRANCH  20  22
ENDBRANCH   1  18
TORSDOF 10
ENDMDL
MODEL 7
REMARK VINA RESULT:      -6.8      1.580      2.411
REMARK  10 active torsions:
REMARK  status: ('A' for Active; 'I' for Inactive)
REMARK    1  A    between atoms: O_3  and  P_4 
REMARK    2  A    between atoms: P_4  and  O_5 
REMARK    3  A    between atoms: O_5  and  C_6 
REMARK    4  A    between atoms: N_8  and  C_16 
REMARK    5  A    between atoms: C_9  and  C_17 
REMARK    6  A    between atoms: C_9  and  C_26 
REMARK    7  A    between atoms: C_9  and  N_28 
REMARK    8  A    between atoms: C_16  and  C_23 
REMARK    9  A    between atoms: C_16  and  C_24 
REMARK       I    between atoms: C_23  and  N_28 
REMARK   10  A    between atoms: C_25  and  C_26 
ROOT
HETATM    1  C           1     -21.538  -4.834  -6.950  0.00  0.00     0.189 C 
ENDROOT
BRANCH   1   2
HETATM    2  C           1     -22.846  -5.102  -6.249  0.00  0.00     0.197 C 
HETATM    3  O           1     -22.893  -5.922  -5.306  0.00  0.00    -0.646 OA
HETATM    4  O           1     -23.884  -4.506  -6.610  0.00  0.00    -0.646 OA
ENDBRANCH   1   2
BRANCH   1   5
HETATM    5  C           1     -21.501  -5.598  -8.268  0.00  0.00     0.074 C 
BRANCH   5   6
HETATM    6  C           1     -21.821  -4.667  -9.395  0.00  0.00    -0.056 A 
HETATM    7  C           1     -23.139  -4.261  -9.611  0.00  0.00     0.010 A 
HETATM    8  C           1     -23.438  -3.395 -10.662  0.00  0.00     0.038 A 
HETATM    9  C           1     -22.421  -2.933 -11.497  0.00  0.00     0.081 A 
HETATM   10  C           1     -21.103  -3.339 -11.281  0.00  0.00     0.038 A 
HETATM   11  C           1     -20.804  -4.205 -10.230  0.00  0.00     0.010 A 
BRANCH   9  12
HETATM   12  O           1     -22.710  -2.091 -12.518  0.00  0.00    -0.247 OA
BRANCH  12  13
HETATM   13  P           1     -23.416  -2.707 -13.834  0.00  0.00     0.411 P 
HETATM   14  O           1     -24.280  -1.680 -14.457  0.00  0.00    -0.624 OA
HETATM   15  O           1     -24.237  -3.876 -13.450  0.00  0.00    -0.624 OA
BRANCH  13  16
HETATM   16  O           1     -22.282  -3.167 -14.887  0.00  0.00    -0.300 OA
HETATM   17  H           1     -21.517  -2.669 -14.655  0.00  0.00     0.223 HD
ENDBRANCH  13  16
ENDBRANCH  12  13
ENDBRANCH   9  12
ENDBRANCH   5   6
ENDBRANCH   1   5
BRANCH   1  18
HETATM   18  N           1     -20.441  -5.270  -6.109  0.00  0.00    -0.344 N 
HETATM   19  H           1     -20.001  -4.616  -5.474  0.00  0.00     0.163 HD
HETATM   20  C           1     -20.001  -6.565  -6.172  0.00  0.00     0.249 C 
HETATM   21  O           1     -19.126  -6.867  -6.948  0.00  0.00    -0.271 OA
BRANCH  20  22
HETATM   22  C           1     -20.609  -7.614  -5.273  0.00  0.00     0.278 C 
BRANCH  22  23
HETATM   23  N           1     -21.396  -8.585  -6.101  0.00  0.00    -0.066 N 
HETATM   24  H           1     -20.817  -8.900  -6.913  0.00  0.00     0.275 HD
HETATM   25  H           1     -21.655  -9.412  -5.516  0.00  0.00     0.275 HD
HETATM   26  H           1     -22.265  -8.121  -6.451  0.00  0.00     0.275 HD
ENDBRANCH  22  23
BRANCH  22  27
HETATM   27  C           1     -19.501  -8.355  -4.536  0.00  0.00     0.017 C 
HETATM   28  C           1     -19.298  -9.724  -5.172  0.00  0.00     0.012 C 
HETATM   29  C           1     -19.892  -8.528  -3.074  0.00  0.00     0.012 C 
ENDBRANCH  22  27
ENDBRANCH  20  22
ENDBRANCH   1  18
TORSDOF 10
ENDMDL
MODEL 8
REMARK VINA RESULT:      -6.8      6.891      9.022
REMARK  10 active torsions:
REMARK  status: ('A' for Active; 'I' for Inactive)
REMARK    1  A    between atoms: O_3  and  P_4 
REMARK    2  A    between atoms: P_4  and  O_5 
REMARK    3  A    between atoms: O_5  and  C_6 
REMARK    4  A    between atoms: N_8  and  C_16 
REMARK    5  A    between atoms: C_9  and  C_17 
REMARK    6  A    between atoms: C_9  and  C_26 
REMARK    7  A    between atoms: C_9  and  N_28 
REMARK    8  A    between atoms: C_16  and  C_23 
REMARK    9  A    between atoms: C_16  and  C_24 
REMARK       I    between atoms: C_23  and  N_28 
REMARK   10  A    between atoms: C_25  and  C_26 
ROOT
HETATM    1  C           1     -21.287  -7.724  -2.063  0.00  0.00     0.189 C 
ENDROOT
BRANCH   1   2
HETATM    2  C           1     -21.787  -6.380  -2.529  0.00  0.00     0.197 C 
HETATM    3  O           1     -22.439  -5.651  -1.750  0.00  0.00    -0.646 OA
HETATM    4  O           1     -21.550  -5.993  -3.694  0.00  0.00    -0.646 OA
ENDBRANCH   1   2
BRANCH   1   5
HETATM    5  C           1     -21.293  -8.702  -3.231  0.00  0.00     0.074 C 
BRANCH   5   6
HETATM    6  C           1     -19.885  -9.040  -3.609  0.00  0.00    -0.056 A 
HETATM    7  C           1     -18.917  -9.203  -2.617  0.00  0.00     0.010 A 
HETATM    8  C           1     -17.605  -9.516  -2.968  0.00  0.00     0.038 A 
HETATM    9  C           1     -17.259  -9.668  -4.310  0.00  0.00     0.081 A 
HETATM   10  C           1     -18.226  -9.505  -5.302  0.00  0.00     0.038 A 
HETATM   11  C           1     -19.539  -9.192  -4.951  0.00  0.00     0.010 A 
BRANCH   9  12
HETATM   12  O           1     -15.984  -9.974  -4.652  0.00  0.00    -0.247 OA
BRANCH  12  13
HETATM   13  P           1     -15.486 -11.496  -4.444  0.00  0.00     0.411 P 
HETATM   14  O           1     -16.628 -12.419  -4.630  0.00  0.00    -0.624 OA
HETATM   15  O           1     -14.942 -11.654  -3.077  0.00  0.00    -0.624 OA
BRANCH  13  16
HETATM   16  O           1     -14.336 -11.839  -5.524  0.00  0.00    -0.300 OA
HETATM   17  H           1     -13.534 -11.853  -5.031  0.00  0.00     0.223 HD
ENDBRANCH  13  16
ENDBRANCH  12  13
ENDBRANCH   9  12
ENDBRANCH   5   6
ENDBRANCH   1   5
BRANCH   1  18
HETATM   18  N           1     -22.152  -8.223  -1.012  0.00  0.00    -0.344 N 
HETATM   19  H           1     -23.119  -7.928  -0.970  0.00  0.00     0.163 HD
HETATM   20  C           1     -21.661  -9.093  -0.076  0.00  0.00     0.249 C 
HETATM   21  O           1     -21.172  -8.669   0.944  0.00  0.00    -0.271 OA
BRANCH  20  22
HETATM   22  C           1     -21.730 -10.581  -0.318  0.00  0.00     0.278 C 
BRANCH  22  23
HETATM   23  N           1     -21.097 -11.304   0.833  0.00  0.00    -0.066 N 
HETATM   24  H           1     -21.231 -10.750   1.709  0.00  0.00     0.275 HD
HETATM   25  H           1     -21.543 -12.243   0.943  0.00  0.00     0.275 HD
HETATM   26  H           1     -20.075 -11.424   0.649  0.00  0.00     0.275 HD
ENDBRANCH  22  23
BRANCH  22  27
HETATM   27  C           1     -23.186 -11.009  -0.447  0.00  0.00     0.017 C 
HETATM   28  C           1     -23.449 -12.195   0.471  0.00  0.00     0.012 C 
HETATM   29  C           1     -23.471 -11.410  -1.888  0.00  0.00     0.012 C 
ENDBRANCH  22  27
ENDBRANCH  20  22
ENDBRANCH   1  18
TORSDOF 10
ENDMDL
MODEL 9
REMARK VINA RESULT:      -6.8      4.650      6.620
REMARK  10 active torsions:
REMARK  status: ('A' for Active; 'I' for Inactive)
REMARK    1  A    between atoms: O_3  and  P_4 
REMARK    2  A    between atoms: P_4  and  O_5 
REMARK    3  A    between atoms: O_5  and  C_6 
REMARK    4  A    between atoms: N_8  and  C_16 
REMARK    5  A    between atoms: C_9  and  C_17 
REMARK    6  A    between atoms: C_9  and  C_26 
REMARK    7  A    between atoms: C_9  and  N_28 
REMARK    8  A    between atoms: C_16  and  C_23 
REMARK    9  A    between atoms: C_16  and  C_24 
REMARK       I    between atoms: C_23  and  N_28 
REMARK   10  A    between atoms: C_25  and  C_26 
ROOT
HETATM    1  C           1     -20.816  -9.802  -1.406  0.00  0.00     0.189 C 
ENDROOT
BRANCH   1   2
HETATM    2  C           1     -21.421  -9.682  -0.029  0.00  0.00     0.197 C 
HETATM    3  O           1     -20.751 -10.001   0.977  0.00  0.00    -0.646 OA
HETATM    4  O           1     -22.590  -9.263   0.106  0.00  0.00    -0.646 OA
ENDBRANCH   1   2
BRANCH   1   5
HETATM    5  C           1     -21.896  -9.579  -2.457  0.00  0.00     0.074 C 
BRANCH   5   6
HETATM    6  C           1     -21.532  -8.400  -3.305  0.00  0.00    -0.056 A 
HETATM    7  C           1     -21.173  -8.587  -4.641  0.00  0.00     0.010 A 
HETATM    8  C           1     -20.833  -7.489  -5.431  0.00  0.00     0.038 A 
HETATM    9  C           1     -20.854  -6.205  -4.887  0.00  0.00     0.081 A 
HETATM   10  C           1     -21.213  -6.018  -3.552  0.00  0.00     0.038 A 
HETATM   11  C           1     -21.553  -7.116  -2.762  0.00  0.00     0.010 A 
BRANCH   9  12
HETATM   12  O           1     -20.525  -5.138  -5.655  0.00  0.00    -0.247 OA
BRANCH  12  13
HETATM   13  P           1     -21.550  -4.697  -6.822  0.00  0.00     0.411 P 
HETATM   14  O           1     -21.389  -3.253  -7.102  0.00  0.00    -0.624 OA
HETATM   15  O           1     -22.938  -4.964  -6.384  0.00  0.00    -0.624 OA
BRANCH  13  16
HETATM   16  O           1     -21.236  -5.543  -8.162  0.00  0.00    -0.300 OA
HETATM   17  H           1     -21.662  -5.069  -8.855  0.00  0.00     0.223 HD
ENDBRANCH  13  16
ENDBRANCH  12  13
ENDBRANCH   9  12
ENDBRANCH   5   6
ENDBRANCH   1   5
BRANCH   1  18
HETATM   18  N           1     -20.249 -11.126  -1.570  0.00  0.00    -0.344 N 
HETATM   19  H           1     -20.856 -11.936  -1.599  0.00  0.00     0.163 HD
HETATM   20  C           1     -18.894 -11.282  -1.687  0.00  0.00     0.249 C 
HETATM   21  O           1     -18.218 -11.446  -0.699  0.00  0.00    -0.271 OA
BRANCH  20  22
HETATM   22  C           1     -18.244 -11.248  -3.048  0.00  0.00     0.278 C 
BRANCH  22  23
HETATM   23  N           1     -19.234 -11.687  -4.085  0.00  0.00    -0.066 N 
HETATM   24  H           1     -18.798 -12.411  -4.700  0.00  0.00     0.275 HD
HETATM   25  H           1     -20.077 -12.090  -3.616  0.00  0.00     0.275 HD
HETATM   26  H           1     -19.520 -10.864  -4.665  0.00  0.00     0.275 HD
ENDBRANCH  22  23
BRANCH  22  27
HETATM   27  C           1     -17.782  -9.830  -3.356  0.00  0.00     0.017 C 
HETATM   28  C           1     -17.821  -9.599  -4.860  0.00  0.00     0.012 C 
HETATM   29  C           1     -16.358  -9.639  -2.851  0.00  0.00     0.012 C 
ENDBRANCH  22  27
ENDBRANCH  20  22
ENDBRANCH   1  18
TORSDOF 10
ENDMDL
