MODEL 1
REMARK VINA RESULT:      -6.8      0.000      0.000
REMARK  9 active torsions:
REMARK  status: ('A' for Active; 'I' for Inactive)
REMARK    1  A    between atoms: C_2  and  C_24 
REMARK    2  A    between atoms: S_6  and  C_9 
REMARK    3  A    between atoms: N_8  and  C_16 
REMARK    4  A    between atoms: C_9  and  C_11 
REMARK    5  A    between atoms: C_11  and  C_16 
REMARK    6  A    between atoms: N_14  and  C_24 
REMARK       I    between atoms: N_14  and  C_15 
REMARK    7  A    between atoms: C_15  and  C_16 
REMARK    8  A    between atoms: C_22  and  C_23 
REMARK    9  A    between atoms: C_23  and  C_24 
ROOT
HETATM    1  O           1     -33.606  -1.605 -10.525  0.00  0.00    -0.271 OA
HETATM    2  N           1     -35.770  -1.218 -10.131  0.00  0.00    -0.344 N 
HETATM    3  C           1     -34.756  -1.877 -10.772  0.00  0.00     0.249 C 
HETATM    4  H           1     -36.138  -1.579  -9.260  0.00  0.00     0.163 HD
ENDROOT
BRANCH   2   5
HETATM    5  C           1     -36.318  -0.002 -10.701  0.00  0.00     0.189 C 
BRANCH   5   6
HETATM    6  C           1     -36.938   0.831  -9.606  0.00  0.00     0.197 C 
HETATM    7  O           1     -36.332   0.993  -8.525  0.00  0.00    -0.646 OA
HETATM    8  O           1     -38.056   1.361  -9.781  0.00  0.00    -0.646 OA
ENDBRANCH   5   6
BRANCH   5   9
HETATM    9  C           1     -37.380  -0.359 -11.733  0.00  0.00     0.074 C 
BRANCH   9  10
HETATM   10  C           1     -36.897   0.018 -13.098  0.00  0.00    -0.056 A 
HETATM   11  C           1     -35.591   0.475 -13.274  0.00  0.00     0.007 A 
HETATM   12  C           1     -35.140   0.827 -14.547  0.00  0.00     0.001 A 
HETATM   13  C           1     -35.996   0.720 -15.644  0.00  0.00     0.000 A 
HETATM   14  C           1     -37.302   0.262 -15.467  0.00  0.00     0.001 A 
HETATM   15  C           1     -37.753  -0.089 -14.195  0.00  0.00     0.007 A 
ENDBRANCH   9  10
ENDBRANCH   5   9
ENDBRANCH   2   5
BRANCH   3  16
HETATM   16  C           1     -35.075  -2.948 -11.787  0.00  0.00     0.275 C 
BRANCH  16  17
HETATM   17  N           1     -33.895  -3.145 -12.692  0.00  0.00    -0.066 N 
HETATM   18  H           1     -33.045  -2.723 -12.253  0.00  0.00     0.275 HD
HETATM   19  H           1     -34.079  -2.683 -13.610  0.00  0.00     0.275 HD
HETATM   20  H           1     -33.737  -4.167 -12.841  0.00  0.00     0.275 HD
ENDBRANCH  16  17
BRANCH  16  21
HETATM   21  C           1     -35.388  -4.253 -11.069  0.00  0.00     0.053 C 
BRANCH  21  22
HETATM   22  C           1     -34.802  -5.419 -11.855  0.00  0.00     0.076 C 
BRANCH  22  23
HETATM   23  S           1     -33.659  -6.350 -10.796  0.00  0.00    -0.173 SA
HETATM   24  C           1     -34.905  -7.464 -10.089  0.00  0.00     0.089 C 
ENDBRANCH  22  23
ENDBRANCH  21  22
ENDBRANCH  16  21
ENDBRANCH   3  16
TORSDOF 9
ENDMDL
MODEL 2
REMARK VINA RESULT:      -6.3     14.574     16.328
REMARK  9 active torsions:
REMARK  status: ('A' for Active; 'I' for Inactive)
REMARK    1  A    between atoms: C_2  and  C_24 
REMARK    2  A    between atoms: S_6  and  C_9 
REMARK    3  A    between atoms: N_8  and  C_16 
REMARK    4  A    between atoms: C_9  and  C_11 
REMARK    5  A    between atoms: C_11  and  C_16 
REMARK    6  A    between atoms: N_14  and  C_24 
REMARK       I    between atoms: N_14  and  C_15 
REMARK    7  A    between atoms: C_15  and  C_16 
REMARK    8  A    between atoms: C_22  and  C_23 
REMARK    9  A    between atoms: C_23  and  C_24 
ROOT
HETATM    1  O           1     -20.897  -5.706  -3.865  0.00  0.00    -0.271 OA
HETATM    2  N           1     -22.230  -5.683  -5.657  0.00  0.00    -0.344 N 
HETATM    3  C           1     -21.576  -6.331  -4.644  0.00  0.00     0.249 C 
HETATM    4  H           1     -23.168  -5.334  -5.512  0.00  0.00     0.163 HD
ENDROOT
BRANCH   2   5
HETATM    5  C           1     -21.577  -5.497  -6.939  0.00  0.00     0.189 C 
BRANCH   5   6
HETATM    6  C           1     -20.081  -5.575  -6.757  0.00  0.00     0.197 C 
HETATM    7  O           1     -19.443  -4.565  -6.390  0.00  0.00    -0.646 OA
HETATM    8  O           1     -19.480  -6.649  -6.971  0.00  0.00    -0.646 OA
ENDBRANCH   5   6
BRANCH   5   9
HETATM    9  C           1     -21.950  -4.134  -7.506  0.00  0.00     0.074 C 
BRANCH   9  10
HETATM   10  C           1     -21.921  -4.190  -9.001  0.00  0.00    -0.056 A 
HETATM   11  C           1     -20.730  -3.943  -9.685  0.00  0.00     0.007 A 
HETATM   12  C           1     -20.702  -3.995 -11.079  0.00  0.00     0.001 A 
HETATM   13  C           1     -21.865  -4.295 -11.789  0.00  0.00     0.000 A 
HETATM   14  C           1     -23.055  -4.542 -11.105  0.00  0.00     0.001 A 
HETATM   15  C           1     -23.084  -4.490  -9.711  0.00  0.00     0.007 A 
ENDBRANCH   9  10
ENDBRANCH   5   9
ENDBRANCH   2   5
BRANCH   3  16
HETATM   16  C           1     -21.704  -7.828  -4.499  0.00  0.00     0.275 C 
BRANCH  16  17
HETATM   17  N           1     -21.302  -8.490  -5.784  0.00  0.00    -0.066 N 
HETATM   18  H           1     -21.900  -9.332  -5.945  0.00  0.00     0.275 HD
HETATM   19  H           1     -20.300  -8.778  -5.728  0.00  0.00     0.275 HD
HETATM   20  H           1     -21.428  -7.819  -6.576  0.00  0.00     0.275 HD
ENDBRANCH  16  17
BRANCH  16  21
HETATM   21  C           1     -20.797  -8.310  -3.376  0.00  0.00     0.053 C 
BRANCH  21  22
HETATM   22  C           1     -21.616  -9.104  -2.366  0.00  0.00     0.076 C 
BRANCH  22  23
HETATM   23  S           1     -21.336  -8.438  -0.701  0.00  0.00    -0.173 SA
HETATM   24  C           1     -22.340  -6.942  -0.913  0.00  0.00     0.089 C 
ENDBRANCH  22  23
ENDBRANCH  21  22
ENDBRANCH  16  21
ENDBRANCH   3  16
TORSDOF 9
ENDMDL
MODEL 3
REMARK VINA RESULT:      -6.2     15.402     18.421
REMARK  9 active torsions:
REMARK  status: ('A' for Active; 'I' for Inactive)
REMARK    1  A    between atoms: C_2  and  C_24 
REMARK    2  A    between atoms: S_6  and  C_9 
REMARK    3  A    between atoms: N_8  and  C_16 
REMARK    4  A    between atoms: C_9  and  C_11 
REMARK    5  A    between atoms: C_11  and  C_16 
REMARK    6  A    between atoms: N_14  and  C_24 
REMARK       I    between atoms: N_14  and  C_15 
REMARK    7  A    between atoms: C_15  and  C_16 
REMARK    8  A    between atoms: C_22  and  C_23 
REMARK    9  A    between atoms: C_23  and  C_24 
ROOT
HETATM    1  O           1     -19.410  -6.475  -7.214  0.00  0.00    -0.271 OA
HETATM    2  N           1     -20.805  -7.697  -5.970  0.00  0.00    -0.344 N 
HETATM    3  C           1     -20.349  -6.501  -6.456  0.00  0.00     0.249 C 
HETATM    4  H           1     -21.520  -8.207  -6.471  0.00  0.00     0.163 HD
ENDROOT
BRANCH   2   5
HETATM    5  C           1     -20.262  -8.232  -4.736  0.00  0.00     0.189 C 
BRANCH   5   6
HETATM    6  C           1     -19.069  -9.101  -5.047  0.00  0.00     0.197 C 
HETATM    7  O           1     -18.151  -9.226  -4.208  0.00  0.00    -0.646 OA
HETATM    8  O           1     -18.999  -9.698  -6.143  0.00  0.00    -0.646 OA
ENDBRANCH   5   6
BRANCH   5   9
HETATM    9  C           1     -21.327  -9.062  -4.031  0.00  0.00     0.074 C 
BRANCH   9  10
HETATM   10  C           1     -21.690  -8.411  -2.734  0.00  0.00    -0.056 A 
HETATM   11  C           1     -21.906  -9.191  -1.598  0.00  0.00     0.007 A 
HETATM   12  C           1     -22.244  -8.585  -0.388  0.00  0.00     0.001 A 
HETATM   13  C           1     -22.367  -7.196  -0.314  0.00  0.00     0.000 A 
HETATM   14  C           1     -22.150  -6.416  -1.450  0.00  0.00     0.001 A 
HETATM   15  C           1     -21.812  -7.023  -2.660  0.00  0.00     0.007 A 
ENDBRANCH   9  10
ENDBRANCH   5   9
ENDBRANCH   2   5
BRANCH   3  16
HETATM   16  C           1     -21.022  -5.214  -6.046  0.00  0.00     0.275 C 
BRANCH  16  17
HETATM   17  N           1     -20.192  -4.528  -5.002  0.00  0.00    -0.066 N 
HETATM   18  H           1     -20.361  -4.975  -4.073  0.00  0.00     0.275 HD
HETATM   19  H           1     -20.454  -3.518  -4.956  0.00  0.00     0.275 HD
HETATM   20  H           1     -19.180  -4.614  -5.249  0.00  0.00     0.275 HD
ENDBRANCH  16  17
BRANCH  16  21
HETATM   21  C           1     -21.163  -4.305  -7.259  0.00  0.00     0.053 C 
BRANCH  21  22
HETATM   22  C           1     -22.602  -4.339  -7.756  0.00  0.00     0.076 C 
BRANCH  22  23
HETATM   23  S           1     -22.639  -3.966  -9.532  0.00  0.00    -0.173 SA
HETATM   24  C           1     -20.882  -4.298  -9.842  0.00  0.00     0.089 C 
ENDBRANCH  22  23
ENDBRANCH  21  22
ENDBRANCH  16  21
ENDBRANCH   3  16
TORSDOF 9
ENDMDL
MODEL 4
REMARK VINA RESULT:      -6.1      1.492      1.973
REMARK  9 active torsions:
REMARK  status: ('A' for Active; 'I' for Inactive)
REMARK    1  A    between atoms: C_2  and  C_24 
REMARK    2  A    between atoms: S_6  and  C_9 
REMARK    3  A    between atoms: N_8  and  C_16 
REMARK    4  A    between atoms: C_9  and  C_11 
REMARK    5  A    between atoms: C_11  and  C_16 
REMARK    6  A    between atoms: N_14  and  C_24 
REMARK       I    between atoms: N_14  and  C_15 
REMARK    7  A    between atoms: C_15  and  C_16 
REMARK    8  A    between atoms: C_22  and  C_23 
REMARK    9  A    between atoms: C_23  and  C_24 
ROOT
HETATM    1  O           1     -32.700  -2.806 -11.339  0.00  0.00    -0.271 OA
HETATM    2  N           1     -34.575  -1.882 -10.553  0.00  0.00    -0.344 N 
HETATM    3  C           1     -33.880  -2.921 -11.110  0.00  0.00     0.249 C 
HETATM    4  H           1     -34.647  -1.802  -9.547  0.00  0.00     0.163 HD
ENDROOT
BRANCH   2   5
HETATM    5  C           1     -35.209  -0.895 -11.406  0.00  0.00     0.189 C 
BRANCH   5   6
HETATM    6  C           1     -36.519  -0.467 -10.791  0.00  0.00     0.197 C 
HETATM    7  O           1     -36.601   0.631 -10.198  0.00  0.00    -0.646 OA
HETATM    8  O           1     -37.521  -1.208 -10.874  0.00  0.00    -0.646 OA
ENDBRANCH   5   6
BRANCH   5   9
HETATM    9  C           1     -35.467  -1.501 -12.779  0.00  0.00     0.074 C 
BRANCH   9  10
HETATM   10  C           1     -35.654  -0.406 -13.782  0.00  0.00    -0.056 A 
HETATM   11  C           1     -36.712  -0.463 -14.688  0.00  0.00     0.007 A 
HETATM   12  C           1     -36.887   0.557 -15.623  0.00  0.00     0.001 A 
HETATM   13  C           1     -36.003   1.637 -15.650  0.00  0.00     0.000 A 
HETATM   14  C           1     -34.946   1.695 -14.743  0.00  0.00     0.001 A 
HETATM   15  C           1     -34.770   0.674 -13.808  0.00  0.00     0.007 A 
ENDBRANCH   9  10
ENDBRANCH   5   9
ENDBRANCH   2   5
BRANCH   3  16
HETATM   16  C           1     -34.588  -4.214 -11.437  0.00  0.00     0.275 C 
BRANCH  16  17
HETATM   17  N           1     -34.124  -4.712 -12.774  0.00  0.00    -0.066 N 
HETATM   18  H           1     -34.290  -3.976 -13.497  0.00  0.00     0.275 HD
HETATM   19  H           1     -34.653  -5.576 -13.026  0.00  0.00     0.275 HD
HETATM   20  H           1     -33.103  -4.929 -12.729  0.00  0.00     0.275 HD
ENDBRANCH  16  17
BRANCH  16  21
HETATM   21  C           1     -34.270  -5.252 -10.370  0.00  0.00     0.053 C 
BRANCH  21  22
HETATM   22  C           1     -34.428  -6.649 -10.956  0.00  0.00     0.076 C 
BRANCH  22  23
HETATM   23  S           1     -34.983  -7.791  -9.659  0.00  0.00    -0.173 SA
HETATM   24  C           1     -33.673  -9.023  -9.905  0.00  0.00     0.089 C 
ENDBRANCH  22  23
ENDBRANCH  21  22
ENDBRANCH  16  21
ENDBRANCH   3  16
TORSDOF 9
ENDMDL
MODEL 5
REMARK VINA RESULT:      -6.1     15.389     17.445
REMARK  9 active torsions:
REMARK  status: ('A' for Active; 'I' for Inactive)
REMARK    1  A    between atoms: C_2  and  C_24 
REMARK    2  A    between atoms: S_6  and  C_9 
REMARK    3  A    between atoms: N_8  and  C_16 
REMARK    4  A    between atoms: C_9  and  C_11 
REMARK    5  A    between atoms: C_11  and  C_16 
REMARK    6  A    between atoms: N_14  and  C_24 
REMARK       I    between atoms: N_14  and  C_15 
REMARK    7  A    between atoms: C_15  and  C_16 
REMARK    8  A    between atoms: C_22  and  C_23 
REMARK    9  A    between atoms: C_23  and  C_24 
ROOT
HETATM    1  O           1     -21.585  -5.311  -2.244  0.00  0.00    -0.271 OA
HETATM    2  N           1     -22.563  -6.470  -3.884  0.00  0.00    -0.344 N 
HETATM    3  C           1     -21.954  -6.383  -2.661  0.00  0.00     0.249 C 
HETATM    4  H           1     -23.568  -6.381  -3.955  0.00  0.00     0.163 HD
ENDROOT
BRANCH   2   5
HETATM    5  C           1     -21.768  -6.690  -5.076  0.00  0.00     0.189 C 
BRANCH   5   6
HETATM    6  C           1     -20.990  -7.975  -4.929  0.00  0.00     0.197 C 
HETATM    7  O           1     -19.748  -7.941  -4.791  0.00  0.00    -0.646 OA
HETATM    8  O           1     -21.586  -9.073  -4.946  0.00  0.00    -0.646 OA
ENDBRANCH   5   6
BRANCH   5   9
HETATM    9  C           1     -20.801  -5.529  -5.263  0.00  0.00     0.074 C 
BRANCH   9  10
HETATM   10  C           1     -20.899  -5.018  -6.666  0.00  0.00    -0.056 A 
HETATM   11  C           1     -22.115  -4.535  -7.148  0.00  0.00     0.007 A 
HETATM   12  C           1     -22.208  -4.058  -8.456  0.00  0.00     0.001 A 
HETATM   13  C           1     -21.083  -4.064  -9.282  0.00  0.00     0.000 A 
HETATM   14  C           1     -19.866  -4.546  -8.798  0.00  0.00     0.001 A 
HETATM   15  C           1     -19.774  -5.022  -7.490  0.00  0.00     0.007 A 
ENDBRANCH   9  10
ENDBRANCH   5   9
ENDBRANCH   2   5
BRANCH   3  16
HETATM   16  C           1     -21.744  -7.627  -1.831  0.00  0.00     0.275 C 
BRANCH  16  17
HETATM   17  N           1     -20.274  -7.864  -1.652  0.00  0.00    -0.066 N 
HETATM   18  H           1     -19.999  -8.740  -2.152  0.00  0.00     0.275 HD
HETATM   19  H           1     -20.059  -7.961  -0.635  0.00  0.00     0.275 HD
HETATM   20  H           1     -19.740  -7.058  -2.047  0.00  0.00     0.275 HD
ENDBRANCH  16  17
BRANCH  16  21
HETATM   21  C           1     -22.399  -7.445  -0.469  0.00  0.00     0.053 C 
BRANCH  21  22
HETATM   22  C           1     -22.167  -8.691   0.377  0.00  0.00     0.076 C 
BRANCH  22  23
HETATM   23  S           1     -23.050 -10.096  -0.359  0.00  0.00    -0.173 SA
HETATM   24  C           1     -21.929 -11.381   0.260  0.00  0.00     0.089 C 
ENDBRANCH  22  23
ENDBRANCH  21  22
ENDBRANCH  16  21
ENDBRANCH   3  16
TORSDOF 9
ENDMDL
MODEL 6
REMARK VINA RESULT:      -5.9     17.282     19.806
REMARK  9 active torsions:
REMARK  status: ('A' for Active; 'I' for Inactive)
REMARK    1  A    between atoms: C_2  and  C_24 
REMARK    2  A    between atoms: S_6  and  C_9 
REMARK    3  A    between atoms: N_8  and  C_16 
REMARK    4  A    between atoms: C_9  and  C_11 
REMARK    5  A    between atoms: C_11  and  C_16 
REMARK    6  A    between atoms: N_14  and  C_24 
REMARK       I    between atoms: N_14  and  C_15 
REMARK    7  A    between atoms: C_15  and  C_16 
REMARK    8  A    between atoms: C_22  and  C_23 
REMARK    9  A    between atoms: C_23  and  C_24 
ROOT
HETATM    1  O           1     -19.692  -9.989  -5.974  0.00  0.00    -0.271 OA
HETATM    2  N           1     -19.801  -8.292  -4.527  0.00  0.00    -0.344 N 
HETATM    3  C           1     -19.564  -9.604  -4.837  0.00  0.00     0.249 C 
HETATM    4  H           1     -19.048  -7.618  -4.571  0.00  0.00     0.163 HD
ENDROOT
BRANCH   2   5
HETATM    5  C           1     -21.131  -7.869  -4.134  0.00  0.00     0.189 C 
BRANCH   5   6
HETATM    6  C           1     -21.718  -6.992  -5.212  0.00  0.00     0.197 C 
HETATM    7  O           1     -21.252  -7.030  -6.372  0.00  0.00    -0.646 OA
HETATM    8  O           1     -22.671  -6.227  -4.947  0.00  0.00    -0.646 OA
ENDBRANCH   5   6
BRANCH   5   9
HETATM    9  C           1     -21.050  -7.086  -2.830  0.00  0.00     0.074 C 
BRANCH   9  10
HETATM   10  C           1     -21.784  -7.827  -1.756  0.00  0.00    -0.056 A 
HETATM   11  C           1     -21.875  -9.218  -1.806  0.00  0.00     0.007 A 
HETATM   12  C           1     -22.559  -9.909  -0.805  0.00  0.00     0.001 A 
HETATM   13  C           1     -23.151  -9.208   0.246  0.00  0.00     0.000 A 
HETATM   14  C           1     -23.059  -7.817   0.296  0.00  0.00     0.001 A 
HETATM   15  C           1     -22.375  -7.126  -0.705  0.00  0.00     0.007 A 
ENDBRANCH   9  10
ENDBRANCH   5   9
ENDBRANCH   2   5
BRANCH   3  16
HETATM   16  C           1     -19.141 -10.570  -3.757  0.00  0.00     0.275 C 
BRANCH  16  17
HETATM   17  N           1     -18.429 -11.734  -4.381  0.00  0.00    -0.066 N 
HETATM   18  H           1     -17.572 -11.957  -3.825  0.00  0.00     0.275 HD
HETATM   19  H           1     -18.157 -11.492  -5.359  0.00  0.00     0.275 HD
HETATM   20  H           1     -19.062 -12.565  -4.390  0.00  0.00     0.275 HD
ENDBRANCH  16  17
BRANCH  16  21
HETATM   21  C           1     -18.206  -9.866  -2.783  0.00  0.00     0.053 C 
BRANCH  21  22
HETATM   22  C           1     -16.781  -9.917  -3.319  0.00  0.00     0.076 C 
BRANCH  22  23
HETATM   23  S           1     -15.722 -10.805  -2.142  0.00  0.00    -0.173 SA
HETATM   24  C           1     -14.965 -11.919  -3.358  0.00  0.00     0.089 C 
ENDBRANCH  22  23
ENDBRANCH  21  22
ENDBRANCH  16  21
ENDBRANCH   3  16
TORSDOF 9
ENDMDL
MODEL 7
REMARK VINA RESULT:      -5.9     17.498     19.547
REMARK  9 active torsions:
REMARK  status: ('A' for Active; 'I' for Inactive)
REMARK    1  A    between atoms: C_2  and  C_24 
REMARK    2  A    between atoms: S_6  and  C_9 
REMARK    3  A    between atoms: N_8  and  C_16 
REMARK    4  A    between atoms: C_9  and  C_11 
REMARK    5  A    between atoms: C_11  and  C_16 
REMARK    6  A    between atoms: N_14  and  C_24 
REMARK       I    between atoms: N_14  and  C_15 
REMARK    7  A    between atoms: C_15  and  C_16 
REMARK    8  A    between atoms: C_22  and  C_23 
REMARK    9  A    between atoms: C_23  and  C_24 
ROOT
HETATM    1  O           1     -22.231  -5.915  -2.478  0.00  0.00    -0.271 OA
HETATM    2  N           1     -21.687  -7.701  -3.703  0.00  0.00    -0.344 N 
HETATM    3  C           1     -21.823  -7.051  -2.506  0.00  0.00     0.249 C 
HETATM    4  H           1     -22.458  -8.238  -4.078  0.00  0.00     0.163 HD
ENDROOT
BRANCH   2   5
HETATM    5  C           1     -20.437  -7.621  -4.434  0.00  0.00     0.189 C 
BRANCH   5   6
HETATM    6  C           1     -20.579  -6.634  -5.566  0.00  0.00     0.197 C 
HETATM    7  O           1     -20.826  -7.040  -6.722  0.00  0.00    -0.646 OA
HETATM    8  O           1     -20.451  -5.410  -5.348  0.00  0.00    -0.646 OA
ENDBRANCH   5   6
BRANCH   5   9
HETATM    9  C           1     -20.088  -8.993  -4.996  0.00  0.00     0.074 C 
BRANCH   9  10
HETATM   10  C           1     -18.661  -9.314  -4.679  0.00  0.00    -0.056 A 
HETATM   11  C           1     -17.775  -9.640  -5.706  0.00  0.00     0.007 A 
HETATM   12  C           1     -16.445  -9.939  -5.411  0.00  0.00     0.001 A 
HETATM   13  C           1     -16.000  -9.913  -4.089  0.00  0.00     0.000 A 
HETATM   14  C           1     -16.887  -9.587  -3.062  0.00  0.00     0.001 A 
HETATM   15  C           1     -18.217  -9.287  -3.357  0.00  0.00     0.007 A 
ENDBRANCH   9  10
ENDBRANCH   5   9
ENDBRANCH   2   5
BRANCH   3  16
HETATM   16  C           1     -21.464  -7.755  -1.220  0.00  0.00     0.275 C 
BRANCH  16  17
HETATM   17  N           1     -22.458  -7.389  -0.158  0.00  0.00    -0.066 N 
HETATM   18  H           1     -22.441  -6.356  -0.004  0.00  0.00     0.275 HD
HETATM   19  H           1     -22.213  -7.879   0.732  0.00  0.00     0.275 HD
HETATM   20  H           1     -23.415  -7.678  -0.462  0.00  0.00     0.275 HD
ENDBRANCH  16  17
BRANCH  16  21
HETATM   21  C           1     -21.488  -9.261  -1.441  0.00  0.00     0.053 C 
BRANCH  21  22
HETATM   22  C           1     -22.322  -9.922  -0.351  0.00  0.00     0.076 C 
BRANCH  22  23
HETATM   23  S           1     -23.533 -11.040  -1.110  0.00  0.00    -0.173 SA
HETATM   24  C           1     -22.743 -11.113  -2.741  0.00  0.00     0.089 C 
ENDBRANCH  22  23
ENDBRANCH  21  22
ENDBRANCH  16  21
ENDBRANCH   3  16
TORSDOF 9
ENDMDL
MODEL 8
REMARK VINA RESULT:      -5.9      2.276      4.063
REMARK  9 active torsions:
REMARK  status: ('A' for Active; 'I' for Inactive)
REMARK    1  A    between atoms: C_2  and  C_24 
REMARK    2  A    between atoms: S_6  and  C_9 
REMARK    3  A    between atoms: N_8  and  C_16 
REMARK    4  A    between atoms: C_9  and  C_11 
REMARK    5  A    between atoms: C_11  and  C_16 
REMARK    6  A    between atoms: N_14  and  C_24 
REMARK       I    between atoms: N_14  and  C_15 
REMARK    7  A    between atoms: C_15  and  C_16 
REMARK    8  A    between atoms: C_22  and  C_23 
REMARK    9  A    between atoms: C_23  and  C_24 
ROOT
HETATM    1  O           1     -34.686  -2.913 -13.752  0.00  0.00    -0.271 OA
HETATM    2  N           1     -34.832  -1.008 -12.596  0.00  0.00    -0.344 N 
HETATM    3  C           1     -34.576  -2.349 -12.690  0.00  0.00     0.249 C 
HETATM    4  H           1     -34.087  -0.339 -12.741  0.00  0.00     0.163 HD
ENDROOT
BRANCH   2   5
HETATM    5  C           1     -36.172  -0.546 -12.289  0.00  0.00     0.189 C 
BRANCH   5   6
HETATM    6  C           1     -36.911  -0.258 -13.573  0.00  0.00     0.197 C 
HETATM    7  O           1     -36.359   0.409 -14.475  0.00  0.00    -0.646 OA
HETATM    8  O           1     -38.074  -0.685 -13.734  0.00  0.00    -0.646 OA
ENDBRANCH   5   6
BRANCH   5   9
HETATM    9  C           1     -36.092   0.724 -11.452  0.00  0.00     0.074 C 
BRANCH   9  10
HETATM   10  C           1     -36.774   0.501 -10.139  0.00  0.00    -0.056 A 
HETATM   11  C           1     -36.838  -0.782  -9.595  0.00  0.00     0.007 A 
HETATM   12  C           1     -37.474  -0.991  -8.371  0.00  0.00     0.001 A 
HETATM   13  C           1     -38.046   0.084  -7.690  0.00  0.00     0.000 A 
HETATM   14  C           1     -37.981   1.367  -8.234  0.00  0.00     0.001 A 
HETATM   15  C           1     -37.345   1.576  -9.458  0.00  0.00     0.007 A 
ENDBRANCH   9  10
ENDBRANCH   5   9
ENDBRANCH   2   5
BRANCH   3  16
HETATM   16  C           1     -34.153  -3.124 -11.466  0.00  0.00     0.275 C 
BRANCH  16  17
HETATM   17  N           1     -33.611  -2.176 -10.438  0.00  0.00    -0.066 N 
HETATM   18  H           1     -32.736  -1.732 -10.800  0.00  0.00     0.275 HD
HETATM   19  H           1     -33.400  -2.698  -9.559  0.00  0.00     0.275 HD
HETATM   20  H           1     -34.320  -1.434 -10.240  0.00  0.00     0.275 HD
ENDBRANCH  16  17
BRANCH  16  21
HETATM   21  C           1     -35.355  -3.861 -10.891  0.00  0.00     0.053 C 
BRANCH  21  22
HETATM   22  C           1     -35.366  -5.295 -11.405  0.00  0.00     0.076 C 
BRANCH  22  23
HETATM   23  S           1     -33.866  -6.151 -10.847  0.00  0.00    -0.173 SA
HETATM   24  C           1     -34.714  -7.562 -10.083  0.00  0.00     0.089 C 
ENDBRANCH  22  23
ENDBRANCH  21  22
ENDBRANCH  16  21
ENDBRANCH   3  16
TORSDOF 9
ENDMDL
MODEL 9
REMARK VINA RESULT:      -5.8     14.003     16.913
REMARK  9 active torsions:
REMARK  status: ('A' for Active; 'I' for Inactive)
REMARK    1  A    between atoms: C_2  and  C_24 
REMARK    2  A    between atoms: S_6  and  C_9 
REMARK    3  A    between atoms: N_8  and  C_16 
REMARK    4  A    between atoms: C_9  and  C_11 
REMARK    5  A    between atoms: C_11  and  C_16 
REMARK    6  A    between atoms: N_14  and  C_24 
REMARK       I    between atoms: N_14  and  C_15 
REMARK    7  A    between atoms: C_15  and  C_16 
REMARK    8  A    between atoms: C_22  and  C_23 
REMARK    9  A    between atoms: C_23  and  C_24 
ROOT
HETATM    1  O           1     -20.995  -4.103  -8.855  0.00  0.00    -0.271 OA
HETATM    2  N           1     -21.311  -5.957  -7.652  0.00  0.00    -0.344 N 
HETATM    3  C           1     -21.773  -4.857  -8.323  0.00  0.00     0.249 C 
HETATM    4  H           1     -21.189  -6.834  -8.141  0.00  0.00     0.163 HD
ENDROOT
BRANCH   2   5
HETATM    5  C           1     -20.997  -5.865  -6.239  0.00  0.00     0.189 C 
BRANCH   5   6
HETATM    6  C           1     -19.792  -4.978  -6.049  0.00  0.00     0.197 C 
HETATM    7  O           1     -19.759  -4.162  -5.102  0.00  0.00    -0.646 OA
HETATM    8  O           1     -18.825  -5.060  -6.837  0.00  0.00    -0.646 OA
ENDBRANCH   5   6
BRANCH   5   9
HETATM    9  C           1     -20.697  -7.256  -5.694  0.00  0.00     0.074 C 
BRANCH   9  10
HETATM   10  C           1     -21.000  -7.295  -4.229  0.00  0.00    -0.056 A 
HETATM   11  C           1     -21.880  -6.366  -3.674  0.00  0.00     0.007 A 
HETATM   12  C           1     -22.163  -6.402  -2.309  0.00  0.00     0.001 A 
HETATM   13  C           1     -21.565  -7.368  -1.498  0.00  0.00     0.000 A 
HETATM   14  C           1     -20.686  -8.297  -2.053  0.00  0.00     0.001 A 
HETATM   15  C           1     -20.403  -8.261  -3.419  0.00  0.00     0.007 A 
ENDBRANCH   9  10
ENDBRANCH   5   9
ENDBRANCH   2   5
BRANCH   3  16
HETATM   16  C           1     -23.257  -4.587  -8.398  0.00  0.00     0.275 C 
BRANCH  16  17
HETATM   17  N           1     -23.801  -4.406  -7.012  0.00  0.00    -0.066 N 
HETATM   18  H           1     -23.374  -5.116  -6.374  0.00  0.00     0.275 HD
HETATM   19  H           1     -24.838  -4.529  -7.027  0.00  0.00     0.275 HD
HETATM   20  H           1     -23.569  -3.447  -6.668  0.00  0.00     0.275 HD
ENDBRANCH  16  17
BRANCH  16  21
HETATM   21  C           1     -23.502  -3.322  -9.208  0.00  0.00     0.053 C 
BRANCH  21  22
HETATM   22  C           1     -24.437  -3.634 -10.369  0.00  0.00     0.076 C 
BRANCH  22  23
HETATM   23  S           1     -23.483  -4.333 -11.745  0.00  0.00    -0.173 SA
HETATM   24  C           1     -22.359  -2.922 -11.945  0.00  0.00     0.089 C 
ENDBRANCH  22  23
ENDBRANCH  21  22
ENDBRANCH  16  21
ENDBRANCH   3  16
TORSDOF 9
ENDMDL
