MODEL 1
REMARK VINA RESULT:      -7.2      0.000      0.000
REMARK  13 active torsions:
REMARK  status: ('A' for Active; 'I' for Inactive)
REMARK    1  A    between atoms: C_7  and  C_8 
REMARK    2  A    between atoms: C_7  and  C_14 
REMARK    3  A    between atoms: C_8  and  C_9 
REMARK    4  A    between atoms: C_8  and  N_23 
REMARK       I    between atoms: C_9  and  N_26 
REMARK    5  A    between atoms: C_10  and  C_12 
REMARK    6  A    between atoms: C_12  and  C_20 
REMARK    7  A    between atoms: C_12  and  N_26 
REMARK    8  A    between atoms: C_13  and  C_14 
REMARK    9  A    between atoms: C_13  and  C_25 
REMARK   10  A    between atoms: P_18  and  O_19 
REMARK   11  A    between atoms: P_18  and  O_28 
REMARK   12  A    between atoms: O_19  and  C_20 
REMARK   13  A    between atoms: N_24  and  C_25 
ROOT
HETATM    1  C           1     -34.491  -2.377 -12.101  0.00  0.00     0.249 C 
HETATM    2  H           1     -36.177  -2.258 -13.296  0.00  0.00     0.163 HD
HETATM    3  O           1     -33.770  -1.773 -11.344  0.00  0.00    -0.271 OA
HETATM    4  N           1     -35.572  -1.751 -12.662  0.00  0.00    -0.343 N 
ENDROOT
BRANCH   1   5
HETATM    5  C           1     -34.201  -3.821 -12.428  0.00  0.00     0.274 C 
BRANCH   5   6
HETATM    6  C           1     -33.012  -4.300 -11.606  0.00  0.00     0.042 C 
BRANCH   6   7
HETATM    7  C           1     -33.289  -5.704 -11.083  0.00  0.00     0.004 C 
BRANCH   7   8
HETATM    8  C           1     -34.671  -5.744 -10.444  0.00  0.00     0.027 C 
BRANCH   8   9
HETATM    9  C           1     -34.903  -7.114  -9.819  0.00  0.00     0.229 C 
BRANCH   9  10
HETATM   10  N           1     -34.706  -8.178 -10.857  0.00  0.00    -0.079 N 
HETATM   11  H           1     -34.433  -9.073 -10.390  0.00  0.00     0.274 HD
HETATM   12  H           1     -33.949  -7.885 -11.517  0.00  0.00     0.274 HD
HETATM   13  H           1     -35.596  -8.317 -11.387  0.00  0.00     0.274 HD
ENDBRANCH   9  10
ENDBRANCH   8   9
ENDBRANCH   7   8
ENDBRANCH   6   7
ENDBRANCH   5   6
BRANCH   5  14
HETATM   14  N           1     -33.883  -3.948 -13.888  0.00  0.00    -0.067 N 
HETATM   15  H           1     -33.375  -4.845 -14.057  0.00  0.00     0.275 HD
HETATM   16  H           1     -33.280  -3.146 -14.185  0.00  0.00     0.275 HD
HETATM   17  H           1     -34.771  -3.939 -14.439  0.00  0.00     0.275 HD
ENDBRANCH   5  14
ENDBRANCH   1   5
BRANCH   4  18
HETATM   18  C           1     -35.851  -0.364 -12.348  0.00  0.00     0.210 C 
BRANCH  18  19
HETATM   19  C           1     -36.815  -0.295 -11.189  0.00  0.00     0.198 C 
HETATM   20  O           1     -37.872  -0.962 -11.214  0.00  0.00    -0.646 OA
HETATM   21  O           1     -36.556   0.429 -10.203  0.00  0.00    -0.646 OA
ENDBRANCH  18  19
BRANCH  18  22
HETATM   22  C           1     -36.469   0.316 -13.563  0.00  0.00     0.217 C 
BRANCH  22  23
HETATM   23  O           1     -36.737  -0.643 -14.550  0.00  0.00    -0.287 OA
BRANCH  23  24
HETATM   24  P           1     -35.646  -0.763 -15.736  0.00  0.00     0.406 P 
HETATM   25  O           1     -35.049  -2.118 -15.722  0.00  0.00    -0.624 OA
HETATM   26  O           1     -34.584   0.246 -15.532  0.00  0.00    -0.624 OA
BRANCH  24  27
HETATM   27  O           1     -36.367  -0.509 -17.157  0.00  0.00    -0.300 OA
HETATM   28  H           1     -36.616   0.398 -17.147  0.00  0.00     0.223 HD
ENDBRANCH  24  27
ENDBRANCH  23  24
ENDBRANCH  22  23
ENDBRANCH  18  22
ENDBRANCH   4  18
TORSDOF 13
ENDMDL
MODEL 2
REMARK VINA RESULT:      -6.6     12.154     13.722
REMARK  13 active torsions:
REMARK  status: ('A' for Active; 'I' for Inactive)
REMARK    1  A    between atoms: C_7  and  C_8 
REMARK    2  A    between atoms: C_7  and  C_14 
REMARK    3  A    between atoms: C_8  and  C_9 
REMARK    4  A    between atoms: C_8  and  N_23 
REMARK       I    between atoms: C_9  and  N_26 
REMARK    5  A    between atoms: C_10  and  C_12 
REMARK    6  A    between atoms: C_12  and  C_20 
REMARK    7  A    between atoms: C_12  and  N_26 
REMARK    8  A    between atoms: C_13  and  C_14 
REMARK    9  A    between atoms: C_13  and  C_25 
REMARK   10  A    between atoms: P_18  and  O_19 
REMARK   11  A    between atoms: P_18  and  O_28 
REMARK   12  A    between atoms: O_19  and  C_20 
REMARK   13  A    between atoms: N_24  and  C_25 
ROOT
HETATM    1  C           1     -21.623  -4.437  -7.938  0.00  0.00     0.249 C 
HETATM    2  H           1     -21.809  -5.491  -9.710  0.00  0.00     0.163 HD
HETATM    3  O           1     -21.859  -3.393  -7.377  0.00  0.00    -0.271 OA
HETATM    4  N           1     -22.006  -4.616  -9.240  0.00  0.00    -0.343 N 
ENDROOT
BRANCH   1   5
HETATM    5  C           1     -20.907  -5.543  -7.203  0.00  0.00     0.274 C 
BRANCH   5   6
HETATM    6  C           1     -21.309  -5.522  -5.734  0.00  0.00     0.042 C 
BRANCH   6   7
HETATM    7  C           1     -21.964  -6.848  -5.368  0.00  0.00     0.004 C 
BRANCH   7   8
HETATM    8  C           1     -21.502  -7.276  -3.981  0.00  0.00     0.027 C 
BRANCH   8   9
HETATM    9  C           1     -21.284  -6.042  -3.115  0.00  0.00     0.229 C 
BRANCH   9  10
HETATM   10  N           1     -22.386  -5.939  -2.103  0.00  0.00    -0.079 N 
HETATM   11  H           1     -23.308  -5.909  -2.596  0.00  0.00     0.274 HD
HETATM   12  H           1     -22.263  -5.067  -1.542  0.00  0.00     0.274 HD
HETATM   13  H           1     -22.356  -6.770  -1.469  0.00  0.00     0.274 HD
ENDBRANCH   9  10
ENDBRANCH   8   9
ENDBRANCH   7   8
ENDBRANCH   6   7
ENDBRANCH   5   6
BRANCH   5  14
HETATM   14  N           1     -19.425  -5.341  -7.319  0.00  0.00    -0.067 N 
HETATM   15  H           1     -19.155  -4.456  -6.835  0.00  0.00     0.275 HD
HETATM   16  H           1     -19.160  -5.280  -8.329  0.00  0.00     0.275 HD
HETATM   17  H           1     -18.929  -6.148  -6.878  0.00  0.00     0.275 HD
ENDBRANCH   5  14
ENDBRANCH   1   5
BRANCH   4  18
HETATM   18  C           1     -22.695  -3.553  -9.946  0.00  0.00     0.210 C 
BRANCH  18  19
HETATM   19  C           1     -24.185  -3.756  -9.830  0.00  0.00     0.198 C 
HETATM   20  O           1     -24.682  -4.881 -10.053  0.00  0.00    -0.646 OA
HETATM   21  O           1     -24.923  -2.799  -9.511  0.00  0.00    -0.646 OA
ENDBRANCH  18  19
BRANCH  18  22
HETATM   22  C           1     -22.292  -3.577 -11.415  0.00  0.00     0.217 C 
BRANCH  22  23
HETATM   23  O           1     -22.888  -2.497 -12.081  0.00  0.00    -0.287 OA
BRANCH  23  24
HETATM   24  P           1     -23.490  -2.813 -13.547  0.00  0.00     0.406 P 
HETATM   25  O           1     -24.278  -1.652 -14.018  0.00  0.00    -0.624 OA
HETATM   26  O           1     -24.364  -4.004 -13.473  0.00  0.00    -0.624 OA
BRANCH  24  27
HETATM   27  O           1     -22.279  -3.094 -14.577  0.00  0.00    -0.300 OA
HETATM   28  H           1     -22.655  -2.981 -15.432  0.00  0.00     0.223 HD
ENDBRANCH  24  27
ENDBRANCH  23  24
ENDBRANCH  22  23
ENDBRANCH  18  22
ENDBRANCH   4  18
TORSDOF 13
ENDMDL
MODEL 3
REMARK VINA RESULT:      -6.6     12.076     13.610
REMARK  13 active torsions:
REMARK  status: ('A' for Active; 'I' for Inactive)
REMARK    1  A    between atoms: C_7  and  C_8 
REMARK    2  A    between atoms: C_7  and  C_14 
REMARK    3  A    between atoms: C_8  and  C_9 
REMARK    4  A    between atoms: C_8  and  N_23 
REMARK       I    between atoms: C_9  and  N_26 
REMARK    5  A    between atoms: C_10  and  C_12 
REMARK    6  A    between atoms: C_12  and  C_20 
REMARK    7  A    between atoms: C_12  and  N_26 
REMARK    8  A    between atoms: C_13  and  C_14 
REMARK    9  A    between atoms: C_13  and  C_25 
REMARK   10  A    between atoms: P_18  and  O_19 
REMARK   11  A    between atoms: P_18  and  O_28 
REMARK   12  A    between atoms: O_19  and  C_20 
REMARK   13  A    between atoms: N_24  and  C_25 
ROOT
HETATM    1  C           1     -21.660  -4.299  -8.389  0.00  0.00     0.249 C 
HETATM    2  H           1     -21.647  -5.468 -10.098  0.00  0.00     0.163 HD
HETATM    3  O           1     -22.046  -3.264  -7.900  0.00  0.00    -0.271 OA
HETATM    4  N           1     -21.971  -4.600  -9.688  0.00  0.00    -0.343 N 
ENDROOT
BRANCH   1   5
HETATM    5  C           1     -20.833  -5.258  -7.569  0.00  0.00     0.274 C 
BRANCH   5   6
HETATM    6  C           1     -21.347  -5.275  -6.135  0.00  0.00     0.042 C 
BRANCH   6   7
HETATM    7  C           1     -20.968  -6.595  -5.476  0.00  0.00     0.004 C 
BRANCH   7   8
HETATM    8  C           1     -22.023  -6.967  -4.442  0.00  0.00     0.027 C 
BRANCH   8   9
HETATM    9  C           1     -21.453  -6.776  -3.042  0.00  0.00     0.229 C 
BRANCH   9  10
HETATM   10  N           1     -22.336  -5.845  -2.265  0.00  0.00    -0.079 N 
HETATM   11  H           1     -21.847  -5.555  -1.388  0.00  0.00     0.274 HD
HETATM   12  H           1     -23.227  -6.333  -2.021  0.00  0.00     0.274 HD
HETATM   13  H           1     -22.547  -5.001  -2.844  0.00  0.00     0.274 HD
ENDBRANCH   9  10
ENDBRANCH   8   9
ENDBRANCH   7   8
ENDBRANCH   6   7
ENDBRANCH   5   6
BRANCH   5  14
HETATM   14  N           1     -19.400  -4.819  -7.582  0.00  0.00    -0.067 N 
HETATM   15  H           1     -19.201  -4.254  -6.727  0.00  0.00     0.275 HD
HETATM   16  H           1     -19.220  -4.238  -8.433  0.00  0.00     0.275 HD
HETATM   17  H           1     -18.779  -5.660  -7.598  0.00  0.00     0.275 HD
ENDBRANCH   5  14
ENDBRANCH   1   5
BRANCH   4  18
HETATM   18  C           1     -22.765  -3.678 -10.476  0.00  0.00     0.210 C 
BRANCH  18  19
HETATM   19  C           1     -24.227  -4.021 -10.329  0.00  0.00     0.198 C 
HETATM   20  O           1     -25.093  -3.126 -10.429  0.00  0.00    -0.646 OA
HETATM   21  O           1     -24.572  -5.203 -10.108  0.00  0.00    -0.646 OA
ENDBRANCH  18  19
BRANCH  18  22
HETATM   22  C           1     -22.362  -3.788 -11.942  0.00  0.00     0.217 C 
BRANCH  22  23
HETATM   23  O           1     -22.636  -2.578 -12.594  0.00  0.00    -0.287 OA
BRANCH  23  24
HETATM   24  P           1     -23.520  -2.683 -13.942  0.00  0.00     0.406 P 
HETATM   25  O           1     -24.393  -3.877 -13.868  0.00  0.00    -0.624 OA
HETATM   26  O           1     -22.622  -2.802 -15.111  0.00  0.00    -0.624 OA
BRANCH  24  27
HETATM   27  O           1     -24.432  -1.360 -14.093  0.00  0.00    -0.300 OA
HETATM   28  H           1     -25.163  -1.626 -14.622  0.00  0.00     0.223 HD
ENDBRANCH  24  27
ENDBRANCH  23  24
ENDBRANCH  22  23
ENDBRANCH  18  22
ENDBRANCH   4  18
TORSDOF 13
ENDMDL
MODEL 4
REMARK VINA RESULT:      -6.6      1.987      3.835
REMARK  13 active torsions:
REMARK  status: ('A' for Active; 'I' for Inactive)
REMARK    1  A    between atoms: C_7  and  C_8 
REMARK    2  A    between atoms: C_7  and  C_14 
REMARK    3  A    between atoms: C_8  and  C_9 
REMARK    4  A    between atoms: C_8  and  N_23 
REMARK       I    between atoms: C_9  and  N_26 
REMARK    5  A    between atoms: C_10  and  C_12 
REMARK    6  A    between atoms: C_12  and  C_20 
REMARK    7  A    between atoms: C_12  and  N_26 
REMARK    8  A    between atoms: C_13  and  C_14 
REMARK    9  A    between atoms: C_13  and  C_25 
REMARK   10  A    between atoms: P_18  and  O_19 
REMARK   11  A    between atoms: P_18  and  O_28 
REMARK   12  A    between atoms: O_19  and  C_20 
REMARK   13  A    between atoms: N_24  and  C_25 
ROOT
HETATM    1  C           1     -34.303  -2.601 -12.505  0.00  0.00     0.249 C 
HETATM    2  H           1     -34.673  -0.885 -11.409  0.00  0.00     0.163 HD
HETATM    3  O           1     -34.579  -3.213 -13.509  0.00  0.00    -0.271 OA
HETATM    4  N           1     -34.905  -1.398 -12.249  0.00  0.00    -0.343 N 
ENDROOT
BRANCH   1   5
HETATM    5  C           1     -33.295  -3.162 -11.533  0.00  0.00     0.274 C 
BRANCH   5   6
HETATM    6  C           1     -33.198  -4.671 -11.715  0.00  0.00     0.042 C 
BRANCH   6   7
HETATM    7  C           1     -33.920  -5.368 -10.569  0.00  0.00     0.004 C 
BRANCH   7   8
HETATM    8  C           1     -34.654  -6.592 -11.101  0.00  0.00     0.027 C 
BRANCH   8   9
HETATM    9  C           1     -34.680  -7.675 -10.030  0.00  0.00     0.229 C 
BRANCH   9  10
HETATM   10  N           1     -33.621  -8.695 -10.323  0.00  0.00    -0.079 N 
HETATM   11  H           1     -33.431  -8.713 -11.351  0.00  0.00     0.274 HD
HETATM   12  H           1     -33.950  -9.638 -10.014  0.00  0.00     0.274 HD
HETATM   13  H           1     -32.745  -8.445  -9.810  0.00  0.00     0.274 HD
ENDBRANCH   9  10
ENDBRANCH   8   9
ENDBRANCH   7   8
ENDBRANCH   6   7
ENDBRANCH   5   6
BRANCH   5  14
HETATM   14  N           1     -33.729  -2.854 -10.131  0.00  0.00    -0.067 N 
HETATM   15  H           1     -34.770  -2.909 -10.068  0.00  0.00     0.275 HD
HETATM   16  H           1     -33.416  -1.890  -9.872  0.00  0.00     0.275 HD
HETATM   17  H           1     -33.302  -3.547  -9.475  0.00  0.00     0.275 HD
ENDBRANCH   5  14
ENDBRANCH   1   5
BRANCH   4  18
HETATM   18  C           1     -35.873  -0.859 -13.184  0.00  0.00     0.210 C 
BRANCH  18  19
HETATM   19  C           1     -35.176   0.060 -14.156  0.00  0.00     0.198 C 
HETATM   20  O           1     -34.840   1.210 -13.799  0.00  0.00    -0.646 OA
HETATM   21  O           1     -34.934  -0.329 -15.320  0.00  0.00    -0.646 OA
ENDBRANCH  18  19
BRANCH  18  22
HETATM   22  C           1     -36.935  -0.078 -12.419  0.00  0.00     0.217 C 
BRANCH  22  23
HETATM   23  O           1     -37.341  -0.816 -11.298  0.00  0.00    -0.287 OA
BRANCH  23  24
HETATM   24  P           1     -36.885  -0.232  -9.862  0.00  0.00     0.406 P 
HETATM   25  O           1     -35.650  -0.917  -9.419  0.00  0.00    -0.624 OA
HETATM   26  O           1     -37.960  -0.465  -8.873  0.00  0.00    -0.624 OA
BRANCH  24  27
HETATM   27  O           1     -36.604   1.352  -9.991  0.00  0.00    -0.300 OA
HETATM   28  H           1     -36.531   1.514 -10.915  0.00  0.00     0.223 HD
ENDBRANCH  24  27
ENDBRANCH  23  24
ENDBRANCH  22  23
ENDBRANCH  18  22
ENDBRANCH   4  18
TORSDOF 13
ENDMDL
MODEL 5
REMARK VINA RESULT:      -5.9     11.614     13.339
REMARK  13 active torsions:
REMARK  status: ('A' for Active; 'I' for Inactive)
REMARK    1  A    between atoms: C_7  and  C_8 
REMARK    2  A    between atoms: C_7  and  C_14 
REMARK    3  A    between atoms: C_8  and  C_9 
REMARK    4  A    between atoms: C_8  and  N_23 
REMARK       I    between atoms: C_9  and  N_26 
REMARK    5  A    between atoms: C_10  and  C_12 
REMARK    6  A    between atoms: C_12  and  C_20 
REMARK    7  A    between atoms: C_12  and  N_26 
REMARK    8  A    between atoms: C_13  and  C_14 
REMARK    9  A    between atoms: C_13  and  C_25 
REMARK   10  A    between atoms: P_18  and  O_19 
REMARK   11  A    between atoms: P_18  and  O_28 
REMARK   12  A    between atoms: O_19  and  C_20 
REMARK   13  A    between atoms: N_24  and  C_25 
ROOT
HETATM    1  C           1     -25.061  -7.057 -19.464  0.00  0.00     0.249 C 
HETATM    2  H           1     -26.942  -7.772 -18.979  0.00  0.00     0.163 HD
HETATM    3  O           1     -24.174  -6.305 -19.140  0.00  0.00    -0.271 OA
HETATM    4  N           1     -26.199  -7.140 -18.707  0.00  0.00    -0.343 N 
ENDROOT
BRANCH   1   5
HETATM    5  C           1     -24.916  -7.905 -20.704  0.00  0.00     0.274 C 
BRANCH   5   6
HETATM    6  C           1     -24.363  -7.055 -21.840  0.00  0.00     0.042 C 
BRANCH   6   7
HETATM    7  C           1     -23.530  -7.929 -22.769  0.00  0.00     0.004 C 
BRANCH   7   8
HETATM    8  C           1     -22.420  -8.604 -21.972  0.00  0.00     0.027 C 
BRANCH   8   9
HETATM    9  C           1     -21.591  -9.484 -22.899  0.00  0.00     0.229 C 
BRANCH   9  10
HETATM   10  N           1     -20.202  -9.617 -22.352  0.00  0.00    -0.079 N 
HETATM   11  H           1     -20.114  -9.043 -21.482  0.00  0.00     0.274 HD
HETATM   12  H           1     -19.514  -9.279 -23.062  0.00  0.00     0.274 HD
HETATM   13  H           1     -20.009 -10.620 -22.130  0.00  0.00     0.274 HD
ENDBRANCH   9  10
ENDBRANCH   8   9
ENDBRANCH   7   8
ENDBRANCH   6   7
ENDBRANCH   5   6
BRANCH   5  14
HETATM   14  N           1     -26.256  -8.452 -21.094  0.00  0.00    -0.067 N 
HETATM   15  H           1     -26.916  -7.662 -21.272  0.00  0.00     0.275 HD
HETATM   16  H           1     -26.628  -9.049 -20.320  0.00  0.00     0.275 HD
HETATM   17  H           1     -26.158  -9.028 -21.961  0.00  0.00     0.275 HD
ENDBRANCH   5  14
ENDBRANCH   1   5
BRANCH   4  18
HETATM   18  C           1     -26.339  -6.326 -17.516  0.00  0.00     0.210 C 
BRANCH  18  19
HETATM   19  C           1     -25.885  -7.114 -16.312  0.00  0.00     0.198 C 
HETATM   20  O           1     -26.712  -7.447 -15.435  0.00  0.00    -0.646 OA
HETATM   21  O           1     -24.683  -7.434 -16.191  0.00  0.00    -0.646 OA
ENDBRANCH  18  19
BRANCH  18  22
HETATM   22  C           1     -27.799  -5.928 -17.343  0.00  0.00     0.217 C 
BRANCH  22  23
HETATM   23  O           1     -28.561  -6.482 -18.382  0.00  0.00    -0.287 OA
BRANCH  23  24
HETATM   24  P           1     -29.741  -7.491 -17.935  0.00  0.00     0.406 P 
HETATM   25  O           1     -30.231  -8.233 -19.119  0.00  0.00    -0.624 OA
HETATM   26  O           1     -30.854  -6.716 -17.345  0.00  0.00    -0.624 OA
BRANCH  24  27
HETATM   27  O           1     -29.172  -8.535 -16.844  0.00  0.00    -0.300 OA
HETATM   28  H           1     -28.752  -8.002 -16.191  0.00  0.00     0.223 HD
ENDBRANCH  24  27
ENDBRANCH  23  24
ENDBRANCH  22  23
ENDBRANCH  18  22
ENDBRANCH   4  18
TORSDOF 13
ENDMDL
MODEL 6
REMARK VINA RESULT:      -5.8     13.434     15.315
REMARK  13 active torsions:
REMARK  status: ('A' for Active; 'I' for Inactive)
REMARK    1  A    between atoms: C_7  and  C_8 
REMARK    2  A    between atoms: C_7  and  C_14 
REMARK    3  A    between atoms: C_8  and  C_9 
REMARK    4  A    between atoms: C_8  and  N_23 
REMARK       I    between atoms: C_9  and  N_26 
REMARK    5  A    between atoms: C_10  and  C_12 
REMARK    6  A    between atoms: C_12  and  C_20 
REMARK    7  A    between atoms: C_12  and  N_26 
REMARK    8  A    between atoms: C_13  and  C_14 
REMARK    9  A    between atoms: C_13  and  C_25 
REMARK   10  A    between atoms: P_18  and  O_19 
REMARK   11  A    between atoms: P_18  and  O_28 
REMARK   12  A    between atoms: O_19  and  C_20 
REMARK   13  A    between atoms: N_24  and  C_25 
ROOT
HETATM    1  C           1     -21.262  -6.134  -6.240  0.00  0.00     0.249 C 
HETATM    2  H           1     -21.661  -4.108  -6.391  0.00  0.00     0.163 HD
HETATM    3  O           1     -21.092  -7.158  -6.857  0.00  0.00    -0.271 OA
HETATM    4  N           1     -21.519  -4.967  -6.908  0.00  0.00    -0.343 N 
ENDROOT
BRANCH   1   5
HETATM    5  C           1     -21.194  -6.141  -4.733  0.00  0.00     0.274 C 
BRANCH   5   6
HETATM    6  C           1     -20.455  -7.387  -4.263  0.00  0.00     0.042 C 
BRANCH   6   7
HETATM    7  C           1     -21.290  -8.106  -3.211  0.00  0.00     0.004 C 
BRANCH   7   8
HETATM    8  C           1     -20.514  -8.167  -1.901  0.00  0.00     0.027 C 
BRANCH   8   9
HETATM    9  C           1     -21.491  -8.185  -0.732  0.00  0.00     0.229 C 
BRANCH   9  10
HETATM   10  N           1     -22.330  -6.943  -0.761  0.00  0.00    -0.079 N 
HETATM   11  H           1     -22.459  -6.634  -1.751  0.00  0.00     0.274 HD
HETATM   12  H           1     -21.852  -6.187  -0.220  0.00  0.00     0.274 HD
HETATM   13  H           1     -23.263  -7.143  -0.333  0.00  0.00     0.274 HD
ENDBRANCH   9  10
ENDBRANCH   8   9
ENDBRANCH   7   8
ENDBRANCH   6   7
ENDBRANCH   5   6
BRANCH   5  14
HETATM   14  N           1     -22.584  -6.142  -4.170  0.00  0.00    -0.067 N 
HETATM   15  H           1     -23.186  -6.787  -4.729  0.00  0.00     0.275 HD
HETATM   16  H           1     -22.978  -5.174  -4.213  0.00  0.00     0.275 HD
HETATM   17  H           1     -22.557  -6.462  -3.176  0.00  0.00     0.275 HD
ENDBRANCH   5  14
ENDBRANCH   1   5
BRANCH   4  18
HETATM   18  C           1     -21.584  -4.960  -8.357  0.00  0.00     0.210 C 
BRANCH  18  19
HETATM   19  C           1     -20.254  -4.520  -8.918  0.00  0.00     0.198 C 
HETATM   20  O           1     -19.414  -3.968  -8.176  0.00  0.00    -0.646 OA
HETATM   21  O           1     -19.993  -4.708 -10.126  0.00  0.00    -0.646 OA
ENDBRANCH  18  19
BRANCH  18  22
HETATM   22  C           1     -22.672  -3.994  -8.810  0.00  0.00     0.217 C 
BRANCH  22  23
HETATM   23  O           1     -23.490  -4.623  -9.758  0.00  0.00    -0.287 OA
BRANCH  23  24
HETATM   24  P           1     -23.642  -3.864 -11.177  0.00  0.00     0.406 P 
HETATM   25  O           1     -22.541  -2.888 -11.336  0.00  0.00    -0.624 OA
HETATM   26  O           1     -24.939  -3.154 -11.218  0.00  0.00    -0.624 OA
BRANCH  24  27
HETATM   27  O           1     -23.580  -4.945 -12.374  0.00  0.00    -0.300 OA
HETATM   28  H           1     -23.404  -5.768 -11.952  0.00  0.00     0.223 HD
ENDBRANCH  24  27
ENDBRANCH  23  24
ENDBRANCH  22  23
ENDBRANCH  18  22
ENDBRANCH   4  18
TORSDOF 13
ENDMDL
MODEL 7
REMARK VINA RESULT:      -5.6     12.504     14.115
REMARK  13 active torsions:
REMARK  status: ('A' for Active; 'I' for Inactive)
REMARK    1  A    between atoms: C_7  and  C_8 
REMARK    2  A    between atoms: C_7  and  C_14 
REMARK    3  A    between atoms: C_8  and  C_9 
REMARK    4  A    between atoms: C_8  and  N_23 
REMARK       I    between atoms: C_9  and  N_26 
REMARK    5  A    between atoms: C_10  and  C_12 
REMARK    6  A    between atoms: C_12  and  C_20 
REMARK    7  A    between atoms: C_12  and  N_26 
REMARK    8  A    between atoms: C_13  and  C_14 
REMARK    9  A    between atoms: C_13  and  C_25 
REMARK   10  A    between atoms: P_18  and  O_19 
REMARK   11  A    between atoms: P_18  and  O_28 
REMARK   12  A    between atoms: O_19  and  C_20 
REMARK   13  A    between atoms: N_24  and  C_25 
ROOT
HETATM    1  C           1     -21.738  -4.673  -8.589  0.00  0.00     0.249 C 
HETATM    2  H           1     -22.946  -3.054  -9.039  0.00  0.00     0.163 HD
HETATM    3  O           1     -21.020  -5.530  -9.047  0.00  0.00    -0.271 OA
HETATM    4  N           1     -22.346  -3.772  -9.422  0.00  0.00    -0.343 N 
ENDROOT
BRANCH   1   5
HETATM    5  C           1     -21.965  -4.596  -7.100  0.00  0.00     0.274 C 
BRANCH   5   6
HETATM    6  C           1     -21.389  -5.838  -6.432  0.00  0.00     0.042 C 
BRANCH   6   7
HETATM    7  C           1     -21.194  -5.570  -4.945  0.00  0.00     0.004 C 
BRANCH   7   8
HETATM    8  C           1     -21.931  -6.631  -4.138  0.00  0.00     0.027 C 
BRANCH   8   9
HETATM    9  C           1     -21.409  -6.636  -2.707  0.00  0.00     0.229 C 
BRANCH   9  10
HETATM   10  N           1     -22.272  -5.754  -1.856  0.00  0.00    -0.079 N 
HETATM   11  H           1     -23.175  -5.570  -2.350  0.00  0.00     0.274 HD
HETATM   12  H           1     -21.781  -4.848  -1.681  0.00  0.00     0.274 HD
HETATM   13  H           1     -22.464  -6.229  -0.944  0.00  0.00     0.274 HD
ENDBRANCH   9  10
ENDBRANCH   8   9
ENDBRANCH   7   8
ENDBRANCH   6   7
ENDBRANCH   5   6
BRANCH   5  14
HETATM   14  N           1     -23.436  -4.515  -6.823  0.00  0.00    -0.067 N 
HETATM   15  H           1     -23.965  -4.594  -7.720  0.00  0.00     0.275 HD
HETATM   16  H           1     -23.656  -3.598  -6.369  0.00  0.00     0.275 HD
HETATM   17  H           1     -23.713  -5.294  -6.184  0.00  0.00     0.275 HD
ENDBRANCH   5  14
ENDBRANCH   1   5
BRANCH   4  18
HETATM   18  C           1     -22.127  -3.846 -10.854  0.00  0.00     0.210 C 
BRANCH  18  19
HETATM   19  C           1     -20.717  -3.412 -11.170  0.00  0.00     0.198 C 
HETATM   20  O           1     -19.903  -4.231 -11.648  0.00  0.00    -0.646 OA
HETATM   21  O           1     -20.364  -2.233 -10.954  0.00  0.00    -0.646 OA
ENDBRANCH  18  19
BRANCH  18  22
HETATM   22  C           1     -23.114  -2.928 -11.565  0.00  0.00     0.217 C 
BRANCH  22  23
HETATM   23  O           1     -22.554  -2.485 -12.771  0.00  0.00    -0.287 OA
BRANCH  23  24
HETATM   24  P           1     -23.424  -2.768 -14.102  0.00  0.00     0.406 P 
HETATM   25  O           1     -22.520  -2.881 -15.269  0.00  0.00    -0.624 OA
HETATM   26  O           1     -24.370  -1.651 -14.318  0.00  0.00    -0.624 OA
BRANCH  24  27
HETATM   27  O           1     -24.247  -4.145 -13.924  0.00  0.00    -0.300 OA
HETATM   28  H           1     -24.005  -4.467 -13.073  0.00  0.00     0.223 HD
ENDBRANCH  24  27
ENDBRANCH  23  24
ENDBRANCH  22  23
ENDBRANCH  18  22
ENDBRANCH   4  18
TORSDOF 13
ENDMDL
MODEL 8
REMARK VINA RESULT:      -5.6     10.967     12.749
REMARK  13 active torsions:
REMARK  status: ('A' for Active; 'I' for Inactive)
REMARK    1  A    between atoms: C_7  and  C_8 
REMARK    2  A    between atoms: C_7  and  C_14 
REMARK    3  A    between atoms: C_8  and  C_9 
REMARK    4  A    between atoms: C_8  and  N_23 
REMARK       I    between atoms: C_9  and  N_26 
REMARK    5  A    between atoms: C_10  and  C_12 
REMARK    6  A    between atoms: C_12  and  C_20 
REMARK    7  A    between atoms: C_12  and  N_26 
REMARK    8  A    between atoms: C_13  and  C_14 
REMARK    9  A    between atoms: C_13  and  C_25 
REMARK   10  A    between atoms: P_18  and  O_19 
REMARK   11  A    between atoms: P_18  and  O_28 
REMARK   12  A    between atoms: O_19  and  C_20 
REMARK   13  A    between atoms: N_24  and  C_25 
ROOT
HETATM    1  C           1     -26.379  -6.464 -19.582  0.00  0.00     0.249 C 
HETATM    2  H           1     -25.002  -7.253 -18.253  0.00  0.00     0.163 HD
HETATM    3  O           1     -27.409  -5.842 -19.687  0.00  0.00    -0.271 OA
HETATM    4  N           1     -25.865  -6.732 -18.341  0.00  0.00    -0.343 N 
ENDROOT
BRANCH   1   5
HETATM    5  C           1     -25.660  -6.948 -20.817  0.00  0.00     0.274 C 
BRANCH   5   6
HETATM    6  C           1     -24.461  -7.794 -20.409  0.00  0.00     0.042 C 
BRANCH   6   7
HETATM    7  C           1     -23.744  -8.292 -21.657  0.00  0.00     0.004 C 
BRANCH   7   8
HETATM    8  C           1     -22.296  -8.618 -21.314  0.00  0.00     0.027 C 
BRANCH   8   9
HETATM    9  C           1     -21.648  -9.347 -22.484  0.00  0.00     0.229 C 
BRANCH   9  10
HETATM   10  N           1     -20.197  -9.582 -22.186  0.00  0.00    -0.079 N 
HETATM   11  H           1     -19.615  -8.928 -22.757  0.00  0.00     0.274 HD
HETATM   12  H           1     -19.947 -10.568 -22.425  0.00  0.00     0.274 HD
HETATM   13  H           1     -20.018  -9.413 -21.170  0.00  0.00     0.274 HD
ENDBRANCH   9  10
ENDBRANCH   8   9
ENDBRANCH   7   8
ENDBRANCH   6   7
ENDBRANCH   5   6
BRANCH   5  14
HETATM   14  N           1     -25.192  -5.768 -21.616  0.00  0.00    -0.067 N 
HETATM   15  H           1     -25.928  -5.027 -21.608  0.00  0.00     0.275 HD
HETATM   16  H           1     -25.008  -6.065 -22.602  0.00  0.00     0.275 HD
HETATM   17  H           1     -24.312  -5.391 -21.196  0.00  0.00     0.275 HD
ENDBRANCH   5  14
ENDBRANCH   1   5
BRANCH   4  18
HETATM   18  C           1     -26.557  -6.267 -17.154  0.00  0.00     0.210 C 
BRANCH  18  19
HETATM   19  C           1     -25.661  -6.437 -15.952  0.00  0.00     0.198 C 
HETATM   20  O           1     -24.946  -5.488 -15.565  0.00  0.00    -0.646 OA
HETATM   21  O           1     -25.634  -7.529 -15.343  0.00  0.00    -0.646 OA
ENDBRANCH  18  19
BRANCH  18  22
HETATM   22  C           1     -27.830  -7.081 -16.959  0.00  0.00     0.217 C 
BRANCH  22  23
HETATM   23  O           1     -28.772  -6.313 -16.260  0.00  0.00    -0.287 OA
BRANCH  23  24
HETATM   24  P           1     -30.124  -5.946 -17.065  0.00  0.00     0.406 P 
HETATM   25  O           1     -30.947  -5.022 -16.252  0.00  0.00    -0.624 OA
HETATM   26  O           1     -30.890  -7.183 -17.331  0.00  0.00    -0.624 OA
BRANCH  24  27
HETATM   27  O           1     -29.741  -5.235 -18.462  0.00  0.00    -0.300 OA
HETATM   28  H           1     -30.239  -5.695 -19.115  0.00  0.00     0.223 HD
ENDBRANCH  24  27
ENDBRANCH  23  24
ENDBRANCH  22  23
ENDBRANCH  18  22
ENDBRANCH   4  18
TORSDOF 13
ENDMDL
MODEL 9
REMARK VINA RESULT:      -5.6      3.420      6.419
REMARK  13 active torsions:
REMARK  status: ('A' for Active; 'I' for Inactive)
REMARK    1  A    between atoms: C_7  and  C_8 
REMARK    2  A    between atoms: C_7  and  C_14 
REMARK    3  A    between atoms: C_8  and  C_9 
REMARK    4  A    between atoms: C_8  and  N_23 
REMARK       I    between atoms: C_9  and  N_26 
REMARK    5  A    between atoms: C_10  and  C_12 
REMARK    6  A    between atoms: C_12  and  C_20 
REMARK    7  A    between atoms: C_12  and  N_26 
REMARK    8  A    between atoms: C_13  and  C_14 
REMARK    9  A    between atoms: C_13  and  C_25 
REMARK   10  A    between atoms: P_18  and  O_19 
REMARK   11  A    between atoms: P_18  and  O_28 
REMARK   12  A    between atoms: O_19  and  C_20 
REMARK   13  A    between atoms: N_24  and  C_25 
ROOT
HETATM    1  C           1     -35.149  -1.924 -10.766  0.00  0.00     0.249 C 
HETATM    2  H           1     -36.133  -3.491 -11.694  0.00  0.00     0.163 HD
HETATM    3  O           1     -34.083  -1.378 -10.611  0.00  0.00    -0.271 OA
HETATM    4  N           1     -35.240  -3.034 -11.563  0.00  0.00    -0.343 N 
ENDROOT
BRANCH   1   5
HETATM    5  C           1     -36.380  -1.384 -10.082  0.00  0.00     0.274 C 
BRANCH   5   6
HETATM    6  C           1     -37.334  -0.816 -11.124  0.00  0.00     0.042 C 
BRANCH   6   7
HETATM    7  C           1     -36.559   0.066 -12.095  0.00  0.00     0.004 C 
BRANCH   7   8
HETATM    8  C           1     -37.066  -0.171 -13.512  0.00  0.00     0.027 C 
BRANCH   8   9
HETATM    9  C           1     -36.041   0.349 -14.512  0.00  0.00     0.229 C 
BRANCH   9  10
HETATM   10  N           1     -35.074  -0.746 -14.853  0.00  0.00    -0.079 N 
HETATM   11  H           1     -35.243  -1.566 -14.226  0.00  0.00     0.274 HD
HETATM   12  H           1     -34.097  -0.402 -14.720  0.00  0.00     0.274 HD
HETATM   13  H           1     -35.211  -1.033 -15.849  0.00  0.00     0.274 HD
ENDBRANCH   9  10
ENDBRANCH   8   9
ENDBRANCH   7   8
ENDBRANCH   6   7
ENDBRANCH   5   6
BRANCH   5  14
HETATM   14  N           1     -35.984  -0.301  -9.123  0.00  0.00    -0.067 N 
HETATM   15  H           1     -35.918  -0.696  -8.159  0.00  0.00     0.275 HD
HETATM   16  H           1     -36.703   0.459  -9.139  0.00  0.00     0.275 HD
HETATM   17  H           1     -35.058   0.091  -9.405  0.00  0.00     0.275 HD
ENDBRANCH   5  14
ENDBRANCH   1   5
BRANCH   4  18
HETATM   18  C           1     -34.057  -3.553 -12.221  0.00  0.00     0.210 C 
BRANCH  18  19
HETATM   19  C           1     -34.442  -4.144 -13.555  0.00  0.00     0.198 C 
HETATM   20  O           1     -35.097  -5.207 -13.602  0.00  0.00    -0.646 OA
HETATM   21  O           1     -34.105  -3.570 -14.613  0.00  0.00    -0.646 OA
ENDBRANCH  18  19
BRANCH  18  22
HETATM   22  C           1     -33.425  -4.632 -11.350  0.00  0.00     0.217 C 
BRANCH  22  23
HETATM   23  O           1     -34.413  -5.225 -10.551  0.00  0.00    -0.287 OA
BRANCH  23  24
HETATM   24  P           1     -34.433  -6.840 -10.532  0.00  0.00     0.406 P 
HETATM   25  O           1     -35.139  -7.311  -9.319  0.00  0.00    -0.624 OA
HETATM   26  O           1     -33.045  -7.350 -10.524  0.00  0.00    -0.624 OA
BRANCH  24  27
HETATM   27  O           1     -35.200  -7.383 -11.845  0.00  0.00    -0.300 OA
HETATM   28  H           1     -35.127  -6.689 -12.476  0.00  0.00     0.223 HD
ENDBRANCH  24  27
ENDBRANCH  23  24
ENDBRANCH  22  23
ENDBRANCH  18  22
ENDBRANCH   4  18
TORSDOF 13
ENDMDL
