MODEL 1
REMARK VINA RESULT:      -6.6      0.000      0.000
REMARK  5 active torsions:
REMARK  status: ('A' for Active; 'I' for Inactive)
REMARK    1  A    between atoms: C_2  and  C_16 
REMARK       I    between atoms: N_4  and  C_11 
REMARK    2  A    between atoms: C_5  and  C_9 
REMARK    3  A    between atoms: C_11  and  C_15 
REMARK    4  A    between atoms: N_14  and  C_15 
REMARK    5  A    between atoms: C_15  and  C_16 
ROOT
HETATM    1  N           1     -35.695  -1.160 -13.160  0.00  0.00    -0.336 N 
HETATM    2  C           1     -36.152  -0.568 -14.414  0.00  0.00     0.188 C 
HETATM    3  C           1     -37.574  -0.130 -14.110  0.00  0.00     0.038 C 
HETATM    4  C           1     -37.615   0.062 -12.598  0.00  0.00     0.022 C 
HETATM    5  C           1     -34.940  -2.291 -12.998  0.00  0.00     0.251 C 
HETATM    6  C           1     -36.217  -0.283 -12.117  0.00  0.00     0.127 C 
HETATM    7  O           1     -34.579  -2.920 -13.965  0.00  0.00    -0.271 OA
ENDROOT
BRANCH   5   8
HETATM    8  C           1     -34.561  -2.754 -11.613  0.00  0.00     0.278 C 
BRANCH   8   9
HETATM    9  N           1     -35.791  -2.823 -10.756  0.00  0.00    -0.066 N 
HETATM   10  H           1     -36.173  -3.796 -10.774  0.00  0.00     0.275 HD
HETATM   11  H           1     -35.547  -2.562  -9.775  0.00  0.00     0.275 HD
HETATM   12  H           1     -36.510  -2.161 -11.125  0.00  0.00     0.275 HD
ENDBRANCH   8   9
BRANCH   8  13
HETATM   13  C           1     -33.922  -4.133 -11.695  0.00  0.00     0.021 C 
HETATM   14  C           1     -32.412  -3.988 -11.829  0.00  0.00     0.012 C 
BRANCH  13  15
HETATM   15  C           1     -34.247  -4.918 -10.430  0.00  0.00     0.002 C 
HETATM   16  C           1     -34.233  -6.409 -10.739  0.00  0.00     0.005 C 
ENDBRANCH  13  15
ENDBRANCH   8  13
ENDBRANCH   5   8
BRANCH   2  17
HETATM   17  C           1     -35.296   0.614 -14.794  0.00  0.00     0.196 C 
HETATM   18  O           1     -34.105   0.671 -14.416  0.00  0.00    -0.646 OA
HETATM   19  O           1     -35.776   1.537 -15.487  0.00  0.00    -0.646 OA
ENDBRANCH   2  17
TORSDOF 5
ENDMDL
MODEL 2
REMARK VINA RESULT:      -6.6      1.801      5.723
REMARK  5 active torsions:
REMARK  status: ('A' for Active; 'I' for Inactive)
REMARK    1  A    between atoms: C_2  and  C_16 
REMARK       I    between atoms: N_4  and  C_11 
REMARK    2  A    between atoms: C_5  and  C_9 
REMARK    3  A    between atoms: C_11  and  C_15 
REMARK    4  A    between atoms: N_14  and  C_15 
REMARK    5  A    between atoms: C_15  and  C_16 
ROOT
HETATM    1  N           1     -34.723  -2.521 -12.528  0.00  0.00    -0.336 N 
HETATM    2  C           1     -33.864  -3.701 -12.473  0.00  0.00     0.188 C 
HETATM    3  C           1     -32.923  -3.411 -11.317  0.00  0.00     0.038 C 
HETATM    4  C           1     -33.674  -2.423 -10.433  0.00  0.00     0.022 C 
HETATM    5  C           1     -35.169  -1.865 -13.644  0.00  0.00     0.251 C 
HETATM    6  C           1     -35.002  -2.194 -11.132  0.00  0.00     0.127 C 
HETATM    7  O           1     -34.851  -2.256 -14.742  0.00  0.00    -0.271 OA
ENDROOT
BRANCH   5   8
HETATM    8  C           1     -36.057  -0.654 -13.502  0.00  0.00     0.278 C 
BRANCH   8   9
HETATM    9  N           1     -35.381   0.361 -12.627  0.00  0.00    -0.066 N 
HETATM   10  H           1     -36.009   1.187 -12.504  0.00  0.00     0.275 HD
HETATM   11  H           1     -35.176  -0.064 -11.695  0.00  0.00     0.275 HD
HETATM   12  H           1     -34.488   0.667 -13.076  0.00  0.00     0.275 HD
ENDBRANCH   8   9
BRANCH   8  13
HETATM   13  C           1     -36.313  -0.048 -14.876  0.00  0.00     0.021 C 
HETATM   14  C           1     -37.785   0.323 -15.002  0.00  0.00     0.012 C 
BRANCH  13  15
HETATM   15  C           1     -35.458   1.201 -15.046  0.00  0.00     0.002 C 
HETATM   16  C           1     -36.116   2.134 -16.054  0.00  0.00     0.005 C 
ENDBRANCH  13  15
ENDBRANCH   8  13
ENDBRANCH   5   8
BRANCH   2  17
HETATM   17  C           1     -34.676  -4.945 -12.205  0.00  0.00     0.196 C 
HETATM   18  O           1     -35.327  -5.478 -13.131  0.00  0.00    -0.646 OA
HETATM   19  O           1     -34.697  -5.443 -11.059  0.00  0.00    -0.646 OA
ENDBRANCH   2  17
TORSDOF 5
ENDMDL
MODEL 3
REMARK VINA RESULT:      -6.5     12.700     14.761
REMARK  5 active torsions:
REMARK  status: ('A' for Active; 'I' for Inactive)
REMARK    1  A    between atoms: C_2  and  C_16 
REMARK       I    between atoms: N_4  and  C_11 
REMARK    2  A    between atoms: C_5  and  C_9 
REMARK    3  A    between atoms: C_11  and  C_15 
REMARK    4  A    between atoms: N_14  and  C_15 
REMARK    5  A    between atoms: C_15  and  C_16 
ROOT
HETATM    1  N           1     -21.686  -4.405  -9.439  0.00  0.00    -0.336 N 
HETATM    2  C           1     -22.559  -3.635 -10.321  0.00  0.00     0.188 C 
HETATM    3  C           1     -21.594  -2.877 -11.215  0.00  0.00     0.038 C 
HETATM    4  C           1     -20.313  -3.702 -11.205  0.00  0.00     0.022 C 
HETATM    5  C           1     -21.842  -4.627  -8.097  0.00  0.00     0.251 C 
HETATM    6  C           1     -20.610  -4.886 -10.301  0.00  0.00     0.127 C 
HETATM    7  O           1     -22.791  -4.159  -7.514  0.00  0.00    -0.271 OA
ENDROOT
BRANCH   5   8
HETATM    8  C           1     -20.828  -5.455  -7.347  0.00  0.00     0.278 C 
BRANCH   8   9
HETATM    9  N           1     -19.648  -4.599  -6.993  0.00  0.00    -0.066 N 
HETATM   10  H           1     -19.880  -3.596  -7.171  0.00  0.00     0.275 HD
HETATM   11  H           1     -19.413  -4.730  -5.984  0.00  0.00     0.275 HD
HETATM   12  H           1     -18.829  -4.876  -7.581  0.00  0.00     0.275 HD
ENDBRANCH   8   9
BRANCH   8  13
HETATM   13  C           1     -21.460  -5.999  -6.072  0.00  0.00     0.021 C 
HETATM   14  C           1     -21.301  -7.512  -6.030  0.00  0.00     0.012 C 
BRANCH  13  15
HETATM   15  C           1     -20.770  -5.382  -4.862  0.00  0.00     0.002 C 
HETATM   16  C           1     -21.254  -6.072  -3.593  0.00  0.00     0.005 C 
ENDBRANCH  13  15
ENDBRANCH   8  13
ENDBRANCH   5   8
BRANCH   2  17
HETATM   17  C           1     -23.441  -4.549 -11.135  0.00  0.00     0.196 C 
HETATM   18  O           1     -23.613  -4.328 -12.354  0.00  0.00    -0.646 OA
HETATM   19  O           1     -24.000  -5.526 -10.593  0.00  0.00    -0.646 OA
ENDBRANCH   2  17
TORSDOF 5
ENDMDL
MODEL 4
REMARK VINA RESULT:      -6.2     12.431     15.092
REMARK  5 active torsions:
REMARK  status: ('A' for Active; 'I' for Inactive)
REMARK    1  A    between atoms: C_2  and  C_16 
REMARK       I    between atoms: N_4  and  C_11 
REMARK    2  A    between atoms: C_5  and  C_9 
REMARK    3  A    between atoms: C_11  and  C_15 
REMARK    4  A    between atoms: N_14  and  C_15 
REMARK    5  A    between atoms: C_15  and  C_16 
ROOT
HETATM    1  N           1     -21.292  -4.611  -8.610  0.00  0.00    -0.336 N 
HETATM    2  C           1     -21.293  -5.650  -7.585  0.00  0.00     0.188 C 
HETATM    3  C           1     -19.825  -5.811  -7.230  0.00  0.00     0.038 C 
HETATM    4  C           1     -19.180  -4.480  -7.599  0.00  0.00     0.022 C 
HETATM    5  C           1     -22.046  -4.565  -9.752  0.00  0.00     0.251 C 
HETATM    6  C           1     -20.312  -3.631  -8.151  0.00  0.00     0.127 C 
HETATM    7  O           1     -22.821  -5.458 -10.000  0.00  0.00    -0.271 OA
ENDROOT
BRANCH   5   8
HETATM    8  C           1     -21.907  -3.400 -10.701  0.00  0.00     0.278 C 
BRANCH   8   9
HETATM    9  N           1     -20.614  -3.519 -11.452  0.00  0.00    -0.066 N 
HETATM   10  H           1     -19.814  -3.425 -10.785  0.00  0.00     0.275 HD
HETATM   11  H           1     -20.569  -4.450 -11.923  0.00  0.00     0.275 HD
HETATM   12  H           1     -20.557  -2.761 -12.170  0.00  0.00     0.275 HD
ENDBRANCH   8   9
BRANCH   8  13
HETATM   13  C           1     -23.068  -3.407 -11.687  0.00  0.00     0.021 C 
HETATM   14  C           1     -24.371  -3.152 -10.941  0.00  0.00     0.012 C 
BRANCH  13  15
HETATM   15  C           1     -22.856  -2.315 -12.727  0.00  0.00     0.002 C 
HETATM   16  C           1     -23.099  -2.883 -14.119  0.00  0.00     0.005 C 
ENDBRANCH  13  15
ENDBRANCH   8  13
ENDBRANCH   5   8
BRANCH   2  17
HETATM   17  C           1     -22.092  -5.217  -6.381  0.00  0.00     0.196 C 
HETATM   18  O           1     -23.216  -4.690  -6.533  0.00  0.00    -0.646 OA
HETATM   19  O           1     -21.632  -5.386  -5.231  0.00  0.00    -0.646 OA
ENDBRANCH   2  17
TORSDOF 5
ENDMDL
MODEL 5
REMARK VINA RESULT:      -6.1     18.577     20.070
REMARK  5 active torsions:
REMARK  status: ('A' for Active; 'I' for Inactive)
REMARK    1  A    between atoms: C_2  and  C_16 
REMARK       I    between atoms: N_4  and  C_11 
REMARK    2  A    between atoms: C_5  and  C_9 
REMARK    3  A    between atoms: C_11  and  C_15 
REMARK    4  A    between atoms: N_14  and  C_15 
REMARK    5  A    between atoms: C_15  and  C_16 
ROOT
HETATM    1  N           1     -21.363  -9.386  -0.962  0.00  0.00    -0.336 N 
HETATM    2  C           1     -21.068  -7.956  -0.933  0.00  0.00     0.188 C 
HETATM    3  C           1     -20.358  -7.705  -2.252  0.00  0.00     0.038 C 
HETATM    4  C           1     -20.833  -8.821  -3.176  0.00  0.00     0.022 C 
HETATM    5  C           1     -21.267 -10.278   0.071  0.00  0.00     0.251 C 
HETATM    6  C           1     -21.783  -9.655  -2.334  0.00  0.00     0.127 C 
HETATM    7  O           1     -20.901  -9.904   1.160  0.00  0.00    -0.271 OA
ENDROOT
BRANCH   5   8
HETATM    8  C           1     -21.618 -11.729  -0.150  0.00  0.00     0.278 C 
BRANCH   8   9
HETATM    9  N           1     -20.512 -12.596   0.376  0.00  0.00    -0.066 N 
HETATM   10  H           1     -20.912 -13.494   0.729  0.00  0.00     0.275 HD
HETATM   11  H           1     -19.831 -12.794  -0.391  0.00  0.00     0.275 HD
HETATM   12  H           1     -20.024 -12.101   1.157  0.00  0.00     0.275 HD
ENDBRANCH   8   9
BRANCH   8  13
HETATM   13  C           1     -22.911 -12.056   0.585  0.00  0.00     0.021 C 
HETATM   14  C           1     -24.095 -11.504  -0.197  0.00  0.00     0.012 C 
BRANCH  13  15
HETATM   15  C           1     -23.050 -13.567   0.717  0.00  0.00     0.002 C 
HETATM   16  C           1     -23.445 -13.920   2.145  0.00  0.00     0.005 C 
ENDBRANCH  13  15
ENDBRANCH   8  13
ENDBRANCH   5   8
BRANCH   2  17
HETATM   17  C           1     -22.338  -7.146  -0.845  0.00  0.00     0.196 C 
HETATM   18  O           1     -22.519  -6.180  -1.618  0.00  0.00    -0.646 OA
HETATM   19  O           1     -23.209  -7.440   0.002  0.00  0.00    -0.646 OA
ENDBRANCH   2  17
TORSDOF 5
ENDMDL
MODEL 6
REMARK VINA RESULT:      -6.1     14.730     17.014
REMARK  5 active torsions:
REMARK  status: ('A' for Active; 'I' for Inactive)
REMARK    1  A    between atoms: C_2  and  C_16 
REMARK       I    between atoms: N_4  and  C_11 
REMARK    2  A    between atoms: C_5  and  C_9 
REMARK    3  A    between atoms: C_11  and  C_15 
REMARK    4  A    between atoms: N_14  and  C_15 
REMARK    5  A    between atoms: C_15  and  C_16 
ROOT
HETATM    1  N           1     -21.129  -6.727  -5.449  0.00  0.00    -0.336 N 
HETATM    2  C           1     -20.483  -7.803  -4.703  0.00  0.00     0.188 C 
HETATM    3  C           1     -20.661  -7.395  -3.251  0.00  0.00     0.038 C 
HETATM    4  C           1     -21.883  -6.485  -3.241  0.00  0.00     0.022 C 
HETATM    5  C           1     -20.697  -6.139  -6.607  0.00  0.00     0.251 C 
HETATM    6  C           1     -22.336  -6.414  -4.689  0.00  0.00     0.127 C 
HETATM    7  O           1     -19.669  -6.507  -7.124  0.00  0.00    -0.271 OA
ENDROOT
BRANCH   5   8
HETATM    8  C           1     -21.505  -5.031  -7.238  0.00  0.00     0.278 C 
BRANCH   8   9
HETATM    9  N           1     -20.966  -3.704  -6.791  0.00  0.00    -0.066 N 
HETATM   10  H           1     -21.531  -3.352  -5.985  0.00  0.00     0.275 HD
HETATM   11  H           1     -19.970  -3.814  -6.496  0.00  0.00     0.275 HD
HETATM   12  H           1     -21.023  -3.022  -7.580  0.00  0.00     0.275 HD
ENDBRANCH   8   9
BRANCH   8  13
HETATM   13  C           1     -21.409  -5.133  -8.754  0.00  0.00     0.021 C 
HETATM   14  C           1     -22.755  -4.784  -9.374  0.00  0.00     0.012 C 
BRANCH  13  15
HETATM   15  C           1     -20.350  -4.161  -9.260  0.00  0.00     0.002 C 
HETATM   16  C           1     -20.471  -4.019 -10.772  0.00  0.00     0.005 C 
ENDBRANCH  13  15
ENDBRANCH   8  13
ENDBRANCH   5   8
BRANCH   2  17
HETATM   17  C           1     -21.157  -9.126  -4.975  0.00  0.00     0.196 C 
HETATM   18  O           1     -21.132  -9.615  -6.125  0.00  0.00    -0.646 OA
HETATM   19  O           1     -21.741  -9.732  -4.051  0.00  0.00    -0.646 OA
ENDBRANCH   2  17
TORSDOF 5
ENDMDL
MODEL 7
REMARK VINA RESULT:      -5.8     24.558     25.952
REMARK  5 active torsions:
REMARK  status: ('A' for Active; 'I' for Inactive)
REMARK    1  A    between atoms: C_2  and  C_16 
REMARK       I    between atoms: N_4  and  C_11 
REMARK    2  A    between atoms: C_5  and  C_9 
REMARK    3  A    between atoms: C_11  and  C_15 
REMARK    4  A    between atoms: N_14  and  C_15 
REMARK    5  A    between atoms: C_15  and  C_16 
ROOT
HETATM    1  N           1     -11.354   6.831 -20.388  0.00  0.00    -0.336 N 
HETATM    2  C           1     -11.084   8.009 -19.569  0.00  0.00     0.188 C 
HETATM    3  C           1     -10.016   8.756 -20.348  0.00  0.00     0.038 C 
HETATM    4  C           1     -10.191   8.305 -21.793  0.00  0.00     0.022 C 
HETATM    5  C           1     -11.567   5.548 -19.960  0.00  0.00     0.251 C 
HETATM    6  C           1     -11.346   7.320 -21.764  0.00  0.00     0.127 C 
HETATM    7  O           1     -11.541   5.293 -18.779  0.00  0.00    -0.271 OA
ENDROOT
BRANCH   5   8
HETATM    8  C           1     -11.832   4.452 -20.962  0.00  0.00     0.278 C 
BRANCH   8   9
HETATM    9  N           1     -10.876   3.319 -20.728  0.00  0.00    -0.066 N 
HETATM   10  H           1      -9.972   3.521 -21.212  0.00  0.00     0.275 HD
HETATM   11  H           1     -10.707   3.213 -19.702  0.00  0.00     0.275 HD
HETATM   12  H           1     -11.284   2.435 -21.108  0.00  0.00     0.275 HD
ENDBRANCH   8   9
BRANCH   8  13
HETATM   13  C           1     -13.261   3.951 -20.801  0.00  0.00     0.021 C 
HETATM   14  C           1     -14.219   5.134 -20.807  0.00  0.00     0.012 C 
BRANCH  13  15
HETATM   15  C           1     -13.602   3.015 -21.953  0.00  0.00     0.002 C 
HETATM   16  C           1     -14.576   3.707 -22.899  0.00  0.00     0.005 C 
ENDBRANCH  13  15
ENDBRANCH   8  13
ENDBRANCH   5   8
BRANCH   2  17
HETATM   17  C           1     -12.326   8.853 -19.416  0.00  0.00     0.196 C 
HETATM   18  O           1     -13.361   8.358 -18.919  0.00  0.00    -0.646 OA
HETATM   19  O           1     -12.320  10.047 -19.786  0.00  0.00    -0.646 OA
ENDBRANCH   2  17
TORSDOF 5
ENDMDL
MODEL 8
REMARK VINA RESULT:      -5.8      1.790      5.175
REMARK  5 active torsions:
REMARK  status: ('A' for Active; 'I' for Inactive)
REMARK    1  A    between atoms: C_2  and  C_16 
REMARK       I    between atoms: N_4  and  C_11 
REMARK    2  A    between atoms: C_5  and  C_9 
REMARK    3  A    between atoms: C_11  and  C_15 
REMARK    4  A    between atoms: N_14  and  C_15 
REMARK    5  A    between atoms: C_15  and  C_16 
ROOT
HETATM    1  N           1     -34.408  -2.342 -12.347  0.00  0.00    -0.336 N 
HETATM    2  C           1     -34.089  -3.734 -12.651  0.00  0.00     0.188 C 
HETATM    3  C           1     -32.723  -3.938 -12.021  0.00  0.00     0.038 C 
HETATM    4  C           1     -32.636  -2.894 -10.915  0.00  0.00     0.022 C 
HETATM    5  C           1     -35.004  -1.424 -13.171  0.00  0.00     0.251 C 
HETATM    6  C           1     -33.955  -2.143 -10.974  0.00  0.00     0.127 C 
HETATM    7  O           1     -35.326  -1.737 -14.292  0.00  0.00    -0.271 OA
ENDROOT
BRANCH   5   8
HETATM    8  C           1     -35.256  -0.020 -12.678  0.00  0.00     0.278 C 
BRANCH   8   9
HETATM    9  N           1     -34.814   0.963 -13.722  0.00  0.00    -0.066 N 
HETATM   10  H           1     -35.604   1.151 -14.380  0.00  0.00     0.275 HD
HETATM   11  H           1     -34.524   1.854 -13.261  0.00  0.00     0.275 HD
HETATM   12  H           1     -34.006   0.565 -14.254  0.00  0.00     0.275 HD
ENDBRANCH   8   9
BRANCH   8  13
HETATM   13  C           1     -36.743   0.164 -12.406  0.00  0.00     0.021 C 
HETATM   14  C           1     -37.534  -0.153 -13.668  0.00  0.00     0.012 C 
BRANCH  13  15
HETATM   15  C           1     -37.173  -0.777 -11.288  0.00  0.00     0.002 C 
HETATM   16  C           1     -36.891  -0.127  -9.939  0.00  0.00     0.005 C 
ENDBRANCH  13  15
ENDBRANCH   8  13
ENDBRANCH   5   8
BRANCH   2  17
HETATM   17  C           1     -35.107  -4.665 -12.039  0.00  0.00     0.196 C 
HETATM   18  O           1     -35.874  -4.250 -11.143  0.00  0.00    -0.646 OA
HETATM   19  O           1     -35.183  -5.850 -12.428  0.00  0.00    -0.646 OA
ENDBRANCH   2  17
TORSDOF 5
ENDMDL
MODEL 9
REMARK VINA RESULT:      -5.6     25.163     26.465
REMARK  5 active torsions:
REMARK  status: ('A' for Active; 'I' for Inactive)
REMARK    1  A    between atoms: C_2  and  C_16 
REMARK       I    between atoms: N_4  and  C_11 
REMARK    2  A    between atoms: C_5  and  C_9 
REMARK    3  A    between atoms: C_11  and  C_15 
REMARK    4  A    between atoms: N_14  and  C_15 
REMARK    5  A    between atoms: C_15  and  C_16 
ROOT
HETATM    1  N           1     -11.772   8.704 -20.347  0.00  0.00    -0.336 N 
HETATM    2  C           1     -12.172  10.033 -19.891  0.00  0.00     0.188 C 
HETATM    3  C           1     -12.303  10.833 -21.175  0.00  0.00     0.038 C 
HETATM    4  C           1     -12.572   9.798 -22.261  0.00  0.00     0.022 C 
HETATM    5  C           1     -10.848   7.870 -19.778  0.00  0.00     0.251 C 
HETATM    6  C           1     -12.574   8.460 -21.543  0.00  0.00     0.127 C 
HETATM    7  O           1     -10.258   8.213 -18.781  0.00  0.00    -0.271 OA
ENDROOT
BRANCH   5   8
HETATM    8  C           1     -10.565   6.523 -20.396  0.00  0.00     0.278 C 
BRANCH   8   9
HETATM    9  N           1      -9.082   6.301 -20.453  0.00  0.00    -0.066 N 
HETATM   10  H           1      -8.651   6.997 -21.102  0.00  0.00     0.275 HD
HETATM   11  H           1      -8.676   6.417 -19.497  0.00  0.00     0.275 HD
HETATM   12  H           1      -8.888   5.335 -20.800  0.00  0.00     0.275 HD
ENDBRANCH   8   9
BRANCH   8  13
HETATM   13  C           1     -11.209   5.432 -19.551  0.00  0.00     0.021 C 
HETATM   14  C           1     -12.614   5.151 -20.067  0.00  0.00     0.012 C 
BRANCH  13  15
HETATM   15  C           1     -10.372   4.162 -19.642  0.00  0.00     0.002 C 
HETATM   16  C           1     -11.119   3.117 -20.461  0.00  0.00     0.005 C 
ENDBRANCH  13  15
ENDBRANCH   8  13
ENDBRANCH   5   8
BRANCH   2  17
HETATM   17  C           1     -13.489   9.976 -19.158  0.00  0.00     0.196 C 
HETATM   18  O           1     -14.409  10.767 -19.462  0.00  0.00    -0.646 OA
HETATM   19  O           1     -13.662   9.137 -18.247  0.00  0.00    -0.646 OA
ENDBRANCH   2  17
TORSDOF 5
ENDMDL
