MODEL 1
REMARK VINA RESULT:      -6.5      0.000      0.000
REMARK  10 active torsions:
REMARK  status: ('A' for Active; 'I' for Inactive)
REMARK    1  A    between atoms: N_3  and  C_12 
REMARK       I    between atoms: N_3  and  C_6 
REMARK    2  A    between atoms: C_6  and  C_15 
REMARK    3  A    between atoms: O_8  and  C_20 
REMARK    4  A    between atoms: O_8  and  P_14 
REMARK    5  A    between atoms: N_9  and  C_15 
REMARK    6  A    between atoms: O_11  and  P_14 
REMARK    7  A    between atoms: C_12  and  C_13 
REMARK    8  A    between atoms: C_12  and  C_20 
REMARK    9  A    between atoms: C_15  and  C_22 
REMARK   10  A    between atoms: C_22  and  O_23 
ROOT
HETATM    1  N           1     -22.048  -4.639  -9.348  0.00  0.00    -0.343 N 
HETATM    2  H           1     -21.994  -5.580  -9.719  0.00  0.00     0.163 HD
HETATM    3  C           1     -21.463  -4.345  -8.146  0.00  0.00     0.251 C 
HETATM    4  O           1     -21.528  -3.224  -7.701  0.00  0.00    -0.271 OA
ENDROOT
BRANCH   1   5
HETATM    5  C           1     -22.746  -3.606 -10.087  0.00  0.00     0.210 C 
BRANCH   5   6
HETATM    6  C           1     -24.235  -3.778  -9.908  0.00  0.00     0.198 C 
HETATM    7  O           1     -24.949  -2.791  -9.628  0.00  0.00    -0.646 OA
HETATM    8  O           1     -24.753  -4.908 -10.040  0.00  0.00    -0.646 OA
ENDBRANCH   5   6
BRANCH   5   9
HETATM    9  C           1     -22.396  -3.718 -11.565  0.00  0.00     0.217 C 
BRANCH   9  10
HETATM   10  O           1     -22.844  -2.574 -12.240  0.00  0.00    -0.287 OA
BRANCH  10  11
HETATM   11  P           1     -23.541  -2.825 -13.675  0.00  0.00     0.406 P 
HETATM   12  O           1     -24.341  -1.639 -14.050  0.00  0.00    -0.624 OA
HETATM   13  O           1     -24.424  -4.010 -13.592  0.00  0.00    -0.624 OA
BRANCH  11  14
HETATM   14  O           1     -22.401  -3.079 -14.789  0.00  0.00    -0.300 OA
HETATM   15  H           1     -22.076  -2.222 -15.007  0.00  0.00     0.223 HD
ENDBRANCH  11  14
ENDBRANCH  10  11
ENDBRANCH   9  10
ENDBRANCH   5   9
ENDBRANCH   1   5
BRANCH   3  16
HETATM   16  C           1     -20.737  -5.421  -7.376  0.00  0.00     0.302 C 
BRANCH  16  17
HETATM   17  N           1     -19.432  -4.880  -6.872  0.00  0.00    -0.064 N 
HETATM   18  H           1     -18.708  -4.962  -7.622  0.00  0.00     0.275 HD
HETATM   19  H           1     -19.550  -3.875  -6.612  0.00  0.00     0.275 HD
HETATM   20  H           1     -19.129  -5.424  -6.035  0.00  0.00     0.275 HD
ENDBRANCH  16  17
BRANCH  16  21
HETATM   21  C           1     -21.591  -5.867  -6.196  0.00  0.00     0.153 C 
HETATM   22  C           1     -20.855  -5.568  -4.897  0.00  0.00     0.042 C 
BRANCH  21  23
HETATM   23  O           1     -22.809  -5.173  -6.212  0.00  0.00    -0.393 OA
HETATM   24  H           1     -22.602  -4.260  -6.313  0.00  0.00     0.210 HD
ENDBRANCH  21  23
ENDBRANCH  16  21
ENDBRANCH   3  16
TORSDOF 10
ENDMDL
MODEL 2
REMARK VINA RESULT:      -6.5      9.284     11.348
REMARK  10 active torsions:
REMARK  status: ('A' for Active; 'I' for Inactive)
REMARK    1  A    between atoms: N_3  and  C_12 
REMARK       I    between atoms: N_3  and  C_6 
REMARK    2  A    between atoms: C_6  and  C_15 
REMARK    3  A    between atoms: O_8  and  C_20 
REMARK    4  A    between atoms: O_8  and  P_14 
REMARK    5  A    between atoms: N_9  and  C_15 
REMARK    6  A    between atoms: O_11  and  P_14 
REMARK    7  A    between atoms: C_12  and  C_13 
REMARK    8  A    between atoms: C_12  and  C_20 
REMARK    9  A    between atoms: C_15  and  C_22 
REMARK   10  A    between atoms: C_22  and  O_23 
ROOT
HETATM    1  N           1     -27.460  -7.355 -19.207  0.00  0.00    -0.343 N 
HETATM    2  H           1     -27.571  -8.359 -19.137  0.00  0.00     0.163 HD
HETATM    3  C           1     -28.470  -6.526 -18.799  0.00  0.00     0.251 C 
HETATM    4  O           1     -28.338  -5.328 -18.881  0.00  0.00    -0.271 OA
ENDROOT
BRANCH   1   5
HETATM    5  C           1     -26.233  -6.796 -19.738  0.00  0.00     0.210 C 
BRANCH   5   6
HETATM    6  C           1     -25.774  -7.621 -20.917  0.00  0.00     0.198 C 
HETATM    7  O           1     -26.493  -8.546 -21.350  0.00  0.00    -0.646 OA
HETATM    8  O           1     -24.674  -7.377 -21.458  0.00  0.00    -0.646 OA
ENDBRANCH   5   6
BRANCH   5   9
HETATM    9  C           1     -25.159  -6.812 -18.658  0.00  0.00     0.217 C 
BRANCH   9  10
HETATM   10  O           1     -25.619  -6.117 -17.531  0.00  0.00    -0.287 OA
BRANCH  10  11
HETATM   11  P           1     -25.359  -6.828 -16.105  0.00  0.00     0.406 P 
HETATM   12  O           1     -24.385  -7.928 -16.271  0.00  0.00    -0.624 OA
HETATM   13  O           1     -26.634  -7.371 -15.587  0.00  0.00    -0.624 OA
BRANCH  11  14
HETATM   14  O           1     -24.772  -5.743 -15.062  0.00  0.00    -0.300 OA
HETATM   15  H           1     -25.524  -5.426 -14.591  0.00  0.00     0.223 HD
ENDBRANCH  11  14
ENDBRANCH  10  11
ENDBRANCH   9  10
ENDBRANCH   5   9
ENDBRANCH   1   5
BRANCH   3  16
HETATM   16  C           1     -29.747  -7.108 -18.246  0.00  0.00     0.302 C 
BRANCH  16  17
HETATM   17  N           1     -29.418  -8.216 -17.290  0.00  0.00    -0.064 N 
HETATM   18  H           1     -28.803  -8.916 -17.766  0.00  0.00     0.275 HD
HETATM   19  H           1     -28.920  -7.824 -16.460  0.00  0.00     0.275 HD
HETATM   20  H           1     -30.300  -8.682 -16.980  0.00  0.00     0.275 HD
ENDBRANCH  16  17
BRANCH  16  21
HETATM   21  C           1     -30.526  -6.022 -17.514  0.00  0.00     0.153 C 
HETATM   22  C           1     -31.957  -6.490 -17.288  0.00  0.00     0.042 C 
BRANCH  21  23
HETATM   23  O           1     -29.918  -5.764 -16.278  0.00  0.00    -0.393 OA
HETATM   24  H           1     -30.175  -4.894 -16.023  0.00  0.00     0.210 HD
ENDBRANCH  21  23
ENDBRANCH  16  21
ENDBRANCH   3  16
TORSDOF 10
ENDMDL
MODEL 3
REMARK VINA RESULT:      -6.3     12.813     14.541
REMARK  10 active torsions:
REMARK  status: ('A' for Active; 'I' for Inactive)
REMARK    1  A    between atoms: N_3  and  C_12 
REMARK       I    between atoms: N_3  and  C_6 
REMARK    2  A    between atoms: C_6  and  C_15 
REMARK    3  A    between atoms: O_8  and  C_20 
REMARK    4  A    between atoms: O_8  and  P_14 
REMARK    5  A    between atoms: N_9  and  C_15 
REMARK    6  A    between atoms: O_11  and  P_14 
REMARK    7  A    between atoms: C_12  and  C_13 
REMARK    8  A    between atoms: C_12  and  C_20 
REMARK    9  A    between atoms: C_15  and  C_22 
REMARK   10  A    between atoms: C_22  and  O_23 
ROOT
HETATM    1  N           1     -35.689  -0.652 -10.892  0.00  0.00    -0.343 N 
HETATM    2  H           1     -34.888  -0.328 -10.364  0.00  0.00     0.163 HD
HETATM    3  C           1     -36.910  -0.762 -10.282  0.00  0.00     0.251 C 
HETATM    4  O           1     -37.867  -1.148 -10.911  0.00  0.00    -0.271 OA
ENDROOT
BRANCH   1   5
HETATM    5  C           1     -35.543  -0.998 -12.291  0.00  0.00     0.210 C 
BRANCH   5   6
HETATM    6  C           1     -34.632  -2.194 -12.421  0.00  0.00     0.198 C 
HETATM    7  O           1     -34.597  -2.842 -13.489  0.00  0.00    -0.646 OA
HETATM    8  O           1     -33.911  -2.537 -11.459  0.00  0.00    -0.646 OA
ENDBRANCH   5   6
BRANCH   5   9
HETATM    9  C           1     -34.944   0.181 -13.045  0.00  0.00     0.217 C 
BRANCH   9  10
HETATM   10  O           1     -35.929   0.775 -13.846  0.00  0.00    -0.287 OA
BRANCH  10  11
HETATM   11  P           1     -36.191   0.080 -15.280  0.00  0.00     0.406 P 
HETATM   12  O           1     -36.408   1.124 -16.304  0.00  0.00    -0.624 OA
HETATM   13  O           1     -37.389  -0.785 -15.196  0.00  0.00    -0.624 OA
BRANCH  11  14
HETATM   14  O           1     -34.909  -0.814 -15.686  0.00  0.00    -0.300 OA
HETATM   15  H           1     -34.283  -0.670 -14.997  0.00  0.00     0.223 HD
ENDBRANCH  11  14
ENDBRANCH  10  11
ENDBRANCH   9  10
ENDBRANCH   5   9
ENDBRANCH   1   5
BRANCH   3  16
HETATM   16  C           1     -37.062  -0.401  -8.825  0.00  0.00     0.302 C 
BRANCH  16  17
HETATM   17  N           1     -35.738   0.045  -8.280  0.00  0.00    -0.064 N 
HETATM   18  H           1     -35.835   0.264  -7.262  0.00  0.00     0.275 HD
HETATM   19  H           1     -35.035  -0.718  -8.405  0.00  0.00     0.275 HD
HETATM   20  H           1     -35.420   0.898  -8.791  0.00  0.00     0.275 HD
ENDBRANCH  16  17
BRANCH  16  21
HETATM   21  C           1     -38.075   0.729  -8.684  0.00  0.00     0.153 C 
HETATM   22  C           1     -37.738   1.560  -7.453  0.00  0.00     0.042 C 
BRANCH  21  23
HETATM   23  O           1     -38.029   1.542  -9.824  0.00  0.00    -0.393 OA
HETATM   24  H           1     -37.270   1.280 -10.316  0.00  0.00     0.210 HD
ENDBRANCH  21  23
ENDBRANCH  16  21
ENDBRANCH   3  16
TORSDOF 10
ENDMDL
MODEL 4
REMARK VINA RESULT:      -5.6      3.190      6.817
REMARK  10 active torsions:
REMARK  status: ('A' for Active; 'I' for Inactive)
REMARK    1  A    between atoms: N_3  and  C_12 
REMARK       I    between atoms: N_3  and  C_6 
REMARK    2  A    between atoms: C_6  and  C_15 
REMARK    3  A    between atoms: O_8  and  C_20 
REMARK    4  A    between atoms: O_8  and  P_14 
REMARK    5  A    between atoms: N_9  and  C_15 
REMARK    6  A    between atoms: O_11  and  P_14 
REMARK    7  A    between atoms: C_12  and  C_13 
REMARK    8  A    between atoms: C_12  and  C_20 
REMARK    9  A    between atoms: C_15  and  C_22 
REMARK   10  A    between atoms: C_22  and  O_23 
ROOT
HETATM    1  N           1     -22.055  -5.258  -8.638  0.00  0.00    -0.343 N 
HETATM    2  H           1     -22.076  -6.191  -9.031  0.00  0.00     0.163 HD
HETATM    3  C           1     -22.988  -4.333  -9.022  0.00  0.00     0.251 C 
HETATM    4  O           1     -22.964  -3.220  -8.552  0.00  0.00    -0.271 OA
ENDROOT
BRANCH   1   5
HETATM    5  C           1     -21.037  -4.902  -7.669  0.00  0.00     0.210 C 
BRANCH   5   6
HETATM    6  C           1     -19.789  -4.458  -8.392  0.00  0.00     0.198 C 
HETATM    7  O           1     -19.818  -4.259  -9.626  0.00  0.00    -0.646 OA
HETATM    8  O           1     -18.726  -4.290  -7.757  0.00  0.00    -0.646 OA
ENDBRANCH   5   6
BRANCH   5   9
HETATM    9  C           1     -20.718  -6.113  -6.802  0.00  0.00     0.217 C 
BRANCH   9  10
HETATM   10  O           1     -20.802  -5.755  -5.449  0.00  0.00    -0.287 OA
BRANCH  10  11
HETATM   11  P           1     -21.982  -6.460  -4.601  0.00  0.00     0.406 P 
HETATM   12  O           1     -23.293  -6.085  -5.172  0.00  0.00    -0.624 OA
HETATM   13  O           1     -21.910  -6.013  -3.193  0.00  0.00    -0.624 OA
BRANCH  11  14
HETATM   14  O           1     -21.806  -8.064  -4.667  0.00  0.00    -0.300 OA
HETATM   15  H           1     -21.149  -8.264  -4.022  0.00  0.00     0.223 HD
ENDBRANCH  11  14
ENDBRANCH  10  11
ENDBRANCH   9  10
ENDBRANCH   5   9
ENDBRANCH   1   5
BRANCH   3  16
HETATM   16  C           1     -24.048  -4.704 -10.030  0.00  0.00     0.302 C 
BRANCH  16  17
HETATM   17  N           1     -25.291  -3.908  -9.763  0.00  0.00    -0.064 N 
HETATM   18  H           1     -26.117  -4.549  -9.738  0.00  0.00     0.275 HD
HETATM   19  H           1     -25.202  -3.422  -8.843  0.00  0.00     0.275 HD
HETATM   20  H           1     -25.421  -3.201 -10.521  0.00  0.00     0.275 HD
ENDBRANCH  16  17
BRANCH  16  21
HETATM   21  C           1     -23.543  -4.400 -11.435  0.00  0.00     0.153 C 
HETATM   22  C           1     -24.229  -3.146 -11.960  0.00  0.00     0.042 C 
BRANCH  21  23
HETATM   23  O           1     -22.157  -4.193 -11.398  0.00  0.00    -0.393 OA
HETATM   24  H           1     -21.878  -4.051 -12.286  0.00  0.00     0.210 HD
ENDBRANCH  21  23
ENDBRANCH  16  21
ENDBRANCH   3  16
TORSDOF 10
ENDMDL
MODEL 5
REMARK VINA RESULT:      -5.5      9.758     11.627
REMARK  10 active torsions:
REMARK  status: ('A' for Active; 'I' for Inactive)
REMARK    1  A    between atoms: N_3  and  C_12 
REMARK       I    between atoms: N_3  and  C_6 
REMARK    2  A    between atoms: C_6  and  C_15 
REMARK    3  A    between atoms: O_8  and  C_20 
REMARK    4  A    between atoms: O_8  and  P_14 
REMARK    5  A    between atoms: N_9  and  C_15 
REMARK    6  A    between atoms: O_11  and  P_14 
REMARK    7  A    between atoms: C_12  and  C_13 
REMARK    8  A    between atoms: C_12  and  C_20 
REMARK    9  A    between atoms: C_15  and  C_22 
REMARK   10  A    between atoms: C_22  and  O_23 
ROOT
HETATM    1  N           1     -29.182  -5.976 -18.318  0.00  0.00    -0.343 N 
HETATM    2  H           1     -29.276  -5.001 -18.575  0.00  0.00     0.163 HD
HETATM    3  C           1     -30.270  -6.669 -17.860  0.00  0.00     0.251 C 
HETATM    4  O           1     -30.160  -7.833 -17.553  0.00  0.00    -0.271 OA
ENDROOT
BRANCH   1   5
HETATM    5  C           1     -27.897  -6.637 -18.434  0.00  0.00     0.210 C 
BRANCH   5   6
HETATM    6  C           1     -27.025  -6.250 -17.264  0.00  0.00     0.198 C 
HETATM    7  O           1     -25.783  -6.218 -17.394  0.00  0.00    -0.646 OA
HETATM    8  O           1     -27.546  -5.961 -16.166  0.00  0.00    -0.646 OA
ENDBRANCH   5   6
BRANCH   5   9
HETATM    9  C           1     -27.225  -6.211 -19.732  0.00  0.00     0.217 C 
BRANCH   9  10
HETATM   10  O           1     -26.819  -7.348 -20.445  0.00  0.00    -0.287 OA
BRANCH  10  11
HETATM   11  P           1     -25.257  -7.413 -20.847  0.00  0.00     0.406 P 
HETATM   12  O           1     -24.816  -6.088 -21.334  0.00  0.00    -0.624 OA
HETATM   13  O           1     -25.065  -8.420 -21.914  0.00  0.00    -0.624 OA
BRANCH  11  14
HETATM   14  O           1     -24.385  -7.827 -19.552  0.00  0.00    -0.300 OA
HETATM   15  H           1     -24.931  -7.618 -18.813  0.00  0.00     0.223 HD
ENDBRANCH  11  14
ENDBRANCH  10  11
ENDBRANCH   9  10
ENDBRANCH   5   9
ENDBRANCH   1   5
BRANCH   3  16
HETATM   16  C           1     -31.608  -5.981 -17.739  0.00  0.00     0.302 C 
BRANCH  16  17
HETATM   17  N           1     -32.618  -6.947 -17.196  0.00  0.00    -0.064 N 
HETATM   18  H           1     -32.618  -7.816 -17.777  0.00  0.00     0.275 HD
HETATM   19  H           1     -32.373  -7.189 -16.210  0.00  0.00     0.275 HD
HETATM   20  H           1     -33.567  -6.510 -17.223  0.00  0.00     0.275 HD
ENDBRANCH  16  17
BRANCH  16  21
HETATM   21  C           1     -31.484  -4.791 -16.796  0.00  0.00     0.153 C 
HETATM   22  C           1     -32.863  -4.418 -16.269  0.00  0.00     0.042 C 
BRANCH  21  23
HETATM   23  O           1     -30.650  -5.130 -15.722  0.00  0.00    -0.393 OA
HETATM   24  H           1     -29.906  -5.579 -16.086  0.00  0.00     0.210 HD
ENDBRANCH  21  23
ENDBRANCH  16  21
ENDBRANCH   3  16
TORSDOF 10
ENDMDL
MODEL 6
REMARK VINA RESULT:      -5.5      2.237      3.414
REMARK  10 active torsions:
REMARK  status: ('A' for Active; 'I' for Inactive)
REMARK    1  A    between atoms: N_3  and  C_12 
REMARK       I    between atoms: N_3  and  C_6 
REMARK    2  A    between atoms: C_6  and  C_15 
REMARK    3  A    between atoms: O_8  and  C_20 
REMARK    4  A    between atoms: O_8  and  P_14 
REMARK    5  A    between atoms: N_9  and  C_15 
REMARK    6  A    between atoms: O_11  and  P_14 
REMARK    7  A    between atoms: C_12  and  C_13 
REMARK    8  A    between atoms: C_12  and  C_20 
REMARK    9  A    between atoms: C_15  and  C_22 
REMARK   10  A    between atoms: C_22  and  O_23 
ROOT
HETATM    1  N           1     -21.171  -4.924  -6.819  0.00  0.00    -0.343 N 
HETATM    2  H           1     -21.063  -4.087  -6.258  0.00  0.00     0.163 HD
HETATM    3  C           1     -21.034  -6.156  -6.239  0.00  0.00     0.251 C 
HETATM    4  O           1     -21.162  -7.155  -6.907  0.00  0.00    -0.271 OA
ENDROOT
BRANCH   1   5
HETATM    5  C           1     -21.467  -4.816  -8.233  0.00  0.00     0.210 C 
BRANCH   5   6
HETATM    6  C           1     -20.200  -4.499  -8.990  0.00  0.00     0.198 C 
HETATM    7  O           1     -19.190  -4.093  -8.376  0.00  0.00    -0.646 OA
HETATM    8  O           1     -20.162  -4.643 -10.231  0.00  0.00    -0.646 OA
ENDBRANCH   5   6
BRANCH   5   9
HETATM    9  C           1     -22.483  -3.703  -8.454  0.00  0.00     0.217 C 
BRANCH   9  10
HETATM   10  O           1     -23.624  -4.226  -9.077  0.00  0.00    -0.287 OA
BRANCH  10  11
HETATM   11  P           1     -23.778  -3.910 -10.653  0.00  0.00     0.406 P 
HETATM   12  O           1     -25.057  -3.207 -10.894  0.00  0.00    -0.624 OA
HETATM   13  O           1     -23.762  -5.179 -11.414  0.00  0.00    -0.624 OA
BRANCH  11  14
HETATM   14  O           1     -22.552  -2.977 -11.137  0.00  0.00    -0.300 OA
HETATM   15  H           1     -22.814  -2.648 -11.980  0.00  0.00     0.223 HD
ENDBRANCH  11  14
ENDBRANCH  10  11
ENDBRANCH   9  10
ENDBRANCH   5   9
ENDBRANCH   1   5
BRANCH   3  16
HETATM   16  C           1     -20.725  -6.269  -4.766  0.00  0.00     0.302 C 
BRANCH  16  17
HETATM   17  N           1     -20.282  -4.934  -4.246  0.00  0.00    -0.064 N 
HETATM   18  H           1     -20.492  -4.195  -4.956  0.00  0.00     0.275 HD
HETATM   19  H           1     -20.793  -4.719  -3.360  0.00  0.00     0.275 HD
HETATM   20  H           1     -19.255  -4.956  -4.060  0.00  0.00     0.275 HD
ENDBRANCH  16  17
BRANCH  16  21
HETATM   21  C           1     -21.975  -6.716  -4.017  0.00  0.00     0.153 C 
HETATM   22  C           1     -21.934  -6.174  -2.595  0.00  0.00     0.042 C 
BRANCH  21  23
HETATM   23  O           1     -23.113  -6.225  -4.672  0.00  0.00    -0.393 OA
HETATM   24  H           1     -22.940  -5.323  -4.881  0.00  0.00     0.210 HD
ENDBRANCH  21  23
ENDBRANCH  16  21
ENDBRANCH   3  16
TORSDOF 10
ENDMDL
MODEL 7
REMARK VINA RESULT:      -5.5      8.454     11.081
REMARK  10 active torsions:
REMARK  status: ('A' for Active; 'I' for Inactive)
REMARK    1  A    between atoms: N_3  and  C_12 
REMARK       I    between atoms: N_3  and  C_6 
REMARK    2  A    between atoms: C_6  and  C_15 
REMARK    3  A    between atoms: O_8  and  C_20 
REMARK    4  A    between atoms: O_8  and  P_14 
REMARK    5  A    between atoms: N_9  and  C_15 
REMARK    6  A    between atoms: O_11  and  P_14 
REMARK    7  A    between atoms: C_12  and  C_13 
REMARK    8  A    between atoms: C_12  and  C_20 
REMARK    9  A    between atoms: C_15  and  C_22 
REMARK   10  A    between atoms: C_22  and  O_23 
ROOT
HETATM    1  N           1     -24.822  -7.516 -18.905  0.00  0.00    -0.343 N 
HETATM    2  H           1     -24.565  -8.436 -18.568  0.00  0.00     0.163 HD
HETATM    3  C           1     -24.685  -7.213 -20.233  0.00  0.00     0.251 C 
HETATM    4  O           1     -24.991  -6.116 -20.636  0.00  0.00    -0.271 OA
ENDROOT
BRANCH   1   5
HETATM    5  C           1     -25.333  -6.523 -17.982  0.00  0.00     0.210 C 
BRANCH   5   6
HETATM    6  C           1     -24.896  -6.868 -16.579  0.00  0.00     0.198 C 
HETATM    7  O           1     -24.862  -5.981 -15.699  0.00  0.00    -0.646 OA
HETATM    8  O           1     -24.569  -8.041 -16.298  0.00  0.00    -0.646 OA
ENDBRANCH   5   6
BRANCH   5   9
HETATM    9  C           1     -26.854  -6.504 -18.051  0.00  0.00     0.217 C 
BRANCH   9  10
HETATM   10  O           1     -27.369  -5.924 -16.883  0.00  0.00    -0.287 OA
BRANCH  10  11
HETATM   11  P           1     -28.519  -6.764 -16.121  0.00  0.00     0.406 P 
HETATM   12  O           1     -29.569  -5.840 -15.641  0.00  0.00    -0.624 OA
HETATM   13  O           1     -27.925  -7.478 -14.970  0.00  0.00    -0.624 OA
BRANCH  11  14
HETATM   14  O           1     -29.169  -7.833 -17.142  0.00  0.00    -0.300 OA
HETATM   15  H           1     -29.339  -7.346 -17.930  0.00  0.00     0.223 HD
ENDBRANCH  11  14
ENDBRANCH  10  11
ENDBRANCH   9  10
ENDBRANCH   5   9
ENDBRANCH   1   5
BRANCH   3  16
HETATM   16  C           1     -24.152  -8.248 -21.193  0.00  0.00     0.302 C 
BRANCH  16  17
HETATM   17  N           1     -24.079  -7.659 -22.571  0.00  0.00    -0.064 N 
HETATM   18  H           1     -23.479  -8.264 -23.177  0.00  0.00     0.275 HD
HETATM   19  H           1     -25.040  -7.605 -22.977  0.00  0.00     0.275 HD
HETATM   20  H           1     -23.667  -6.701 -22.519  0.00  0.00     0.275 HD
ENDBRANCH  16  17
BRANCH  16  21
HETATM   21  C           1     -22.760  -8.682 -20.753  0.00  0.00     0.153 C 
HETATM   22  C           1     -21.873  -8.857 -21.977  0.00  0.00     0.042 C 
BRANCH  21  23
HETATM   23  O           1     -22.210  -7.705 -19.912  0.00  0.00    -0.393 OA
HETATM   24  H           1     -21.557  -7.249 -20.414  0.00  0.00     0.210 HD
ENDBRANCH  21  23
ENDBRANCH  16  21
ENDBRANCH   3  16
TORSDOF 10
ENDMDL
MODEL 8
REMARK VINA RESULT:      -5.3      2.956      6.689
REMARK  10 active torsions:
REMARK  status: ('A' for Active; 'I' for Inactive)
REMARK    1  A    between atoms: N_3  and  C_12 
REMARK       I    between atoms: N_3  and  C_6 
REMARK    2  A    between atoms: C_6  and  C_15 
REMARK    3  A    between atoms: O_8  and  C_20 
REMARK    4  A    between atoms: O_8  and  P_14 
REMARK    5  A    between atoms: N_9  and  C_15 
REMARK    6  A    between atoms: O_11  and  P_14 
REMARK    7  A    between atoms: C_12  and  C_13 
REMARK    8  A    between atoms: C_12  and  C_20 
REMARK    9  A    between atoms: C_15  and  C_22 
REMARK   10  A    between atoms: C_22  and  O_23 
ROOT
HETATM    1  N           1     -21.438  -4.246  -9.576  0.00  0.00    -0.343 N 
HETATM    2  H           1     -20.541  -3.835  -9.801  0.00  0.00     0.163 HD
HETATM    3  C           1     -22.496  -4.088 -10.430  0.00  0.00     0.251 C 
HETATM    4  O           1     -23.567  -4.579 -10.163  0.00  0.00    -0.271 OA
ENDROOT
BRANCH   1   5
HETATM    5  C           1     -21.603  -5.001  -8.350  0.00  0.00     0.210 C 
BRANCH   5   6
HETATM    6  C           1     -22.263  -4.131  -7.308  0.00  0.00     0.198 C 
HETATM    7  O           1     -21.737  -3.048  -6.973  0.00  0.00    -0.646 OA
HETATM    8  O           1     -23.336  -4.494  -6.780  0.00  0.00    -0.646 OA
ENDBRANCH   5   6
BRANCH   5   9
HETATM    9  C           1     -20.238  -5.451  -7.845  0.00  0.00     0.217 C 
BRANCH   9  10
HETATM   10  O           1     -20.358  -6.700  -7.220  0.00  0.00    -0.287 OA
BRANCH  10  11
HETATM   11  P           1     -20.568  -6.674  -5.619  0.00  0.00     0.406 P 
HETATM   12  O           1     -20.117  -5.372  -5.082  0.00  0.00    -0.624 OA
HETATM   13  O           1     -19.778  -7.762  -5.002  0.00  0.00    -0.624 OA
BRANCH  11  14
HETATM   14  O           1     -22.132  -6.885  -5.279  0.00  0.00    -0.300 OA
HETATM   15  H           1     -22.352  -7.722  -5.649  0.00  0.00     0.223 HD
ENDBRANCH  11  14
ENDBRANCH  10  11
ENDBRANCH   9  10
ENDBRANCH   5   9
ENDBRANCH   1   5
BRANCH   3  16
HETATM   16  C           1     -22.324  -3.302 -11.707  0.00  0.00     0.302 C 
BRANCH  16  17
HETATM   17  N           1     -21.209  -3.898 -12.514  0.00  0.00    -0.064 N 
HETATM   18  H           1     -20.380  -3.260 -12.487  0.00  0.00     0.275 HD
HETATM   19  H           1     -20.947  -4.826 -12.113  0.00  0.00     0.275 HD
HETATM   20  H           1     -21.522  -4.020 -13.502  0.00  0.00     0.275 HD
ENDBRANCH  16  17
BRANCH  16  21
HETATM   21  C           1     -23.617  -3.352 -12.512  0.00  0.00     0.153 C 
HETATM   22  C           1     -23.525  -2.377 -13.678  0.00  0.00     0.042 C 
BRANCH  21  23
HETATM   23  O           1     -23.811  -4.650 -13.003  0.00  0.00    -0.393 OA
HETATM   24  H           1     -24.640  -4.948 -12.668  0.00  0.00     0.210 HD
ENDBRANCH  21  23
ENDBRANCH  16  21
ENDBRANCH   3  16
TORSDOF 10
ENDMDL
MODEL 9
REMARK VINA RESULT:      -5.3      8.821     11.606
REMARK  10 active torsions:
REMARK  status: ('A' for Active; 'I' for Inactive)
REMARK    1  A    between atoms: N_3  and  C_12 
REMARK       I    between atoms: N_3  and  C_6 
REMARK    2  A    between atoms: C_6  and  C_15 
REMARK    3  A    between atoms: O_8  and  C_20 
REMARK    4  A    between atoms: O_8  and  P_14 
REMARK    5  A    between atoms: N_9  and  C_15 
REMARK    6  A    between atoms: O_11  and  P_14 
REMARK    7  A    between atoms: C_12  and  C_13 
REMARK    8  A    between atoms: C_12  and  C_20 
REMARK    9  A    between atoms: C_15  and  C_22 
REMARK   10  A    between atoms: C_22  and  O_23 
ROOT
HETATM    1  N           1     -26.121  -7.201 -18.730  0.00  0.00    -0.343 N 
HETATM    2  H           1     -26.711  -8.024 -18.758  0.00  0.00     0.163 HD
HETATM    3  C           1     -25.066  -7.088 -19.595  0.00  0.00     0.251 C 
HETATM    4  O           1     -24.361  -6.107 -19.563  0.00  0.00    -0.271 OA
ENDROOT
BRANCH   1   5
HETATM    5  C           1     -26.393  -6.145 -17.776  0.00  0.00     0.210 C 
BRANCH   5   6
HETATM    6  C           1     -25.960  -6.588 -16.399  0.00  0.00     0.198 C 
HETATM    7  O           1     -24.775  -6.427 -16.035  0.00  0.00    -0.646 OA
HETATM    8  O           1     -26.786  -7.114 -15.624  0.00  0.00    -0.646 OA
ENDBRANCH   5   6
BRANCH   5   9
HETATM    9  C           1     -27.886  -5.843 -17.766  0.00  0.00     0.217 C 
BRANCH   9  10
HETATM   10  O           1     -28.538  -6.678 -18.684  0.00  0.00    -0.287 OA
BRANCH  10  11
HETATM   11  P           1     -29.749  -7.570 -18.096  0.00  0.00     0.406 P 
HETATM   12  O           1     -30.243  -8.488 -19.145  0.00  0.00    -0.624 OA
HETATM   13  O           1     -30.849  -6.680 -17.661  0.00  0.00    -0.624 OA
BRANCH  11  14
HETATM   14  O           1     -29.220  -8.428 -16.834  0.00  0.00    -0.300 OA
HETATM   15  H           1     -28.283  -8.337 -16.852  0.00  0.00     0.223 HD
ENDBRANCH  11  14
ENDBRANCH  10  11
ENDBRANCH   9  10
ENDBRANCH   5   9
ENDBRANCH   1   5
BRANCH   3  16
HETATM   16  C           1     -24.783  -8.188 -20.589  0.00  0.00     0.302 C 
BRANCH  16  17
HETATM   17  N           1     -26.048  -8.547 -21.309  0.00  0.00    -0.064 N 
HETATM   18  H           1     -25.823  -8.822 -22.293  0.00  0.00     0.275 HD
HETATM   19  H           1     -26.510  -9.348 -20.822  0.00  0.00     0.275 HD
HETATM   20  H           1     -26.691  -7.725 -21.316  0.00  0.00     0.275 HD
ENDBRANCH  16  17
BRANCH  16  21
HETATM   21  C           1     -23.745  -7.708 -21.596  0.00  0.00     0.153 C 
HETATM   22  C           1     -22.467  -8.520 -21.431  0.00  0.00     0.042 C 
BRANCH  21  23
HETATM   23  O           1     -24.241  -7.878 -22.896  0.00  0.00    -0.393 OA
HETATM   24  H           1     -24.030  -8.758 -23.156  0.00  0.00     0.210 HD
ENDBRANCH  21  23
ENDBRANCH  16  21
ENDBRANCH   3  16
TORSDOF 10
ENDMDL
