MODEL 1
REMARK VINA RESULT:      -6.3      0.000      0.000
REMARK  9 active torsions:
REMARK  status: ('A' for Active; 'I' for Inactive)
REMARK       I    between atoms: N_4  and  C_21 
REMARK    1  A    between atoms: C_5  and  C_21 
REMARK    2  A    between atoms: C_5  and  C_11 
REMARK    3  A    between atoms: N_6  and  C_12 
REMARK    4  A    between atoms: C_10  and  C_12 
REMARK    5  A    between atoms: C_10  and  C_13 
REMARK    6  A    between atoms: C_11  and  C_18 
REMARK    7  A    between atoms: C_11  and  N_23 
REMARK    8  A    between atoms: C_12  and  C_20 
REMARK    9  A    between atoms: C_13  and  S_19 
REMARK       I    between atoms: C_20  and  N_23 
ROOT
HETATM    1  O           1     -34.238  -1.792 -11.572  0.00  0.00    -0.271 OA
HETATM    2  H           1     -35.450  -2.154 -14.442  0.00  0.00     0.163 HD
HETATM    3  C           1     -34.526  -2.354 -12.601  0.00  0.00     0.249 C 
HETATM    4  N           1     -35.209  -1.683 -13.580  0.00  0.00    -0.344 N 
ENDROOT
BRANCH   4   5
HETATM    5  C           1     -35.586  -0.297 -13.381  0.00  0.00     0.194 C 
BRANCH   5   6
HETATM    6  C           1     -35.390   0.473 -14.680  0.00  0.00     0.138 C 
BRANCH   6   7
HETATM    7  C           1     -35.608  -0.452 -15.852  0.00  0.00     0.217 C 
HETATM    8  O           1     -34.697  -1.134 -16.260  0.00  0.00    -0.274 OA
HETATM    9  N           1     -36.835  -0.518 -16.453  0.00  0.00    -0.370 N 
HETATM   10  H           1     -37.597   0.053 -16.112  0.00  0.00     0.159 HD
HETATM   11  H           1     -36.980  -1.139 -17.240  0.00  0.00     0.159 HD
ENDBRANCH   6   7
ENDBRANCH   5   6
BRANCH   5  12
HETATM   12  C           1     -37.036  -0.226 -12.966  0.00  0.00     0.197 C 
HETATM   13  O           1     -37.918  -0.737 -13.689  0.00  0.00    -0.646 OA
HETATM   14  O           1     -37.353   0.342 -11.899  0.00  0.00    -0.646 OA
ENDBRANCH   5  12
ENDBRANCH   4   5
BRANCH   3  15
HETATM   15  C           1     -34.133  -3.797 -12.808  0.00  0.00     0.275 C 
BRANCH  15  16
HETATM   16  N           1     -33.833  -4.029 -14.260  0.00  0.00    -0.066 N 
HETATM   17  H           1     -34.663  -3.759 -14.835  0.00  0.00     0.275 HD
HETATM   18  H           1     -33.011  -3.450 -14.542  0.00  0.00     0.275 HD
HETATM   19  H           1     -33.617  -5.040 -14.413  0.00  0.00     0.275 HD
ENDBRANCH  15  16
BRANCH  15  20
HETATM   20  C           1     -32.896  -4.111 -11.978  0.00  0.00     0.053 C 
BRANCH  20  21
HETATM   21  C           1     -33.062  -5.470 -11.311  0.00  0.00     0.076 C 
BRANCH  21  22
HETATM   22  S           1     -34.712  -5.580 -10.565  0.00  0.00    -0.173 SA
HETATM   23  C           1     -34.644  -7.354 -10.190  0.00  0.00     0.089 C 
ENDBRANCH  21  22
ENDBRANCH  20  21
ENDBRANCH  15  20
ENDBRANCH   3  15
TORSDOF 9
ENDMDL
MODEL 2
REMARK VINA RESULT:      -6.0      1.919      2.996
REMARK  9 active torsions:
REMARK  status: ('A' for Active; 'I' for Inactive)
REMARK       I    between atoms: N_4  and  C_21 
REMARK    1  A    between atoms: C_5  and  C_21 
REMARK    2  A    between atoms: C_5  and  C_11 
REMARK    3  A    between atoms: N_6  and  C_12 
REMARK    4  A    between atoms: C_10  and  C_12 
REMARK    5  A    between atoms: C_10  and  C_13 
REMARK    6  A    between atoms: C_11  and  C_18 
REMARK    7  A    between atoms: C_11  and  N_23 
REMARK    8  A    between atoms: C_12  and  C_20 
REMARK    9  A    between atoms: C_13  and  S_19 
REMARK       I    between atoms: C_20  and  N_23 
ROOT
HETATM    1  O           1     -36.651  -1.139 -12.810  0.00  0.00    -0.271 OA
HETATM    2  H           1     -33.928  -0.426 -14.195  0.00  0.00     0.163 HD
HETATM    3  C           1     -35.453  -1.057 -12.947  0.00  0.00     0.249 C 
HETATM    4  N           1     -34.931  -0.494 -14.081  0.00  0.00    -0.344 N 
ENDROOT
BRANCH   4   5
HETATM    5  C           1     -35.815   0.005 -15.117  0.00  0.00     0.194 C 
BRANCH   5   6
HETATM    6  C           1     -35.392   1.414 -15.508  0.00  0.00     0.138 C 
BRANCH   6   7
HETATM    7  C           1     -36.543   2.115 -16.188  0.00  0.00     0.217 C 
HETATM    8  O           1     -36.338   3.093 -16.867  0.00  0.00    -0.274 OA
HETATM    9  N           1     -37.818   1.644 -16.034  0.00  0.00    -0.370 N 
HETATM   10  H           1     -37.990   0.825 -15.465  0.00  0.00     0.159 HD
HETATM   11  H           1     -38.590   2.114 -16.490  0.00  0.00     0.159 HD
ENDBRANCH   6   7
ENDBRANCH   5   6
BRANCH   5  12
HETATM   12  C           1     -35.734  -0.900 -16.322  0.00  0.00     0.197 C 
HETATM   13  O           1     -36.677  -0.935 -17.141  0.00  0.00    -0.646 OA
HETATM   14  O           1     -34.723  -1.612 -16.502  0.00  0.00    -0.646 OA
ENDBRANCH   5  12
ENDBRANCH   4   5
BRANCH   3  15
HETATM   15  C           1     -34.534  -1.576 -11.869  0.00  0.00     0.275 C 
BRANCH  15  16
HETATM   16  N           1     -35.244  -1.545 -10.548  0.00  0.00    -0.066 N 
HETATM   17  H           1     -36.271  -1.430 -10.707  0.00  0.00     0.275 HD
HETATM   18  H           1     -35.069  -2.439 -10.038  0.00  0.00     0.275 HD
HETATM   19  H           1     -34.888  -0.744  -9.980  0.00  0.00     0.275 HD
ENDBRANCH  15  16
BRANCH  15  20
HETATM   20  C           1     -34.128  -3.008 -12.193  0.00  0.00     0.053 C 
BRANCH  20  21
HETATM   21  C           1     -33.359  -3.596 -11.018  0.00  0.00     0.076 C 
BRANCH  21  22
HETATM   22  S           1     -34.023  -5.237 -10.619  0.00  0.00    -0.173 SA
HETATM   23  C           1     -34.868  -5.501 -12.204  0.00  0.00     0.089 C 
ENDBRANCH  21  22
ENDBRANCH  20  21
ENDBRANCH  15  20
ENDBRANCH   3  15
TORSDOF 9
ENDMDL
MODEL 3
REMARK VINA RESULT:      -5.8     11.997     13.855
REMARK  9 active torsions:
REMARK  status: ('A' for Active; 'I' for Inactive)
REMARK       I    between atoms: N_4  and  C_21 
REMARK    1  A    between atoms: C_5  and  C_21 
REMARK    2  A    between atoms: C_5  and  C_11 
REMARK    3  A    between atoms: N_6  and  C_12 
REMARK    4  A    between atoms: C_10  and  C_12 
REMARK    5  A    between atoms: C_10  and  C_13 
REMARK    6  A    between atoms: C_11  and  C_18 
REMARK    7  A    between atoms: C_11  and  N_23 
REMARK    8  A    between atoms: C_12  and  C_20 
REMARK    9  A    between atoms: C_13  and  S_19 
REMARK       I    between atoms: C_20  and  N_23 
ROOT
HETATM    1  O           1     -21.225  -3.659  -8.394  0.00  0.00    -0.271 OA
HETATM    2  H           1     -24.220  -4.589  -8.459  0.00  0.00     0.163 HD
HETATM    3  C           1     -22.252  -4.150  -7.991  0.00  0.00     0.249 C 
HETATM    4  N           1     -23.359  -4.177  -8.797  0.00  0.00    -0.344 N 
ENDROOT
BRANCH   4   5
HETATM    5  C           1     -23.298  -3.617 -10.133  0.00  0.00     0.194 C 
BRANCH   5   6
HETATM    6  C           1     -22.699  -4.643 -11.086  0.00  0.00     0.138 C 
BRANCH   6   7
HETATM    7  C           1     -21.649  -3.981 -11.943  0.00  0.00     0.217 C 
HETATM    8  O           1     -20.503  -3.931 -11.563  0.00  0.00    -0.274 OA
HETATM    9  N           1     -21.993  -3.439 -13.151  0.00  0.00    -0.370 N 
HETATM   10  H           1     -22.953  -3.481 -13.470  0.00  0.00     0.159 HD
HETATM   11  H           1     -21.288  -2.995 -13.727  0.00  0.00     0.159 HD
ENDBRANCH   6   7
ENDBRANCH   5   6
BRANCH   5  12
HETATM   12  C           1     -24.691  -3.257 -10.589  0.00  0.00     0.197 C 
HETATM   13  O           1     -25.608  -3.121  -9.751  0.00  0.00    -0.646 OA
HETATM   14  O           1     -24.926  -3.094 -11.806  0.00  0.00    -0.646 OA
ENDBRANCH   5  12
ENDBRANCH   4   5
BRANCH   3  15
HETATM   15  C           1     -22.316  -4.734  -6.601  0.00  0.00     0.275 C 
BRANCH  15  16
HETATM   16  N           1     -23.729  -5.129  -6.289  0.00  0.00    -0.066 N 
HETATM   17  H           1     -24.011  -5.927  -6.903  0.00  0.00     0.275 HD
HETATM   18  H           1     -23.796  -5.420  -5.288  0.00  0.00     0.275 HD
HETATM   19  H           1     -24.363  -4.317  -6.459  0.00  0.00     0.275 HD
ENDBRANCH  15  16
BRANCH  15  20
HETATM   20  C           1     -21.417  -5.960  -6.523  0.00  0.00     0.053 C 
BRANCH  20  21
HETATM   21  C           1     -21.014  -6.204  -5.074  0.00  0.00     0.076 C 
BRANCH  21  22
HETATM   22  S           1     -21.569  -7.852  -4.559  0.00  0.00    -0.173 SA
HETATM   23  C           1     -19.917  -8.521  -4.216  0.00  0.00     0.089 C 
ENDBRANCH  21  22
ENDBRANCH  20  21
ENDBRANCH  15  20
ENDBRANCH   3  15
TORSDOF 9
ENDMDL
MODEL 4
REMARK VINA RESULT:      -5.6      8.984     10.527
REMARK  9 active torsions:
REMARK  status: ('A' for Active; 'I' for Inactive)
REMARK       I    between atoms: N_4  and  C_21 
REMARK    1  A    between atoms: C_5  and  C_21 
REMARK    2  A    between atoms: C_5  and  C_11 
REMARK    3  A    between atoms: N_6  and  C_12 
REMARK    4  A    between atoms: C_10  and  C_12 
REMARK    5  A    between atoms: C_10  and  C_13 
REMARK    6  A    between atoms: C_11  and  C_18 
REMARK    7  A    between atoms: C_11  and  N_23 
REMARK    8  A    between atoms: C_12  and  C_20 
REMARK    9  A    between atoms: C_13  and  S_19 
REMARK       I    between atoms: C_20  and  N_23 
ROOT
HETATM    1  O           1     -27.644  -6.119 -16.078  0.00  0.00    -0.271 OA
HETATM    2  H           1     -27.885  -6.992 -19.082  0.00  0.00     0.163 HD
HETATM    3  C           1     -27.277  -6.392 -17.196  0.00  0.00     0.249 C 
HETATM    4  N           1     -28.192  -6.764 -18.145  0.00  0.00    -0.344 N 
ENDROOT
BRANCH   4   5
HETATM    5  C           1     -29.600  -6.830 -17.808  0.00  0.00     0.194 C 
BRANCH   5   6
HETATM    6  C           1     -30.247  -5.475 -18.061  0.00  0.00     0.138 C 
BRANCH   6   7
HETATM    7  C           1     -30.852  -4.958 -16.779  0.00  0.00     0.217 C 
HETATM    8  O           1     -31.613  -4.020 -16.806  0.00  0.00    -0.274 OA
HETATM    9  N           1     -30.538  -5.550 -15.586  0.00  0.00    -0.370 N 
HETATM   10  H           1     -29.901  -6.335 -15.564  0.00  0.00     0.159 HD
HETATM   11  H           1     -30.945  -5.203 -14.726  0.00  0.00     0.159 HD
ENDBRANCH   6   7
ENDBRANCH   5   6
BRANCH   5  12
HETATM   12  C           1     -30.272  -7.877 -18.663  0.00  0.00     0.197 C 
HETATM   13  O           1     -29.587  -8.757 -19.227  0.00  0.00    -0.646 OA
HETATM   14  O           1     -31.513  -7.863 -18.807  0.00  0.00    -0.646 OA
ENDBRANCH   5  12
ENDBRANCH   4   5
BRANCH   3  15
HETATM   15  C           1     -25.811  -6.323 -17.548  0.00  0.00     0.275 C 
BRANCH  15  16
HETATM   16  N           1     -25.051  -7.312 -16.715  0.00  0.00    -0.066 N 
HETATM   17  H           1     -24.026  -7.129 -16.805  0.00  0.00     0.275 HD
HETATM   18  H           1     -25.335  -7.216 -15.714  0.00  0.00     0.275 HD
HETATM   19  H           1     -25.263  -8.281 -17.045  0.00  0.00     0.275 HD
ENDBRANCH  15  16
BRANCH  15  20
HETATM   20  C           1     -25.626  -6.653 -19.023  0.00  0.00     0.053 C 
BRANCH  20  21
HETATM   21  C           1     -24.219  -7.190 -19.250  0.00  0.00     0.076 C 
BRANCH  21  22
HETATM   22  S           1     -24.126  -7.973 -20.884  0.00  0.00    -0.173 SA
HETATM   23  C           1     -25.918  -8.107 -21.144  0.00  0.00     0.089 C 
ENDBRANCH  21  22
ENDBRANCH  20  21
ENDBRANCH  15  20
ENDBRANCH   3  15
TORSDOF 9
ENDMDL
MODEL 5
REMARK VINA RESULT:      -5.5     12.873     15.615
REMARK  9 active torsions:
REMARK  status: ('A' for Active; 'I' for Inactive)
REMARK       I    between atoms: N_4  and  C_21 
REMARK    1  A    between atoms: C_5  and  C_21 
REMARK    2  A    between atoms: C_5  and  C_11 
REMARK    3  A    between atoms: N_6  and  C_12 
REMARK    4  A    between atoms: C_10  and  C_12 
REMARK    5  A    between atoms: C_10  and  C_13 
REMARK    6  A    between atoms: C_11  and  C_18 
REMARK    7  A    between atoms: C_11  and  N_23 
REMARK    8  A    between atoms: C_12  and  C_20 
REMARK    9  A    between atoms: C_13  and  S_19 
REMARK       I    between atoms: C_20  and  N_23 
ROOT
HETATM    1  O           1     -21.770  -3.075  -8.303  0.00  0.00    -0.271 OA
HETATM    2  H           1     -22.511  -5.853  -7.049  0.00  0.00     0.163 HD
HETATM    3  C           1     -22.393  -4.096  -8.137  0.00  0.00     0.249 C 
HETATM    4  N           1     -21.989  -4.997  -7.188  0.00  0.00    -0.344 N 
ENDROOT
BRANCH   4   5
HETATM    5  C           1     -20.816  -4.726  -6.382  0.00  0.00     0.194 C 
BRANCH   5   6
HETATM    6  C           1     -20.972  -5.388  -5.019  0.00  0.00     0.138 C 
BRANCH   6   7
HETATM    7  C           1     -22.019  -6.471  -5.102  0.00  0.00     0.217 C 
HETATM    8  O           1     -23.187  -6.194  -4.964  0.00  0.00    -0.274 OA
HETATM    9  N           1     -21.647  -7.767  -5.334  0.00  0.00    -0.370 N 
HETATM   10  H           1     -20.668  -7.999  -5.450  0.00  0.00     0.159 HD
HETATM   11  H           1     -22.349  -8.494  -5.390  0.00  0.00     0.159 HD
ENDBRANCH   6   7
ENDBRANCH   5   6
BRANCH   5  12
HETATM   12  C           1     -19.593  -5.277  -7.074  0.00  0.00     0.197 C 
HETATM   13  O           1     -19.488  -6.507  -7.272  0.00  0.00    -0.646 OA
HETATM   14  O           1     -18.686  -4.504  -7.450  0.00  0.00    -0.646 OA
ENDBRANCH   5  12
ENDBRANCH   4   5
BRANCH   3  15
HETATM   15  C           1     -23.615  -4.380  -8.976  0.00  0.00     0.275 C 
BRANCH  15  16
HETATM   16  N           1     -24.587  -3.246  -8.842  0.00  0.00    -0.066 N 
HETATM   17  H           1     -24.463  -2.583  -9.640  0.00  0.00     0.275 HD
HETATM   18  H           1     -25.562  -3.621  -8.850  0.00  0.00     0.275 HD
HETATM   19  H           1     -24.415  -2.744  -7.941  0.00  0.00     0.275 HD
ENDBRANCH  15  16
BRANCH  15  20
HETATM   20  C           1     -23.206  -4.526 -10.436  0.00  0.00     0.053 C 
BRANCH  20  21
HETATM   21  C           1     -24.127  -3.684 -11.309  0.00  0.00     0.076 C 
BRANCH  21  22
HETATM   22  S           1     -23.153  -2.859 -12.598  0.00  0.00    -0.173 SA
HETATM   23  C           1     -21.567  -2.918 -11.719  0.00  0.00     0.089 C 
ENDBRANCH  21  22
ENDBRANCH  20  21
ENDBRANCH  15  20
ENDBRANCH   3  15
TORSDOF 9
ENDMDL
MODEL 6
REMARK VINA RESULT:      -5.4     12.413     14.362
REMARK  9 active torsions:
REMARK  status: ('A' for Active; 'I' for Inactive)
REMARK       I    between atoms: N_4  and  C_21 
REMARK    1  A    between atoms: C_5  and  C_21 
REMARK    2  A    between atoms: C_5  and  C_11 
REMARK    3  A    between atoms: N_6  and  C_12 
REMARK    4  A    between atoms: C_10  and  C_12 
REMARK    5  A    between atoms: C_10  and  C_13 
REMARK    6  A    between atoms: C_11  and  C_18 
REMARK    7  A    between atoms: C_11  and  N_23 
REMARK    8  A    between atoms: C_12  and  C_20 
REMARK    9  A    between atoms: C_13  and  S_19 
REMARK       I    between atoms: C_20  and  N_23 
ROOT
HETATM    1  O           1     -19.845  -4.933  -9.800  0.00  0.00    -0.271 OA
HETATM    2  H           1     -22.584  -3.491  -9.292  0.00  0.00     0.163 HD
HETATM    3  C           1     -20.693  -4.325  -9.191  0.00  0.00     0.249 C 
HETATM    4  N           1     -21.874  -4.000  -9.802  0.00  0.00    -0.344 N 
ENDROOT
BRANCH   4   5
HETATM    5  C           1     -22.108  -4.385 -11.180  0.00  0.00     0.194 C 
BRANCH   5   6
HETATM    6  C           1     -23.536  -4.893 -11.329  0.00  0.00     0.138 C 
BRANCH   6   7
HETATM    7  C           1     -24.453  -4.086 -10.442  0.00  0.00     0.217 C 
HETATM    8  O           1     -24.583  -2.900 -10.628  0.00  0.00    -0.274 OA
HETATM    9  N           1     -25.137  -4.699  -9.428  0.00  0.00    -0.370 N 
HETATM   10  H           1     -25.029  -5.693  -9.272  0.00  0.00     0.159 HD
HETATM   11  H           1     -25.752  -4.157  -8.833  0.00  0.00     0.159 HD
ENDBRANCH   6   7
ENDBRANCH   5   6
BRANCH   5  12
HETATM   12  C           1     -21.902  -3.189 -12.077  0.00  0.00     0.197 C 
HETATM   13  O           1     -22.389  -3.179 -13.228  0.00  0.00    -0.646 OA
HETATM   14  O           1     -21.244  -2.208 -11.668  0.00  0.00    -0.646 OA
ENDBRANCH   5  12
ENDBRANCH   4   5
BRANCH   3  15
HETATM   15  C           1     -20.449  -3.924  -7.757  0.00  0.00     0.275 C 
BRANCH  15  16
HETATM   16  N           1     -21.699  -3.321  -7.188  0.00  0.00    -0.066 N 
HETATM   17  H           1     -21.717  -2.297  -7.393  0.00  0.00     0.275 HD
HETATM   18  H           1     -22.534  -3.777  -7.621  0.00  0.00     0.275 HD
HETATM   19  H           1     -21.718  -3.470  -6.154  0.00  0.00     0.275 HD
ENDBRANCH  15  16
BRANCH  15  20
HETATM   20  C           1     -20.063  -5.152  -6.944  0.00  0.00     0.053 C 
BRANCH  20  21
HETATM   21  C           1     -20.393  -4.915  -5.476  0.00  0.00     0.076 C 
BRANCH  21  22
HETATM   22  S           1     -21.433  -6.268  -4.861  0.00  0.00    -0.173 SA
HETATM   23  C           1     -20.236  -7.597  -5.173  0.00  0.00     0.089 C 
ENDBRANCH  21  22
ENDBRANCH  20  21
ENDBRANCH  15  20
ENDBRANCH   3  15
TORSDOF 9
ENDMDL
MODEL 7
REMARK VINA RESULT:      -5.3      3.314      6.356
REMARK  9 active torsions:
REMARK  status: ('A' for Active; 'I' for Inactive)
REMARK       I    between atoms: N_4  and  C_21 
REMARK    1  A    between atoms: C_5  and  C_21 
REMARK    2  A    between atoms: C_5  and  C_11 
REMARK    3  A    between atoms: N_6  and  C_12 
REMARK    4  A    between atoms: C_10  and  C_12 
REMARK    5  A    between atoms: C_10  and  C_13 
REMARK    6  A    between atoms: C_11  and  C_18 
REMARK    7  A    between atoms: C_11  and  N_23 
REMARK    8  A    between atoms: C_12  and  C_20 
REMARK    9  A    between atoms: C_13  and  S_19 
REMARK       I    between atoms: C_20  and  N_23 
ROOT
HETATM    1  O           1     -34.156  -1.779 -10.156  0.00  0.00    -0.271 OA
HETATM    2  H           1     -36.293  -3.359 -11.823  0.00  0.00     0.163 HD
HETATM    3  C           1     -35.196  -1.980 -10.738  0.00  0.00     0.249 C 
HETATM    4  N           1     -35.422  -3.191 -11.336  0.00  0.00    -0.344 N 
ENDROOT
BRANCH   4   5
HETATM    5  C           1     -34.416  -4.232 -11.270  0.00  0.00     0.194 C 
BRANCH   5   6
HETATM    6  C           1     -35.082  -5.593 -11.426  0.00  0.00     0.138 C 
BRANCH   6   7
HETATM    7  C           1     -34.360  -6.609 -10.576  0.00  0.00     0.217 C 
HETATM    8  O           1     -34.886  -7.047  -9.581  0.00  0.00    -0.274 OA
HETATM    9  N           1     -33.110  -7.035 -10.933  0.00  0.00    -0.370 N 
HETATM   10  H           1     -32.669  -6.668 -11.767  0.00  0.00     0.159 HD
HETATM   11  H           1     -32.625  -7.717 -10.363  0.00  0.00     0.159 HD
ENDBRANCH   6   7
ENDBRANCH   5   6
BRANCH   5  12
HETATM   12  C           1     -33.413  -4.031 -12.380  0.00  0.00     0.197 C 
HETATM   13  O           1     -33.792  -3.627 -13.500  0.00  0.00    -0.646 OA
HETATM   14  O           1     -32.202  -4.269 -12.178  0.00  0.00    -0.646 OA
ENDBRANCH   5  12
ENDBRANCH   4   5
BRANCH   3  15
HETATM   15  C           1     -36.243  -0.896 -10.807  0.00  0.00     0.275 C 
BRANCH  15  16
HETATM   16  N           1     -36.213  -0.091  -9.542  0.00  0.00    -0.066 N 
HETATM   17  H           1     -35.314   0.438  -9.486  0.00  0.00     0.275 HD
HETATM   18  H           1     -37.013   0.581  -9.538  0.00  0.00     0.275 HD
HETATM   19  H           1     -36.293  -0.731  -8.720  0.00  0.00     0.275 HD
ENDBRANCH  15  16
BRANCH  15  20
HETATM   20  C           1     -35.955   0.014 -11.993  0.00  0.00     0.053 C 
BRANCH  20  21
HETATM   21  C           1     -36.971  -0.252 -13.097  0.00  0.00     0.076 C 
BRANCH  21  22
HETATM   22  S           1     -36.290   0.287 -14.690  0.00  0.00    -0.173 SA
HETATM   23  C           1     -34.727   0.933 -14.031  0.00  0.00     0.089 C 
ENDBRANCH  21  22
ENDBRANCH  20  21
ENDBRANCH  15  20
ENDBRANCH   3  15
TORSDOF 9
ENDMDL
MODEL 8
REMARK VINA RESULT:      -5.0     15.049     17.396
REMARK  9 active torsions:
REMARK  status: ('A' for Active; 'I' for Inactive)
REMARK       I    between atoms: N_4  and  C_21 
REMARK    1  A    between atoms: C_5  and  C_21 
REMARK    2  A    between atoms: C_5  and  C_11 
REMARK    3  A    between atoms: N_6  and  C_12 
REMARK    4  A    between atoms: C_10  and  C_12 
REMARK    5  A    between atoms: C_10  and  C_13 
REMARK    6  A    between atoms: C_11  and  C_18 
REMARK    7  A    between atoms: C_11  and  N_23 
REMARK    8  A    between atoms: C_12  and  C_20 
REMARK    9  A    between atoms: C_13  and  S_19 
REMARK       I    between atoms: C_20  and  N_23 
ROOT
HETATM    1  O           1     -22.623  -5.361  -6.007  0.00  0.00    -0.271 OA
HETATM    2  H           1     -19.885  -6.216  -4.739  0.00  0.00     0.163 HD
HETATM    3  C           1     -21.430  -5.362  -5.819  0.00  0.00     0.249 C 
HETATM    4  N           1     -20.884  -6.215  -4.897  0.00  0.00    -0.344 N 
ENDROOT
BRANCH   4   5
HETATM    5  C           1     -21.737  -7.118  -4.148  0.00  0.00     0.194 C 
BRANCH   5   6
HETATM    6  C           1     -21.302  -8.555  -4.402  0.00  0.00     0.138 C 
BRANCH   6   7
HETATM    7  C           1     -19.842  -8.579  -4.784  0.00  0.00     0.217 C 
HETATM    8  O           1     -19.509  -8.307  -5.913  0.00  0.00    -0.274 OA
HETATM    9  N           1     -18.896  -8.909  -3.853  0.00  0.00    -0.370 N 
HETATM   10  H           1     -19.175  -9.137  -2.907  0.00  0.00     0.159 HD
HETATM   11  H           1     -17.917  -8.925  -4.109  0.00  0.00     0.159 HD
ENDBRANCH   6   7
ENDBRANCH   5   6
BRANCH   5  12
HETATM   12  C           1     -21.625  -6.808  -2.676  0.00  0.00     0.197 C 
HETATM   13  O           1     -20.827  -7.452  -1.961  0.00  0.00    -0.646 OA
HETATM   14  O           1     -22.328  -5.907  -2.172  0.00  0.00    -0.646 OA
ENDBRANCH   5  12
ENDBRANCH   4   5
BRANCH   3  15
HETATM   15  C           1     -20.542  -4.423  -6.597  0.00  0.00     0.275 C 
BRANCH  15  16
HETATM   16  N           1     -19.389  -5.190  -7.174  0.00  0.00    -0.066 N 
HETATM   17  H           1     -18.778  -4.542  -7.722  0.00  0.00     0.275 HD
HETATM   18  H           1     -18.835  -5.620  -6.400  0.00  0.00     0.275 HD
HETATM   19  H           1     -19.751  -5.943  -7.803  0.00  0.00     0.275 HD
ENDBRANCH  15  16
BRANCH  15  20
HETATM   20  C           1     -21.342  -3.785  -7.725  0.00  0.00     0.053 C 
BRANCH  20  21
HETATM   21  C           1     -20.967  -4.441  -9.048  0.00  0.00     0.076 C 
BRANCH  21  22
HETATM   22  S           1     -22.368  -4.334 -10.196  0.00  0.00    -0.173 SA
HETATM   23  C           1     -21.614  -3.123 -11.318  0.00  0.00     0.089 C 
ENDBRANCH  21  22
ENDBRANCH  20  21
ENDBRANCH  15  20
ENDBRANCH   3  15
TORSDOF 9
ENDMDL
MODEL 9
REMARK VINA RESULT:      -4.9      3.590      6.295
REMARK  9 active torsions:
REMARK  status: ('A' for Active; 'I' for Inactive)
REMARK       I    between atoms: N_4  and  C_21 
REMARK    1  A    between atoms: C_5  and  C_21 
REMARK    2  A    between atoms: C_5  and  C_11 
REMARK    3  A    between atoms: N_6  and  C_12 
REMARK    4  A    between atoms: C_10  and  C_12 
REMARK    5  A    between atoms: C_10  and  C_13 
REMARK    6  A    between atoms: C_11  and  C_18 
REMARK    7  A    between atoms: C_11  and  N_23 
REMARK    8  A    between atoms: C_12  and  C_20 
REMARK    9  A    between atoms: C_13  and  S_19 
REMARK       I    between atoms: C_20  and  N_23 
ROOT
HETATM    1  O           1     -34.273  -1.709  -9.915  0.00  0.00    -0.271 OA
HETATM    2  H           1     -36.019  -2.928 -12.219  0.00  0.00     0.163 HD
HETATM    3  C           1     -35.145  -1.761 -10.749  0.00  0.00     0.249 C 
HETATM    4  N           1     -35.288  -2.884 -11.520  0.00  0.00    -0.344 N 
ENDROOT
BRANCH   4   5
HETATM    5  C           1     -34.394  -4.011 -11.334  0.00  0.00     0.194 C 
BRANCH   5   6
HETATM    6  C           1     -35.196  -5.305 -11.367  0.00  0.00     0.138 C 
BRANCH   6   7
HETATM    7  C           1     -34.479  -6.363 -10.565  0.00  0.00     0.217 C 
HETATM    8  O           1     -34.940  -6.739  -9.514  0.00  0.00    -0.274 OA
HETATM    9  N           1     -33.307  -6.896 -11.029  0.00  0.00    -0.370 N 
HETATM   10  H           1     -32.921  -6.581 -11.909  0.00  0.00     0.159 HD
HETATM   11  H           1     -32.826  -7.606 -10.490  0.00  0.00     0.159 HD
ENDBRANCH   6   7
ENDBRANCH   5   6
BRANCH   5  12
HETATM   12  C           1     -33.368  -4.024 -12.440  0.00  0.00     0.197 C 
HETATM   13  O           1     -33.707  -3.749 -13.611  0.00  0.00    -0.646 OA
HETATM   14  O           1     -32.178  -4.309 -12.185  0.00  0.00    -0.646 OA
ENDBRANCH   5  12
ENDBRANCH   4   5
BRANCH   3  15
HETATM   15  C           1     -36.075  -0.589 -10.943  0.00  0.00     0.275 C 
BRANCH  15  16
HETATM   16  N           1     -36.902  -0.806 -12.175  0.00  0.00    -0.066 N 
HETATM   17  H           1     -36.399  -0.419 -13.005  0.00  0.00     0.275 HD
HETATM   18  H           1     -37.062  -1.829 -12.311  0.00  0.00     0.275 HD
HETATM   19  H           1     -37.822  -0.322 -12.068  0.00  0.00     0.275 HD
ENDBRANCH  15  16
BRANCH  15  20
HETATM   20  C           1     -36.992  -0.463  -9.733  0.00  0.00     0.053 C 
BRANCH  20  21
HETATM   21  C           1     -37.108   1.002  -9.333  0.00  0.00     0.076 C 
BRANCH  21  22
HETATM   22  S           1     -36.992   1.149  -7.529  0.00  0.00    -0.173 SA
HETATM   23  C           1     -38.075  -0.257  -7.144  0.00  0.00     0.089 C 
ENDBRANCH  21  22
ENDBRANCH  20  21
ENDBRANCH  15  20
ENDBRANCH   3  15
TORSDOF 9
ENDMDL
