MODEL 1
REMARK VINA RESULT:      -7.8      0.000      0.000
REMARK  9 active torsions:
REMARK  status: ('A' for Active; 'I' for Inactive)
REMARK    1  A    between atoms: O_1  and  C_18 
REMARK    2  A    between atoms: N_2  and  C_6 
REMARK    3  A    between atoms: O_3  and  C_4 
REMARK    4  A    between atoms: C_4  and  C_6 
REMARK    5  A    between atoms: C_6  and  C_17 
REMARK    6  A    between atoms: C_9  and  C_14 
REMARK    7  A    between atoms: C_12  and  C_23 
REMARK    8  A    between atoms: C_14  and  C_23 
REMARK    9  A    between atoms: N_16  and  C_23 
REMARK       I    between atoms: N_16  and  C_17 
ROOT
HETATM    1  C           1     -35.982  -1.168 -12.264  0.00  0.00     0.189 C 
ENDROOT
BRANCH   1   2
HETATM    2  C           1     -36.871  -0.490 -11.252  0.00  0.00     0.197 C 
HETATM    3  O           1     -36.406   0.400 -10.507  0.00  0.00    -0.646 OA
HETATM    4  O           1     -38.074  -0.816 -11.159  0.00  0.00    -0.646 OA
ENDBRANCH   1   2
BRANCH   1   5
HETATM    5  C           1     -34.587  -1.346 -11.678  0.00  0.00     0.074 C 
BRANCH   5   6
HETATM    6  C           1     -34.318  -2.802 -11.463  0.00  0.00    -0.056 A 
HETATM    7  C           1     -35.329  -3.634 -10.980  0.00  0.00     0.010 A 
HETATM    8  C           1     -35.079  -4.991 -10.779  0.00  0.00     0.037 A 
HETATM    9  C           1     -33.818  -5.518 -11.063  0.00  0.00     0.065 A 
HETATM   10  C           1     -32.808  -4.686 -11.547  0.00  0.00     0.037 A 
HETATM   11  C           1     -33.058  -3.328 -11.748  0.00  0.00     0.010 A 
BRANCH   9  12
HETATM   12  O           1     -33.575  -6.837 -10.869  0.00  0.00    -0.361 OA
HETATM   13  H           1     -32.810  -7.085 -11.415  0.00  0.00     0.217 HD
ENDBRANCH   9  12
ENDBRANCH   5   6
ENDBRANCH   1   5
BRANCH   1  14
HETATM   14  N           1     -35.903  -0.351 -13.460  0.00  0.00    -0.344 N 
HETATM   15  H           1     -36.180   0.622 -13.428  0.00  0.00     0.163 HD
HETATM   16  C           1     -35.452  -0.895 -14.632  0.00  0.00     0.251 C 
HETATM   17  O           1     -35.120  -2.057 -14.671  0.00  0.00    -0.271 OA
BRANCH  16  18
HETATM   18  C           1     -35.369  -0.045 -15.876  0.00  0.00     0.297 C 
BRANCH  18  19
HETATM   19  N           1     -36.207  -0.660 -16.957  0.00  0.00    -0.064 N 
HETATM   20  H           1     -37.083  -1.051 -16.541  0.00  0.00     0.275 HD
HETATM   21  H           1     -36.453   0.070 -17.664  0.00  0.00     0.275 HD
HETATM   22  H           1     -35.671  -1.427 -17.421  0.00  0.00     0.275 HD
ENDBRANCH  18  19
BRANCH  18  23
HETATM   23  C           1     -35.884   1.355 -15.571  0.00  0.00     0.206 C 
BRANCH  23  24
HETATM   24  O           1     -37.243   1.437 -15.902  0.00  0.00    -0.398 OA
HETATM   25  H           1     -37.665   0.688 -15.517  0.00  0.00     0.209 HD
ENDBRANCH  23  24
ENDBRANCH  18  23
ENDBRANCH  16  18
ENDBRANCH   1  14
TORSDOF 9
ENDMDL
MODEL 2
REMARK VINA RESULT:      -7.6      1.202      1.973
REMARK  9 active torsions:
REMARK  status: ('A' for Active; 'I' for Inactive)
REMARK    1  A    between atoms: O_1  and  C_18 
REMARK    2  A    between atoms: N_2  and  C_6 
REMARK    3  A    between atoms: O_3  and  C_4 
REMARK    4  A    between atoms: C_4  and  C_6 
REMARK    5  A    between atoms: C_6  and  C_17 
REMARK    6  A    between atoms: C_9  and  C_14 
REMARK    7  A    between atoms: C_12  and  C_23 
REMARK    8  A    between atoms: C_14  and  C_23 
REMARK    9  A    between atoms: N_16  and  C_23 
REMARK       I    between atoms: N_16  and  C_17 
ROOT
HETATM    1  C           1     -36.036  -0.814 -11.843  0.00  0.00     0.189 C 
ENDROOT
BRANCH   1   2
HETATM    2  C           1     -36.825   0.068 -10.908  0.00  0.00     0.197 C 
HETATM    3  O           1     -38.074   0.017 -10.905  0.00  0.00    -0.646 OA
HETATM    4  O           1     -36.229   0.849 -10.134  0.00  0.00    -0.646 OA
ENDBRANCH   1   2
BRANCH   1   5
HETATM    5  C           1     -34.678  -1.124 -11.227  0.00  0.00     0.074 C 
BRANCH   5   6
HETATM    6  C           1     -34.457  -2.604 -11.224  0.00  0.00    -0.056 A 
HETATM    7  C           1     -33.204  -3.122 -11.552  0.00  0.00     0.010 A 
HETATM    8  C           1     -32.997  -4.502 -11.549  0.00  0.00     0.037 A 
HETATM    9  C           1     -34.043  -5.363 -11.217  0.00  0.00     0.065 A 
HETATM   10  C           1     -35.296  -4.845 -10.889  0.00  0.00     0.037 A 
HETATM   11  C           1     -35.503  -3.465 -10.892  0.00  0.00     0.010 A 
BRANCH   9  12
HETATM   12  O           1     -33.843  -6.704 -11.214  0.00  0.00    -0.361 OA
HETATM   13  H           1     -34.320  -7.077 -10.454  0.00  0.00     0.217 HD
ENDBRANCH   9  12
ENDBRANCH   5   6
ENDBRANCH   1   5
BRANCH   1  14
HETATM   14  N           1     -35.848  -0.129 -13.108  0.00  0.00    -0.344 N 
HETATM   15  H           1     -35.033   0.455 -13.250  0.00  0.00     0.163 HD
HETATM   16  C           1     -36.770  -0.272 -14.108  0.00  0.00     0.251 C 
HETATM   17  O           1     -37.743  -0.969 -13.938  0.00  0.00    -0.271 OA
BRANCH  16  18
HETATM   18  C           1     -36.574   0.441 -15.423  0.00  0.00     0.297 C 
BRANCH  18  19
HETATM   19  N           1     -35.682   1.629 -15.219  0.00  0.00    -0.064 N 
HETATM   20  H           1     -34.684   1.321 -15.225  0.00  0.00     0.275 HD
HETATM   21  H           1     -35.839   2.318 -15.990  0.00  0.00     0.275 HD
HETATM   22  H           1     -35.902   2.077 -14.301  0.00  0.00     0.275 HD
ENDBRANCH  18  19
BRANCH  18  23
HETATM   23  C           1     -35.931  -0.509 -16.426  0.00  0.00     0.206 C 
BRANCH  23  24
HETATM   24  O           1     -35.310  -1.563 -15.741  0.00  0.00    -0.398 OA
HETATM   25  H           1     -35.885  -2.307 -15.803  0.00  0.00     0.209 HD
ENDBRANCH  23  24
ENDBRANCH  18  23
ENDBRANCH  16  18
ENDBRANCH   1  14
TORSDOF 9
ENDMDL
MODEL 3
REMARK VINA RESULT:      -6.7     11.480     13.345
REMARK  9 active torsions:
REMARK  status: ('A' for Active; 'I' for Inactive)
REMARK    1  A    between atoms: O_1  and  C_18 
REMARK    2  A    between atoms: N_2  and  C_6 
REMARK    3  A    between atoms: O_3  and  C_4 
REMARK    4  A    between atoms: C_4  and  C_6 
REMARK    5  A    between atoms: C_6  and  C_17 
REMARK    6  A    between atoms: C_9  and  C_14 
REMARK    7  A    between atoms: C_12  and  C_23 
REMARK    8  A    between atoms: C_14  and  C_23 
REMARK    9  A    between atoms: N_16  and  C_23 
REMARK       I    between atoms: N_16  and  C_17 
ROOT
HETATM    1  C           1     -22.980  -3.773 -10.037  0.00  0.00     0.189 C 
ENDROOT
BRANCH   1   2
HETATM    2  C           1     -24.459  -3.883  -9.767  0.00  0.00     0.197 C 
HETATM    3  O           1     -24.999  -5.009  -9.692  0.00  0.00    -0.646 OA
HETATM    4  O           1     -25.147  -2.850  -9.617  0.00  0.00    -0.646 OA
ENDBRANCH   1   2
BRANCH   1   5
HETATM    5  C           1     -22.282  -3.183  -8.817  0.00  0.00     0.074 C 
BRANCH   5   6
HETATM    6  C           1     -21.660  -4.284  -8.017  0.00  0.00    -0.056 A 
HETATM    7  C           1     -20.422  -4.805  -8.393  0.00  0.00     0.010 A 
HETATM    8  C           1     -19.841  -5.831  -7.648  0.00  0.00     0.037 A 
HETATM    9  C           1     -20.498  -6.335  -6.525  0.00  0.00     0.065 A 
HETATM   10  C           1     -21.736  -5.814  -6.149  0.00  0.00     0.037 A 
HETATM   11  C           1     -22.317  -4.787  -6.894  0.00  0.00     0.010 A 
BRANCH   9  12
HETATM   12  O           1     -19.934  -7.331  -5.799  0.00  0.00    -0.361 OA
HETATM   13  H           1     -19.941  -8.138  -6.341  0.00  0.00     0.217 HD
ENDBRANCH   9  12
ENDBRANCH   5   6
ENDBRANCH   1   5
BRANCH   1  14
HETATM   14  N           1     -22.762  -2.910 -11.182  0.00  0.00    -0.344 N 
HETATM   15  H           1     -22.404  -1.972 -11.048  0.00  0.00     0.163 HD
HETATM   16  C           1     -23.039  -3.362 -12.443  0.00  0.00     0.251 C 
HETATM   17  O           1     -23.466  -4.482 -12.603  0.00  0.00    -0.271 OA
BRANCH  16  18
HETATM   18  C           1     -22.812  -2.465 -13.634  0.00  0.00     0.297 C 
BRANCH  18  19
HETATM   19  N           1     -22.313  -3.283 -14.788  0.00  0.00    -0.064 N 
HETATM   20  H           1     -23.119  -3.561 -15.393  0.00  0.00     0.275 HD
HETATM   21  H           1     -21.636  -2.717 -15.348  0.00  0.00     0.275 HD
HETATM   22  H           1     -21.837  -4.140 -14.428  0.00  0.00     0.275 HD
ENDBRANCH  18  19
BRANCH  18  23
HETATM   23  C           1     -24.122  -1.791 -14.020  0.00  0.00     0.206 C 
BRANCH  23  24
HETATM   24  O           1     -25.143  -2.225 -13.163  0.00  0.00    -0.398 OA
HETATM   25  H           1     -25.487  -1.459 -12.735  0.00  0.00     0.209 HD
ENDBRANCH  23  24
ENDBRANCH  18  23
ENDBRANCH  16  18
ENDBRANCH   1  14
TORSDOF 9
ENDMDL
MODEL 4
REMARK VINA RESULT:      -6.6      1.735      2.169
REMARK  9 active torsions:
REMARK  status: ('A' for Active; 'I' for Inactive)
REMARK    1  A    between atoms: O_1  and  C_18 
REMARK    2  A    between atoms: N_2  and  C_6 
REMARK    3  A    between atoms: O_3  and  C_4 
REMARK    4  A    between atoms: C_4  and  C_6 
REMARK    5  A    between atoms: C_6  and  C_17 
REMARK    6  A    between atoms: C_9  and  C_14 
REMARK    7  A    between atoms: C_12  and  C_23 
REMARK    8  A    between atoms: C_14  and  C_23 
REMARK    9  A    between atoms: N_16  and  C_23 
REMARK       I    between atoms: N_16  and  C_17 
ROOT
HETATM    1  C           1     -34.812  -2.237 -12.057  0.00  0.00     0.189 C 
ENDROOT
BRANCH   1   2
HETATM    2  C           1     -34.474  -1.592 -10.736  0.00  0.00     0.197 C 
HETATM    3  O           1     -33.290  -1.563 -10.338  0.00  0.00    -0.646 OA
HETATM    4  O           1     -35.380  -1.086 -10.038  0.00  0.00    -0.646 OA
ENDBRANCH   1   2
BRANCH   1   5
HETATM    5  C           1     -33.786  -3.318 -12.372  0.00  0.00     0.074 C 
BRANCH   5   6
HETATM    6  C           1     -34.084  -4.541 -11.562  0.00  0.00    -0.056 A 
HETATM    7  C           1     -35.321  -4.674 -10.931  0.00  0.00     0.010 A 
HETATM    8  C           1     -35.599  -5.813 -10.175  0.00  0.00     0.037 A 
HETATM    9  C           1     -34.641  -6.820 -10.052  0.00  0.00     0.065 A 
HETATM   10  C           1     -33.404  -6.686 -10.683  0.00  0.00     0.037 A 
HETATM   11  C           1     -33.126  -5.547 -11.439  0.00  0.00     0.010 A 
BRANCH   9  12
HETATM   12  O           1     -34.911  -7.927  -9.319  0.00  0.00    -0.361 OA
HETATM   13  H           1     -35.507  -8.492  -9.838  0.00  0.00     0.217 HD
ENDBRANCH   9  12
ENDBRANCH   5   6
ENDBRANCH   1   5
BRANCH   1  14
HETATM   14  N           1     -34.791  -1.232 -13.103  0.00  0.00    -0.344 N 
HETATM   15  H           1     -33.910  -0.936 -13.503  0.00  0.00     0.163 HD
HETATM   16  C           1     -35.963  -0.684 -13.549  0.00  0.00     0.251 C 
HETATM   17  O           1     -37.015  -1.037 -13.071  0.00  0.00    -0.271 OA
BRANCH  16  18
HETATM   18  C           1     -35.941   0.361 -14.636  0.00  0.00     0.297 C 
BRANCH  18  19
HETATM   19  N           1     -34.563   0.445 -15.221  0.00  0.00    -0.064 N 
HETATM   20  H           1     -34.526  -0.104 -16.109  0.00  0.00     0.275 HD
HETATM   21  H           1     -34.330   1.444 -15.420  0.00  0.00     0.275 HD
HETATM   22  H           1     -33.871   0.055 -14.542  0.00  0.00     0.275 HD
ENDBRANCH  18  19
BRANCH  18  23
HETATM   23  C           1     -36.932  -0.020 -15.729  0.00  0.00     0.206 C 
BRANCH  23  24
HETATM   24  O           1     -36.234  -0.364 -16.895  0.00  0.00    -0.398 OA
HETATM   25  H           1     -35.804   0.419 -17.198  0.00  0.00     0.209 HD
ENDBRANCH  23  24
ENDBRANCH  18  23
ENDBRANCH  16  18
ENDBRANCH   1  14
TORSDOF 9
ENDMDL
MODEL 5
REMARK VINA RESULT:      -6.5     13.107     16.249
REMARK  9 active torsions:
REMARK  status: ('A' for Active; 'I' for Inactive)
REMARK    1  A    between atoms: O_1  and  C_18 
REMARK    2  A    between atoms: N_2  and  C_6 
REMARK    3  A    between atoms: O_3  and  C_4 
REMARK    4  A    between atoms: C_4  and  C_6 
REMARK    5  A    between atoms: C_6  and  C_17 
REMARK    6  A    between atoms: C_9  and  C_14 
REMARK    7  A    between atoms: C_12  and  C_23 
REMARK    8  A    between atoms: C_14  and  C_23 
REMARK    9  A    between atoms: N_16  and  C_23 
REMARK       I    between atoms: N_16  and  C_17 
ROOT
HETATM    1  C           1     -21.050  -4.984  -7.063  0.00  0.00     0.189 C 
ENDROOT
BRANCH   1   2
HETATM    2  C           1     -19.602  -4.592  -6.907  0.00  0.00     0.197 C 
HETATM    3  O           1     -19.102  -4.487  -5.766  0.00  0.00    -0.646 OA
HETATM    4  O           1     -18.901  -4.374  -7.919  0.00  0.00    -0.646 OA
ENDBRANCH   1   2
BRANCH   1   5
HETATM    5  C           1     -21.853  -3.783  -7.548  0.00  0.00     0.074 C 
BRANCH   5   6
HETATM    6  C           1     -22.353  -4.044  -8.934  0.00  0.00    -0.056 A 
HETATM    7  C           1     -21.452  -4.125  -9.996  0.00  0.00     0.010 A 
HETATM    8  C           1     -21.917  -4.368 -11.289  0.00  0.00     0.037 A 
HETATM    9  C           1     -23.284  -4.532 -11.518  0.00  0.00     0.065 A 
HETATM   10  C           1     -24.185  -4.451 -10.456  0.00  0.00     0.037 A 
HETATM   11  C           1     -23.719  -4.208  -9.163  0.00  0.00     0.010 A 
BRANCH   9  12
HETATM   12  O           1     -23.737  -4.768 -12.774  0.00  0.00    -0.361 OA
HETATM   13  H           1     -24.368  -4.066 -13.003  0.00  0.00     0.217 HD
ENDBRANCH   9  12
ENDBRANCH   5   6
ENDBRANCH   1   5
BRANCH   1  14
HETATM   14  N           1     -21.570  -5.427  -5.783  0.00  0.00    -0.344 N 
HETATM   15  H           1     -21.958  -4.755  -5.134  0.00  0.00     0.163 HD
HETATM   16  C           1     -21.536  -6.755  -5.453  0.00  0.00     0.251 C 
HETATM   17  O           1     -21.073  -7.558  -6.229  0.00  0.00    -0.271 OA
BRANCH  16  18
HETATM   18  C           1     -22.077  -7.216  -4.123  0.00  0.00     0.297 C 
BRANCH  18  19
HETATM   19  N           1     -21.622  -8.621  -3.859  0.00  0.00    -0.064 N 
HETATM   20  H           1     -20.695  -8.603  -3.376  0.00  0.00     0.275 HD
HETATM   21  H           1     -22.321  -9.104  -3.251  0.00  0.00     0.275 HD
HETATM   22  H           1     -21.532  -9.135  -4.764  0.00  0.00     0.275 HD
ENDBRANCH  18  19
BRANCH  18  23
HETATM   23  C           1     -21.562  -6.301  -3.019  0.00  0.00     0.206 C 
BRANCH  23  24
HETATM   24  O           1     -22.636  -5.879  -2.223  0.00  0.00    -0.398 OA
HETATM   25  H           1     -23.405  -6.317  -2.545  0.00  0.00     0.209 HD
ENDBRANCH  23  24
ENDBRANCH  18  23
ENDBRANCH  16  18
ENDBRANCH   1  14
TORSDOF 9
ENDMDL
MODEL 6
REMARK VINA RESULT:      -6.4     11.269     13.082
REMARK  9 active torsions:
REMARK  status: ('A' for Active; 'I' for Inactive)
REMARK    1  A    between atoms: O_1  and  C_18 
REMARK    2  A    between atoms: N_2  and  C_6 
REMARK    3  A    between atoms: O_3  and  C_4 
REMARK    4  A    between atoms: C_4  and  C_6 
REMARK    5  A    between atoms: C_6  and  C_17 
REMARK    6  A    between atoms: C_9  and  C_14 
REMARK    7  A    between atoms: C_12  and  C_23 
REMARK    8  A    between atoms: C_14  and  C_23 
REMARK    9  A    between atoms: N_16  and  C_23 
REMARK       I    between atoms: N_16  and  C_17 
ROOT
HETATM    1  C           1     -23.274  -3.704 -10.660  0.00  0.00     0.189 C 
ENDROOT
BRANCH   1   2
HETATM    2  C           1     -24.648  -3.933 -10.081  0.00  0.00     0.197 C 
HETATM    3  O           1     -25.432  -2.972  -9.932  0.00  0.00    -0.646 OA
HETATM    4  O           1     -25.002  -5.086  -9.751  0.00  0.00    -0.646 OA
ENDBRANCH   1   2
BRANCH   1   5
HETATM    5  C           1     -22.405  -2.982  -9.638  0.00  0.00     0.074 C 
BRANCH   5   6
HETATM    6  C           1     -21.752  -3.986  -8.740  0.00  0.00    -0.056 A 
HETATM    7  C           1     -22.352  -4.332  -7.529  0.00  0.00     0.010 A 
HETATM    8  C           1     -21.744  -5.267  -6.692  0.00  0.00     0.037 A 
HETATM    9  C           1     -20.536  -5.858  -7.067  0.00  0.00     0.065 A 
HETATM   10  C           1     -19.936  -5.511  -8.277  0.00  0.00     0.037 A 
HETATM   11  C           1     -20.545  -4.576  -9.115  0.00  0.00     0.010 A 
BRANCH   9  12
HETATM   12  O           1     -19.945  -6.767  -6.254  0.00  0.00    -0.361 OA
HETATM   13  H           1     -20.634  -7.162  -5.694  0.00  0.00     0.217 HD
ENDBRANCH   9  12
ENDBRANCH   5   6
ENDBRANCH   1   5
BRANCH   1  14
HETATM   14  N           1     -23.385  -2.893 -11.858  0.00  0.00    -0.344 N 
HETATM   15  H           1     -23.162  -1.906 -11.823  0.00  0.00     0.163 HD
HETATM   16  C           1     -23.791  -3.462 -13.035  0.00  0.00     0.251 C 
HETATM   17  O           1     -24.056  -4.640 -13.076  0.00  0.00    -0.271 OA
BRANCH  16  18
HETATM   18  C           1     -23.906  -2.619 -14.280  0.00  0.00     0.297 C 
BRANCH  18  19
HETATM   19  N           1     -24.179  -1.195 -13.896  0.00  0.00    -0.064 N 
HETATM   20  H           1     -24.356  -0.629 -14.757  0.00  0.00     0.275 HD
HETATM   21  H           1     -25.018  -1.157 -13.275  0.00  0.00     0.275 HD
HETATM   22  H           1     -23.352  -0.806 -13.389  0.00  0.00     0.275 HD
ENDBRANCH  18  19
BRANCH  18  23
HETATM   23  C           1     -22.603  -2.691 -15.066  0.00  0.00     0.206 C 
BRANCH  23  24
HETATM   24  O           1     -22.515  -1.589 -15.928  0.00  0.00    -0.398 OA
HETATM   25  H           1     -21.601  -1.458 -16.114  0.00  0.00     0.209 HD
ENDBRANCH  23  24
ENDBRANCH  18  23
ENDBRANCH  16  18
ENDBRANCH   1  14
TORSDOF 9
ENDMDL
MODEL 7
REMARK VINA RESULT:      -6.3     13.110     15.958
REMARK  9 active torsions:
REMARK  status: ('A' for Active; 'I' for Inactive)
REMARK    1  A    between atoms: O_1  and  C_18 
REMARK    2  A    between atoms: N_2  and  C_6 
REMARK    3  A    between atoms: O_3  and  C_4 
REMARK    4  A    between atoms: C_4  and  C_6 
REMARK    5  A    between atoms: C_6  and  C_17 
REMARK    6  A    between atoms: C_9  and  C_14 
REMARK    7  A    between atoms: C_12  and  C_23 
REMARK    8  A    between atoms: C_14  and  C_23 
REMARK    9  A    between atoms: N_16  and  C_23 
REMARK       I    between atoms: N_16  and  C_17 
ROOT
HETATM    1  C           1     -21.615  -4.959  -7.718  0.00  0.00     0.189 C 
ENDROOT
BRANCH   1   2
HETATM    2  C           1     -20.780  -3.711  -7.575  0.00  0.00     0.197 C 
HETATM    3  O           1     -19.604  -3.694  -7.998  0.00  0.00    -0.646 OA
HETATM    4  O           1     -21.265  -2.693  -7.035  0.00  0.00    -0.646 OA
ENDBRANCH   1   2
BRANCH   1   5
HETATM    5  C           1     -22.975  -4.597  -8.301  0.00  0.00     0.074 C 
BRANCH   5   6
HETATM    6  C           1     -22.814  -4.196  -9.734  0.00  0.00    -0.056 A 
HETATM    7  C           1     -21.672  -4.574 -10.439  0.00  0.00     0.010 A 
HETATM    8  C           1     -21.521  -4.200 -11.775  0.00  0.00     0.037 A 
HETATM    9  C           1     -22.514  -3.449 -12.404  0.00  0.00     0.065 A 
HETATM   10  C           1     -23.656  -3.070 -11.699  0.00  0.00     0.037 A 
HETATM   11  C           1     -23.807  -3.445 -10.363  0.00  0.00     0.010 A 
BRANCH   9  12
HETATM   12  O           1     -22.368  -3.085 -13.702  0.00  0.00    -0.361 OA
HETATM   13  H           1     -22.682  -3.819 -14.256  0.00  0.00     0.217 HD
ENDBRANCH   9  12
ENDBRANCH   5   6
ENDBRANCH   1   5
BRANCH   1  14
HETATM   14  N           1     -21.795  -5.571  -6.415  0.00  0.00    -0.344 N 
HETATM   15  H           1     -22.628  -5.374  -5.875  0.00  0.00     0.163 HD
HETATM   16  C           1     -20.839  -6.413  -5.917  0.00  0.00     0.251 C 
HETATM   17  O           1     -19.844  -6.648  -6.562  0.00  0.00    -0.271 OA
BRANCH  16  18
HETATM   18  C           1     -21.026  -7.050  -4.562  0.00  0.00     0.297 C 
BRANCH  18  19
HETATM   19  N           1     -22.044  -6.273  -3.781  0.00  0.00    -0.064 N 
HETATM   20  H           1     -22.188  -5.339  -4.228  0.00  0.00     0.275 HD
HETATM   21  H           1     -22.947  -6.797  -3.770  0.00  0.00     0.275 HD
HETATM   22  H           1     -21.705  -6.140  -2.802  0.00  0.00     0.275 HD
ENDBRANCH  18  19
BRANCH  18  23
HETATM   23  C           1     -21.507  -8.484  -4.735  0.00  0.00     0.206 C 
BRANCH  23  24
HETATM   24  O           1     -21.301  -8.890  -6.061  0.00  0.00    -0.398 OA
HETATM   25  H           1     -20.497  -9.381  -6.077  0.00  0.00     0.209 HD
ENDBRANCH  23  24
ENDBRANCH  18  23
ENDBRANCH  16  18
ENDBRANCH   1  14
TORSDOF 9
ENDMDL
MODEL 8
REMARK VINA RESULT:      -6.1      2.675      3.499
REMARK  9 active torsions:
REMARK  status: ('A' for Active; 'I' for Inactive)
REMARK    1  A    between atoms: O_1  and  C_18 
REMARK    2  A    between atoms: N_2  and  C_6 
REMARK    3  A    between atoms: O_3  and  C_4 
REMARK    4  A    between atoms: C_4  and  C_6 
REMARK    5  A    between atoms: C_6  and  C_17 
REMARK    6  A    between atoms: C_9  and  C_14 
REMARK    7  A    between atoms: C_12  and  C_23 
REMARK    8  A    between atoms: C_14  and  C_23 
REMARK    9  A    between atoms: N_16  and  C_23 
REMARK       I    between atoms: N_16  and  C_17 
ROOT
HETATM    1  C           1     -34.588  -3.161 -12.784  0.00  0.00     0.189 C 
ENDROOT
BRANCH   1   2
HETATM    2  C           1     -35.084  -1.782 -12.425  0.00  0.00     0.197 C 
HETATM    3  O           1     -34.402  -1.046 -11.680  0.00  0.00    -0.646 OA
HETATM    4  O           1     -36.178  -1.375 -12.874  0.00  0.00    -0.646 OA
ENDBRANCH   1   2
BRANCH   1   5
HETATM    5  C           1     -33.469  -3.563 -11.833  0.00  0.00     0.074 C 
BRANCH   5   6
HETATM    6  C           1     -33.802  -4.876 -11.196  0.00  0.00    -0.056 A 
HETATM    7  C           1     -35.011  -5.035 -10.519  0.00  0.00     0.010 A 
HETATM    8  C           1     -35.323  -6.259  -9.926  0.00  0.00     0.037 A 
HETATM    9  C           1     -34.425  -7.323 -10.011  0.00  0.00     0.065 A 
HETATM   10  C           1     -33.216  -7.164 -10.688  0.00  0.00     0.037 A 
HETATM   11  C           1     -32.904  -5.940 -11.282  0.00  0.00     0.010 A 
BRANCH   9  12
HETATM   12  O           1     -34.727  -8.513  -9.435  0.00  0.00    -0.361 OA
HETATM   13  H           1     -35.479  -8.374  -8.836  0.00  0.00     0.217 HD
ENDBRANCH   9  12
ENDBRANCH   5   6
ENDBRANCH   1   5
BRANCH   1  14
HETATM   14  N           1     -34.086  -3.153 -14.145  0.00  0.00    -0.344 N 
HETATM   15  H           1     -33.546  -2.365 -14.480  0.00  0.00     0.163 HD
HETATM   16  C           1     -34.340  -4.211 -14.975  0.00  0.00     0.251 C 
HETATM   17  O           1     -34.984  -5.152 -14.574  0.00  0.00    -0.271 OA
BRANCH  16  18
HETATM   18  C           1     -33.817  -4.202 -16.390  0.00  0.00     0.297 C 
BRANCH  18  19
HETATM   19  N           1     -34.135  -2.885 -17.032  0.00  0.00    -0.064 N 
HETATM   20  H           1     -33.981  -2.114 -16.343  0.00  0.00     0.275 HD
HETATM   21  H           1     -33.513  -2.742 -17.859  0.00  0.00     0.275 HD
HETATM   22  H           1     -35.133  -2.879 -17.342  0.00  0.00     0.275 HD
ENDBRANCH  18  19
BRANCH  18  23
HETATM   23  C           1     -32.308  -4.408 -16.376  0.00  0.00     0.206 C 
BRANCH  23  24
HETATM   24  O           1     -31.693  -3.411 -17.146  0.00  0.00    -0.398 OA
HETATM   25  H           1     -30.769  -3.457 -16.966  0.00  0.00     0.209 HD
ENDBRANCH  23  24
ENDBRANCH  18  23
ENDBRANCH  16  18
ENDBRANCH   1  14
TORSDOF 9
ENDMDL
MODEL 9
REMARK VINA RESULT:      -6.1     14.960     17.766
REMARK  9 active torsions:
REMARK  status: ('A' for Active; 'I' for Inactive)
REMARK    1  A    between atoms: O_1  and  C_18 
REMARK    2  A    between atoms: N_2  and  C_6 
REMARK    3  A    between atoms: O_3  and  C_4 
REMARK    4  A    between atoms: C_4  and  C_6 
REMARK    5  A    between atoms: C_6  and  C_17 
REMARK    6  A    between atoms: C_9  and  C_14 
REMARK    7  A    between atoms: C_12  and  C_23 
REMARK    8  A    between atoms: C_14  and  C_23 
REMARK    9  A    between atoms: N_16  and  C_23 
REMARK       I    between atoms: N_16  and  C_17 
ROOT
HETATM    1  C           1     -20.181  -7.519  -4.976  0.00  0.00     0.189 C 
ENDROOT
BRANCH   1   2
HETATM    2  C           1     -19.130  -8.566  -5.249  0.00  0.00     0.197 C 
HETATM    3  O           1     -18.558  -8.603  -6.360  0.00  0.00    -0.646 OA
HETATM    4  O           1     -18.830  -9.396  -4.364  0.00  0.00    -0.646 OA
ENDBRANCH   1   2
BRANCH   1   5
HETATM    5  C           1     -21.485  -8.199  -4.578  0.00  0.00     0.074 C 
BRANCH   5   6
HETATM    6  C           1     -21.695  -8.050  -3.103  0.00  0.00    -0.056 A 
HETATM    7  C           1     -21.613  -9.167  -2.272  0.00  0.00     0.010 A 
HETATM    8  C           1     -21.809  -9.030  -0.897  0.00  0.00     0.037 A 
HETATM    9  C           1     -22.085  -7.774  -0.355  0.00  0.00     0.065 A 
HETATM   10  C           1     -22.167  -6.657  -1.186  0.00  0.00     0.037 A 
HETATM   11  C           1     -21.971  -6.795  -2.561  0.00  0.00     0.010 A 
BRANCH   9  12
HETATM   12  O           1     -22.275  -7.640   0.980  0.00  0.00    -0.361 OA
HETATM   13  H           1     -23.137  -8.029   1.202  0.00  0.00     0.217 HD
ENDBRANCH   9  12
ENDBRANCH   5   6
ENDBRANCH   1   5
BRANCH   1  14
HETATM   14  N           1     -20.395  -6.728  -6.173  0.00  0.00    -0.344 N 
HETATM   15  H           1     -20.484  -7.184  -7.072  0.00  0.00     0.163 HD
HETATM   16  C           1     -20.478  -5.364  -6.086  0.00  0.00     0.251 C 
HETATM   17  O           1     -20.372  -4.820  -5.012  0.00  0.00    -0.271 OA
BRANCH  16  18
HETATM   18  C           1     -20.701  -4.541  -7.331  0.00  0.00     0.297 C 
BRANCH  18  19
HETATM   19  N           1     -20.020  -5.200  -8.493  0.00  0.00    -0.064 N 
HETATM   20  H           1     -20.143  -6.236  -8.430  0.00  0.00     0.275 HD
HETATM   21  H           1     -20.441  -4.853  -9.385  0.00  0.00     0.275 HD
HETATM   22  H           1     -19.000  -4.970  -8.477  0.00  0.00     0.275 HD
ENDBRANCH  18  19
BRANCH  18  23
HETATM   23  C           1     -22.194  -4.437  -7.611  0.00  0.00     0.206 C 
BRANCH  23  24
HETATM   24  O           1     -22.913  -4.840  -6.477  0.00  0.00    -0.398 OA
HETATM   25  H           1     -23.205  -5.722  -6.636  0.00  0.00     0.209 HD
ENDBRANCH  23  24
ENDBRANCH  18  23
ENDBRANCH  16  18
ENDBRANCH   1  14
TORSDOF 9
ENDMDL
