MODEL 1
REMARK VINA RESULT:      -6.5      0.000      0.000
REMARK  7 active torsions:
REMARK  status: ('A' for Active; 'I' for Inactive)
REMARK    1  A    between atoms: N_2  and  C_12 
REMARK    2  A    between atoms: C_5  and  C_19 
REMARK    3  A    between atoms: C_5  and  C_13 
REMARK    4  A    between atoms: C_10  and  C_13 
REMARK    5  A    between atoms: C_11  and  C_12 
REMARK    6  A    between atoms: C_12  and  C_14 
REMARK    7  A    between atoms: C_13  and  N_18 
REMARK       I    between atoms: C_14  and  N_18 
ROOT
HETATM    1  H           1     -36.457  -2.306 -13.194  0.00  0.00     0.163 HD
HETATM    2  C           1     -34.699  -2.293 -12.103  0.00  0.00     0.249 C 
HETATM    3  O           1     -33.942  -1.612 -11.452  0.00  0.00    -0.271 OA
HETATM    4  N           1     -35.823  -1.736 -12.649  0.00  0.00    -0.345 N 
ENDROOT
BRANCH   2   5
HETATM    5  C           1     -34.402  -3.758 -12.314  0.00  0.00     0.278 C 
BRANCH   5   6
HETATM    6  N           1     -33.849  -3.961 -13.693  0.00  0.00    -0.066 N 
HETATM    7  H           1     -34.233  -3.230 -14.334  0.00  0.00     0.275 HD
HETATM    8  H           1     -32.807  -3.886 -13.665  0.00  0.00     0.275 HD
HETATM    9  H           1     -34.121  -4.909 -14.042  0.00  0.00     0.275 HD
ENDBRANCH   5   6
BRANCH   5  10
HETATM   10  C           1     -33.383  -4.225 -11.284  0.00  0.00     0.017 C 
HETATM   11  C           1     -32.116  -4.680 -11.995  0.00  0.00     0.012 C 
HETATM   12  C           1     -33.961  -5.386 -10.486  0.00  0.00     0.012 C 
ENDBRANCH   5  10
ENDBRANCH   2   5
BRANCH   4  13
HETATM   13  C           1     -36.106  -0.329 -12.445  0.00  0.00     0.185 C 
BRANCH  13  14
HETATM   14  C           1     -36.843   0.221 -13.661  0.00  0.00     0.040 C 
BRANCH  14  15
HETATM   15  C           1     -35.836   0.791 -14.650  0.00  0.00    -0.020 C 
HETATM   16  C           1     -34.553   1.154 -13.913  0.00  0.00     0.009 C 
HETATM   17  C           1     -35.530  -0.250 -15.719  0.00  0.00     0.009 C 
ENDBRANCH  14  15
ENDBRANCH  13  14
BRANCH  13  18
HETATM   18  C           1     -36.967  -0.161 -11.217  0.00  0.00     0.196 C 
HETATM   19  O           1     -36.578   0.564 -10.277  0.00  0.00    -0.646 OA
HETATM   20  O           1     -38.068  -0.747 -11.141  0.00  0.00    -0.646 OA
ENDBRANCH  13  18
ENDBRANCH   4  13
TORSDOF 7
ENDMDL
MODEL 2
REMARK VINA RESULT:      -6.4     11.564     13.875
REMARK  7 active torsions:
REMARK  status: ('A' for Active; 'I' for Inactive)
REMARK    1  A    between atoms: N_2  and  C_12 
REMARK    2  A    between atoms: C_5  and  C_19 
REMARK    3  A    between atoms: C_5  and  C_13 
REMARK    4  A    between atoms: C_10  and  C_13 
REMARK    5  A    between atoms: C_11  and  C_12 
REMARK    6  A    between atoms: C_12  and  C_14 
REMARK    7  A    between atoms: C_13  and  N_18 
REMARK       I    between atoms: C_14  and  N_18 
ROOT
HETATM    1  H           1     -23.604  -5.310  -8.719  0.00  0.00     0.163 HD
HETATM    2  C           1     -22.220  -4.122  -7.742  0.00  0.00     0.249 C 
HETATM    3  O           1     -21.516  -3.143  -7.830  0.00  0.00    -0.271 OA
HETATM    4  N           1     -23.015  -4.490  -8.793  0.00  0.00    -0.345 N 
ENDROOT
BRANCH   2   5
HETATM    5  C           1     -22.221  -4.936  -6.472  0.00  0.00     0.278 C 
BRANCH   5   6
HETATM    6  N           1     -23.632  -5.298  -6.112  0.00  0.00    -0.066 N 
HETATM    7  H           1     -23.629  -6.135  -5.486  0.00  0.00     0.275 HD
HETATM    8  H           1     -24.082  -4.495  -5.617  0.00  0.00     0.275 HD
HETATM    9  H           1     -24.168  -5.516  -6.983  0.00  0.00     0.275 HD
ENDBRANCH   5   6
BRANCH   5  10
HETATM   10  C           1     -21.410  -6.207  -6.681  0.00  0.00     0.017 C 
HETATM   11  C           1     -21.559  -7.110  -5.464  0.00  0.00     0.012 C 
HETATM   12  C           1     -19.942  -5.848  -6.868  0.00  0.00     0.012 C 
ENDBRANCH   5  10
ENDBRANCH   2   5
BRANCH   4  13
HETATM   13  C           1     -23.013  -3.706 -10.013  0.00  0.00     0.185 C 
BRANCH  13  14
HETATM   14  C           1     -22.482  -4.556 -11.161  0.00  0.00     0.040 C 
BRANCH  14  15
HETATM   15  C           1     -21.070  -4.109 -11.513  0.00  0.00    -0.020 C 
HETATM   16  C           1     -20.954  -2.603 -11.322  0.00  0.00     0.009 C 
HETATM   17  C           1     -20.073  -4.815 -10.603  0.00  0.00     0.009 C 
ENDBRANCH  14  15
ENDBRANCH  13  14
BRANCH  13  18
HETATM   18  C           1     -24.419  -3.259 -10.327  0.00  0.00     0.196 C 
HETATM   19  O           1     -25.188  -2.921  -9.401  0.00  0.00    -0.646 OA
HETATM   20  O           1     -24.816  -3.228 -11.511  0.00  0.00    -0.646 OA
ENDBRANCH  13  18
ENDBRANCH   4  13
TORSDOF 7
ENDMDL
MODEL 3
REMARK VINA RESULT:      -5.8     12.737     15.940
REMARK  7 active torsions:
REMARK  status: ('A' for Active; 'I' for Inactive)
REMARK    1  A    between atoms: N_2  and  C_12 
REMARK    2  A    between atoms: C_5  and  C_19 
REMARK    3  A    between atoms: C_5  and  C_13 
REMARK    4  A    between atoms: C_10  and  C_13 
REMARK    5  A    between atoms: C_11  and  C_12 
REMARK    6  A    between atoms: C_12  and  C_14 
REMARK    7  A    between atoms: C_13  and  N_18 
REMARK       I    between atoms: C_14  and  N_18 
ROOT
HETATM    1  H           1     -22.560  -6.272  -7.644  0.00  0.00     0.163 HD
HETATM    2  C           1     -22.330  -4.233  -7.902  0.00  0.00     0.249 C 
HETATM    3  O           1     -21.838  -3.226  -7.448  0.00  0.00    -0.271 OA
HETATM    4  N           1     -22.149  -5.430  -7.264  0.00  0.00    -0.345 N 
ENDROOT
BRANCH   2   5
HETATM    5  C           1     -23.143  -4.168  -9.171  0.00  0.00     0.278 C 
BRANCH   5   6
HETATM    6  N           1     -24.405  -3.398  -8.916  0.00  0.00    -0.066 N 
HETATM    7  H           1     -24.331  -2.901  -7.999  0.00  0.00     0.275 HD
HETATM    8  H           1     -24.547  -2.699  -9.680  0.00  0.00     0.275 HD
HETATM    9  H           1     -25.216  -4.058  -8.891  0.00  0.00     0.275 HD
ENDBRANCH   5   6
BRANCH   5  10
HETATM   10  C           1     -22.336  -3.472 -10.259  0.00  0.00     0.017 C 
HETATM   11  C           1     -23.253  -3.111 -11.418  0.00  0.00     0.012 C 
HETATM   12  C           1     -21.238  -4.405 -10.752  0.00  0.00     0.012 C 
ENDBRANCH   5  10
ENDBRANCH   2   5
BRANCH   4  13
HETATM   13  C           1     -21.366  -5.490  -6.045  0.00  0.00     0.185 C 
BRANCH  13  14
HETATM   14  C           1     -21.879  -6.628  -5.170  0.00  0.00     0.040 C 
BRANCH  14  15
HETATM   15  C           1     -21.105  -6.650  -3.859  0.00  0.00    -0.020 C 
HETATM   16  C           1     -22.015  -6.196  -2.726  0.00  0.00     0.009 C 
HETATM   17  C           1     -20.616  -8.065  -3.582  0.00  0.00     0.009 C 
ENDBRANCH  14  15
ENDBRANCH  13  14
BRANCH  13  18
HETATM   18  C           1     -19.917  -5.733  -6.387  0.00  0.00     0.196 C 
HETATM   19  O           1     -19.083  -4.811  -6.262  0.00  0.00    -0.646 OA
HETATM   20  O           1     -19.552  -6.855  -6.797  0.00  0.00    -0.646 OA
ENDBRANCH  13  18
ENDBRANCH   4  13
TORSDOF 7
ENDMDL
MODEL 4
REMARK VINA RESULT:      -5.6     15.243     17.553
REMARK  7 active torsions:
REMARK  status: ('A' for Active; 'I' for Inactive)
REMARK    1  A    between atoms: N_2  and  C_12 
REMARK    2  A    between atoms: C_5  and  C_19 
REMARK    3  A    between atoms: C_5  and  C_13 
REMARK    4  A    between atoms: C_10  and  C_13 
REMARK    5  A    between atoms: C_11  and  C_12 
REMARK    6  A    between atoms: C_12  and  C_14 
REMARK    7  A    between atoms: C_13  and  N_18 
REMARK       I    between atoms: C_14  and  N_18 
ROOT
HETATM    1  H           1     -21.319  -7.459  -6.824  0.00  0.00     0.163 HD
HETATM    2  C           1     -20.930  -5.514  -6.234  0.00  0.00     0.249 C 
HETATM    3  O           1     -20.478  -4.816  -5.357  0.00  0.00    -0.271 OA
HETATM    4  N           1     -20.941  -6.875  -6.089  0.00  0.00    -0.345 N 
ENDROOT
BRANCH   2   5
HETATM    5  C           1     -21.482  -4.883  -7.490  0.00  0.00     0.278 C 
BRANCH   5   6
HETATM    6  N           1     -21.858  -3.459  -7.208  0.00  0.00    -0.066 N 
HETATM    7  H           1     -21.986  -2.947  -8.110  0.00  0.00     0.275 HD
HETATM    8  H           1     -22.751  -3.435  -6.666  0.00  0.00     0.275 HD
HETATM    9  H           1     -21.100  -3.002  -6.652  0.00  0.00     0.275 HD
ENDBRANCH   5   6
BRANCH   5  10
HETATM   10  C           1     -20.425  -4.922  -8.585  0.00  0.00     0.017 C 
HETATM   11  C           1     -19.219  -4.097  -8.156  0.00  0.00     0.012 C 
HETATM   12  C           1     -21.004  -4.343  -9.870  0.00  0.00     0.012 C 
ENDBRANCH   5  10
ENDBRANCH   2   5
BRANCH   4  13
HETATM   13  C           1     -20.411  -7.479  -4.882  0.00  0.00     0.185 C 
BRANCH  13  14
HETATM   14  C           1     -21.528  -7.626  -3.856  0.00  0.00     0.040 C 
BRANCH  14  15
HETATM   15  C           1     -21.082  -7.026  -2.530  0.00  0.00    -0.020 C 
HETATM   16  C           1     -22.236  -6.247  -1.913  0.00  0.00     0.009 C 
HETATM   17  C           1     -20.660  -8.143  -1.584  0.00  0.00     0.009 C 
ENDBRANCH  14  15
ENDBRANCH  13  14
BRANCH  13  18
HETATM   18  C           1     -19.844  -8.839  -5.207  0.00  0.00     0.196 C 
HETATM   19  O           1     -18.807  -8.933  -5.898  0.00  0.00    -0.646 OA
HETATM   20  O           1     -20.411  -9.869  -4.787  0.00  0.00    -0.646 OA
ENDBRANCH  13  18
ENDBRANCH   4  13
TORSDOF 7
ENDMDL
MODEL 5
REMARK VINA RESULT:      -5.5     13.722     16.089
REMARK  7 active torsions:
REMARK  status: ('A' for Active; 'I' for Inactive)
REMARK    1  A    between atoms: N_2  and  C_12 
REMARK    2  A    between atoms: C_5  and  C_19 
REMARK    3  A    between atoms: C_5  and  C_13 
REMARK    4  A    between atoms: C_10  and  C_13 
REMARK    5  A    between atoms: C_11  and  C_12 
REMARK    6  A    between atoms: C_12  and  C_14 
REMARK    7  A    between atoms: C_13  and  N_18 
REMARK       I    between atoms: C_14  and  N_18 
ROOT
HETATM    1  H           1     -22.326  -5.201  -5.303  0.00  0.00     0.163 HD
HETATM    2  C           1     -21.417  -7.047  -5.515  0.00  0.00     0.249 C 
HETATM    3  O           1     -20.713  -7.729  -6.223  0.00  0.00    -0.271 OA
HETATM    4  N           1     -21.737  -5.771  -5.895  0.00  0.00    -0.345 N 
ENDROOT
BRANCH   2   5
HETATM    5  C           1     -21.943  -7.603  -4.215  0.00  0.00     0.278 C 
BRANCH   5   6
HETATM    6  N           1     -21.744  -9.090  -4.192  0.00  0.00    -0.066 N 
HETATM    7  H           1     -20.839  -9.314  -3.720  0.00  0.00     0.275 HD
HETATM    8  H           1     -22.529  -9.538  -3.666  0.00  0.00     0.275 HD
HETATM    9  H           1     -21.727  -9.454  -5.172  0.00  0.00     0.275 HD
ENDBRANCH   5   6
BRANCH   5  10
HETATM   10  C           1     -21.191  -6.973  -3.051  0.00  0.00     0.017 C 
HETATM   11  C           1     -20.526  -8.066  -2.225  0.00  0.00     0.012 C 
HETATM   12  C           1     -22.167  -6.199  -2.174  0.00  0.00     0.012 C 
ENDBRANCH   5  10
ENDBRANCH   2   5
BRANCH   4  13
HETATM   13  C           1     -21.231  -5.239  -7.145  0.00  0.00     0.185 C 
BRANCH  13  14
HETATM   14  C           1     -22.166  -4.144  -7.645  0.00  0.00     0.040 C 
BRANCH  14  15
HETATM   15  C           1     -22.687  -4.513  -9.027  0.00  0.00    -0.020 C 
HETATM   16  C           1     -24.059  -3.886  -9.235  0.00  0.00     0.009 C 
HETATM   17  C           1     -21.725  -3.994 -10.087  0.00  0.00     0.009 C 
ENDBRANCH  14  15
ENDBRANCH  13  14
BRANCH  13  18
HETATM   18  C           1     -19.854  -4.662  -6.925  0.00  0.00     0.196 C 
HETATM   19  O           1     -19.132  -4.381  -7.906  0.00  0.00    -0.646 OA
HETATM   20  O           1     -19.435  -4.468  -5.764  0.00  0.00    -0.646 OA
ENDBRANCH  13  18
ENDBRANCH   4  13
TORSDOF 7
ENDMDL
MODEL 6
REMARK VINA RESULT:      -5.4     16.208     18.273
REMARK  7 active torsions:
REMARK  status: ('A' for Active; 'I' for Inactive)
REMARK    1  A    between atoms: N_2  and  C_12 
REMARK    2  A    between atoms: C_5  and  C_19 
REMARK    3  A    between atoms: C_5  and  C_13 
REMARK    4  A    between atoms: C_10  and  C_13 
REMARK    5  A    between atoms: C_11  and  C_12 
REMARK    6  A    between atoms: C_12  and  C_14 
REMARK    7  A    between atoms: C_13  and  N_18 
REMARK       I    between atoms: C_14  and  N_18 
ROOT
HETATM    1  H           1     -21.977  -7.393  -3.682  0.00  0.00     0.163 HD
HETATM    2  C           1     -20.577  -7.681  -5.178  0.00  0.00     0.249 C 
HETATM    3  O           1     -19.561  -8.259  -5.487  0.00  0.00    -0.271 OA
HETATM    4  N           1     -21.127  -7.877  -3.940  0.00  0.00    -0.345 N 
ENDROOT
BRANCH   2   5
HETATM    5  C           1     -21.236  -6.742  -6.158  0.00  0.00     0.278 C 
BRANCH   5   6
HETATM    6  N           1     -22.316  -5.969  -5.460  0.00  0.00    -0.066 N 
HETATM    7  H           1     -22.933  -6.629  -4.934  0.00  0.00     0.275 HD
HETATM    8  H           1     -21.882  -5.293  -4.791  0.00  0.00     0.275 HD
HETATM    9  H           1     -22.883  -5.448  -6.166  0.00  0.00     0.275 HD
ENDBRANCH   5   6
BRANCH   5  10
HETATM   10  C           1     -20.200  -5.776  -6.715  0.00  0.00     0.017 C 
HETATM   11  C           1     -19.990  -4.634  -5.731  0.00  0.00     0.012 C 
HETATM   12  C           1     -20.689  -5.216  -8.045  0.00  0.00     0.012 C 
ENDBRANCH   5  10
ENDBRANCH   2   5
BRANCH   4  13
HETATM   13  C           1     -20.492  -8.779  -3.000  0.00  0.00     0.185 C 
BRANCH  13  14
HETATM   14  C           1     -20.484  -8.144  -1.614  0.00  0.00     0.040 C 
BRANCH  14  15
HETATM   15  C           1     -21.915  -7.872  -1.173  0.00  0.00    -0.020 C 
HETATM   16  C           1     -22.077  -8.265   0.290  0.00  0.00     0.009 C 
HETATM   17  C           1     -22.225  -6.390  -1.337  0.00  0.00     0.009 C 
ENDBRANCH  14  15
ENDBRANCH  13  14
BRANCH  13  18
HETATM   18  C           1     -21.257 -10.079  -2.953  0.00  0.00     0.196 C 
HETATM   19  O           1     -20.875 -11.001  -2.202  0.00  0.00    -0.646 OA
HETATM   20  O           1     -22.272 -10.232  -3.666  0.00  0.00    -0.646 OA
ENDBRANCH  13  18
ENDBRANCH   4  13
TORSDOF 7
ENDMDL
MODEL 7
REMARK VINA RESULT:      -5.3     17.514     19.099
REMARK  7 active torsions:
REMARK  status: ('A' for Active; 'I' for Inactive)
REMARK    1  A    between atoms: N_2  and  C_12 
REMARK    2  A    between atoms: C_5  and  C_19 
REMARK    3  A    between atoms: C_5  and  C_13 
REMARK    4  A    between atoms: C_10  and  C_13 
REMARK    5  A    between atoms: C_11  and  C_12 
REMARK    6  A    between atoms: C_12  and  C_14 
REMARK    7  A    between atoms: C_13  and  N_18 
REMARK       I    between atoms: C_14  and  N_18 
ROOT
HETATM    1  H           1     -20.183  -8.716  -1.956  0.00  0.00     0.163 HD
HETATM    2  C           1     -21.784 -10.016  -1.784  0.00  0.00     0.249 C 
HETATM    3  O           1     -22.615 -10.650  -2.391  0.00  0.00    -0.271 OA
HETATM    4  N           1     -20.879  -9.247  -2.464  0.00  0.00    -0.345 N 
ENDROOT
BRANCH   2   5
HETATM    5  C           1     -21.745 -10.073  -0.276  0.00  0.00     0.278 C 
BRANCH   5   6
HETATM    6  N           1     -20.530 -10.836   0.163  0.00  0.00    -0.066 N 
HETATM    7  H           1     -20.205 -10.473   1.087  0.00  0.00     0.275 HD
HETATM    8  H           1     -20.769 -11.850   0.252  0.00  0.00     0.275 HD
HETATM    9  H           1     -19.770 -10.718  -0.546  0.00  0.00     0.275 HD
ENDBRANCH   5   6
BRANCH   5  10
HETATM   10  C           1     -21.687  -8.660   0.286  0.00  0.00     0.017 C 
HETATM   11  C           1     -20.951  -8.674   1.619  0.00  0.00     0.012 C 
HETATM   12  C           1     -23.102  -8.136   0.493  0.00  0.00     0.012 C 
ENDBRANCH   5  10
ENDBRANCH   2   5
BRANCH   4  13
HETATM   13  C           1     -20.917  -9.193  -3.912  0.00  0.00     0.185 C 
BRANCH  13  14
HETATM   14  C           1     -21.711  -7.969  -4.353  0.00  0.00     0.040 C 
BRANCH  14  15
HETATM   15  C           1     -21.113  -6.720  -3.720  0.00  0.00    -0.020 C 
HETATM   16  C           1     -20.941  -5.645  -4.785  0.00  0.00     0.009 C 
HETATM   17  C           1     -22.043  -6.209  -2.627  0.00  0.00     0.009 C 
ENDBRANCH  14  15
ENDBRANCH  13  14
BRANCH  13  18
HETATM   18  C           1     -19.511  -9.100  -4.450  0.00  0.00     0.196 C 
HETATM   19  O           1     -18.539  -9.131  -3.665  0.00  0.00    -0.646 OA
HETATM   20  O           1     -19.317  -8.991  -5.680  0.00  0.00    -0.646 OA
ENDBRANCH  13  18
ENDBRANCH   4  13
TORSDOF 7
ENDMDL
MODEL 8
REMARK VINA RESULT:      -5.3     15.509     18.399
REMARK  7 active torsions:
REMARK  status: ('A' for Active; 'I' for Inactive)
REMARK    1  A    between atoms: N_2  and  C_12 
REMARK    2  A    between atoms: C_5  and  C_19 
REMARK    3  A    between atoms: C_5  and  C_13 
REMARK    4  A    between atoms: C_10  and  C_13 
REMARK    5  A    between atoms: C_11  and  C_12 
REMARK    6  A    between atoms: C_12  and  C_14 
REMARK    7  A    between atoms: C_13  and  N_18 
REMARK       I    between atoms: C_14  and  N_18 
ROOT
HETATM    1  H           1     -21.132  -8.558  -4.780  0.00  0.00     0.163 HD
HETATM    2  C           1     -21.183  -6.533  -4.360  0.00  0.00     0.249 C 
HETATM    3  O           1     -21.008  -5.692  -3.508  0.00  0.00    -0.271 OA
HETATM    4  N           1     -20.986  -7.855  -4.067  0.00  0.00    -0.345 N 
ENDROOT
BRANCH   2   5
HETATM    5  C           1     -21.616  -6.122  -5.746  0.00  0.00     0.278 C 
BRANCH   5   6
HETATM    6  N           1     -23.037  -5.643  -5.702  0.00  0.00    -0.066 N 
HETATM    7  H           1     -23.633  -6.266  -6.293  0.00  0.00     0.275 HD
HETATM    8  H           1     -23.382  -5.665  -4.716  0.00  0.00     0.275 HD
HETATM    9  H           1     -23.086  -4.665  -6.068  0.00  0.00     0.275 HD
ENDBRANCH   5   6
BRANCH   5  10
HETATM   10  C           1     -20.718  -5.000  -6.249  0.00  0.00     0.017 C 
HETATM   11  C           1     -21.551  -3.997  -7.035  0.00  0.00     0.012 C 
HETATM   12  C           1     -19.637  -5.580  -7.152  0.00  0.00     0.012 C 
ENDBRANCH   5  10
ENDBRANCH   2   5
BRANCH   4  13
HETATM   13  C           1     -20.570  -8.248  -2.735  0.00  0.00     0.185 C 
BRANCH  13  14
HETATM   14  C           1     -21.707  -8.994  -2.047  0.00  0.00     0.040 C 
BRANCH  14  15
HETATM   15  C           1     -21.928  -8.414  -0.657  0.00  0.00    -0.020 C 
HETATM   16  C           1     -22.396  -6.970  -0.779  0.00  0.00     0.009 C 
HETATM   17  C           1     -22.986  -9.232   0.072  0.00  0.00     0.009 C 
ENDBRANCH  14  15
ENDBRANCH  13  14
BRANCH  13  18
HETATM   18  C           1     -19.363  -9.148  -2.830  0.00  0.00     0.196 C 
HETATM   19  O           1     -18.547  -9.002  -3.765  0.00  0.00    -0.646 OA
HETATM   20  O           1     -19.179 -10.040  -1.974  0.00  0.00    -0.646 OA
ENDBRANCH  13  18
ENDBRANCH   4  13
TORSDOF 7
ENDMDL
MODEL 9
REMARK VINA RESULT:      -5.2     17.831     19.657
REMARK  7 active torsions:
REMARK  status: ('A' for Active; 'I' for Inactive)
REMARK    1  A    between atoms: N_2  and  C_12 
REMARK    2  A    between atoms: C_5  and  C_19 
REMARK    3  A    between atoms: C_5  and  C_13 
REMARK    4  A    between atoms: C_10  and  C_13 
REMARK    5  A    between atoms: C_11  and  C_12 
REMARK    6  A    between atoms: C_12  and  C_14 
REMARK    7  A    between atoms: C_13  and  N_18 
REMARK       I    between atoms: C_14  and  N_18 
ROOT
HETATM    1  H           1     -22.099  -9.801  -1.750  0.00  0.00     0.163 HD
HETATM    2  C           1     -21.361 -10.461   0.067  0.00  0.00     0.249 C 
HETATM    3  O           1     -20.791 -10.136   1.083  0.00  0.00    -0.271 OA
HETATM    4  N           1     -21.622  -9.529  -0.900  0.00  0.00    -0.345 N 
ENDROOT
BRANCH   2   5
HETATM    5  C           1     -21.784 -11.896  -0.133  0.00  0.00     0.278 C 
BRANCH   5   6
HETATM    6  N           1     -20.885 -12.796   0.664  0.00  0.00    -0.066 N 
HETATM    7  H           1     -20.103 -12.235   1.072  0.00  0.00     0.275 HD
HETATM    8  H           1     -21.433 -13.241   1.435  0.00  0.00     0.275 HD
HETATM    9  H           1     -20.494 -13.538   0.040  0.00  0.00     0.275 HD
ENDBRANCH   5   6
BRANCH   5  10
HETATM   10  C           1     -23.222 -12.073   0.334  0.00  0.00     0.017 C 
HETATM   11  C           1     -23.306 -13.268   1.274  0.00  0.00     0.012 C 
HETATM   12  C           1     -24.122 -12.312  -0.871  0.00  0.00     0.012 C 
ENDBRANCH   5  10
ENDBRANCH   2   5
BRANCH   4  13
HETATM   13  C           1     -21.216  -8.151  -0.706  0.00  0.00     0.185 C 
BRANCH  13  14
HETATM   14  C           1     -20.367  -7.701  -1.890  0.00  0.00     0.040 C 
BRANCH  14  15
HETATM   15  C           1     -20.544  -8.681  -3.042  0.00  0.00    -0.020 C 
HETATM   16  C           1     -21.239  -7.978  -4.201  0.00  0.00     0.009 C 
HETATM   17  C           1     -19.180  -9.182  -3.496  0.00  0.00     0.009 C 
ENDBRANCH  14  15
ENDBRANCH  13  14
BRANCH  13  18
HETATM   18  C           1     -22.439  -7.274  -0.603  0.00  0.00     0.196 C 
HETATM   19  O           1     -23.337  -7.551   0.221  0.00  0.00    -0.646 OA
HETATM   20  O           1     -22.556  -6.274  -1.342  0.00  0.00    -0.646 OA
ENDBRANCH  13  18
ENDBRANCH   4  13
TORSDOF 7
ENDMDL
