MODEL 1
REMARK VINA RESULT:      -6.3      0.000      0.000
REMARK  7 active torsions:
REMARK  status: ('A' for Active; 'I' for Inactive)
REMARK    1  A    between atoms: C_5  and  C_7 
REMARK    2  A    between atoms: C_7  and  C_8 
REMARK    3  A    between atoms: C_8  and  C_9 
REMARK    4  A    between atoms: C_9  and  C_10 
REMARK    5  A    between atoms: C_9  and  N_13 
REMARK       I    between atoms: N_13  and  C_14 
REMARK    6  A    between atoms: C_14  and  C_16 
REMARK    7  A    between atoms: C_16  and  N_18 
ROOT
HETATM    1  H           1     -22.300  -5.711  -9.119  0.00  0.00     0.163 HD
HETATM    2  N           1     -22.242  -4.737  -8.852  0.00  0.00    -0.345 N 
HETATM    3  C           1     -21.634  -4.384  -7.678  0.00  0.00     0.248 C 
HETATM    4  O           1     -21.565  -3.221  -7.359  0.00  0.00    -0.271 OA
ENDROOT
BRANCH   2   5
HETATM    5  C           1     -22.807  -3.715  -9.711  0.00  0.00     0.186 C 
BRANCH   5   6
HETATM    6  C           1     -22.306  -3.917 -11.136  0.00  0.00     0.046 C 
BRANCH   6   7
HETATM    7  C           1     -22.433  -2.611 -11.909  0.00  0.00     0.116 C 
BRANCH   7   8
HETATM    8  C           1     -23.286  -2.833 -13.135  0.00  0.00     0.172 C 
HETATM    9  O           1     -24.528  -2.926 -13.023  0.00  0.00    -0.648 OA
HETATM   10  O           1     -22.751  -2.923 -14.260  0.00  0.00    -0.648 OA
ENDBRANCH   7   8
ENDBRANCH   6   7
ENDBRANCH   5   6
BRANCH   5  11
HETATM   11  C           1     -24.312  -3.813  -9.689  0.00  0.00     0.196 C 
HETATM   12  O           1     -25.001  -2.792  -9.477  0.00  0.00    -0.646 OA
HETATM   13  O           1     -24.870  -4.914  -9.881  0.00  0.00    -0.646 OA
ENDBRANCH   5  11
ENDBRANCH   2   5
BRANCH   3  14
HETATM   14  C           1     -21.047  -5.448  -6.783  0.00  0.00     0.270 C 
HETATM   15  C           1     -20.395  -4.792  -5.573  0.00  0.00     0.050 C 
BRANCH  14  16
HETATM   16  N           1     -20.016  -6.228  -7.544  0.00  0.00    -0.067 N 
HETATM   17  H           1     -19.614  -6.970  -6.926  0.00  0.00     0.275 HD
HETATM   18  H           1     -19.254  -5.586  -7.858  0.00  0.00     0.275 HD
HETATM   19  H           1     -20.461  -6.675  -8.378  0.00  0.00     0.275 HD
ENDBRANCH  14  16
ENDBRANCH   3  14
TORSDOF 7
ENDMDL
MODEL 2
REMARK VINA RESULT:      -5.7      1.740      2.978
REMARK  7 active torsions:
REMARK  status: ('A' for Active; 'I' for Inactive)
REMARK    1  A    between atoms: C_5  and  C_7 
REMARK    2  A    between atoms: C_7  and  C_8 
REMARK    3  A    between atoms: C_8  and  C_9 
REMARK    4  A    between atoms: C_9  and  C_10 
REMARK    5  A    between atoms: C_9  and  N_13 
REMARK       I    between atoms: N_13  and  C_14 
REMARK    6  A    between atoms: C_14  and  C_16 
REMARK    7  A    between atoms: C_16  and  N_18 
ROOT
HETATM    1  H           1     -22.746  -3.491  -9.133  0.00  0.00     0.163 HD
HETATM    2  N           1     -21.925  -4.013  -9.411  0.00  0.00    -0.345 N 
HETATM    3  C           1     -20.988  -4.365  -8.478  0.00  0.00     0.248 C 
HETATM    4  O           1     -20.009  -4.988  -8.810  0.00  0.00    -0.271 OA
ENDROOT
BRANCH   2   5
HETATM    5  C           1     -21.740  -4.386 -10.800  0.00  0.00     0.186 C 
BRANCH   5   6
HETATM    6  C           1     -23.042  -4.957 -11.349  0.00  0.00     0.046 C 
BRANCH   6   7
HETATM    7  C           1     -24.134  -4.840 -10.294  0.00  0.00     0.116 C 
BRANCH   7   8
HETATM    8  C           1     -24.813  -3.498 -10.420  0.00  0.00     0.172 C 
HETATM    9  O           1     -25.019  -2.804  -9.401  0.00  0.00    -0.648 OA
HETATM   10  O           1     -25.170  -3.082 -11.542  0.00  0.00    -0.648 OA
ENDBRANCH   7   8
ENDBRANCH   6   7
ENDBRANCH   5   6
BRANCH   5  11
HETATM   11  C           1     -21.347  -3.170 -11.601  0.00  0.00     0.196 C 
HETATM   12  O           1     -20.290  -2.559 -11.329  0.00  0.00    -0.646 OA
HETATM   13  O           1     -22.076  -2.773 -12.534  0.00  0.00    -0.646 OA
ENDBRANCH   5  11
ENDBRANCH   2   5
BRANCH   3  14
HETATM   14  C           1     -21.180  -3.975  -7.033  0.00  0.00     0.270 C 
HETATM   15  C           1     -20.184  -4.733  -6.165  0.00  0.00     0.050 C 
BRANCH  14  16
HETATM   16  N           1     -22.577  -4.317  -6.604  0.00  0.00    -0.067 N 
HETATM   17  H           1     -22.704  -4.062  -5.598  0.00  0.00     0.275 HD
HETATM   18  H           1     -22.738  -5.342  -6.727  0.00  0.00     0.275 HD
HETATM   19  H           1     -23.261  -3.784  -7.187  0.00  0.00     0.275 HD
ENDBRANCH  14  16
ENDBRANCH   3  14
TORSDOF 7
ENDMDL
MODEL 3
REMARK VINA RESULT:      -5.5      2.436      5.604
REMARK  7 active torsions:
REMARK  status: ('A' for Active; 'I' for Inactive)
REMARK    1  A    between atoms: C_5  and  C_7 
REMARK    2  A    between atoms: C_7  and  C_8 
REMARK    3  A    between atoms: C_8  and  C_9 
REMARK    4  A    between atoms: C_9  and  C_10 
REMARK    5  A    between atoms: C_9  and  N_13 
REMARK       I    between atoms: N_13  and  C_14 
REMARK    6  A    between atoms: C_14  and  C_16 
REMARK    7  A    between atoms: C_16  and  N_18 
ROOT
HETATM    1  H           1     -22.473  -2.685 -11.469  0.00  0.00     0.163 HD
HETATM    2  N           1     -23.203  -3.307 -11.792  0.00  0.00    -0.345 N 
HETATM    3  C           1     -23.628  -3.246 -13.092  0.00  0.00     0.248 C 
HETATM    4  O           1     -24.499  -3.988 -13.477  0.00  0.00    -0.271 OA
ENDROOT
BRANCH   2   5
HETATM    5  C           1     -23.800  -4.260 -10.878  0.00  0.00     0.186 C 
BRANCH   5   6
HETATM    6  C           1     -22.700  -5.036 -10.164  0.00  0.00     0.046 C 
BRANCH   6   7
HETATM    7  C           1     -21.442  -4.180 -10.087  0.00  0.00     0.116 C 
BRANCH   7   8
HETATM    8  C           1     -20.763  -4.402  -8.757  0.00  0.00     0.172 C 
HETATM    9  O           1     -21.285  -5.156  -7.907  0.00  0.00    -0.648 OA
HETATM   10  O           1     -19.679  -3.833  -8.507  0.00  0.00    -0.648 OA
ENDBRANCH   7   8
ENDBRANCH   6   7
ENDBRANCH   5   6
BRANCH   5  11
HETATM   11  C           1     -24.639  -3.526  -9.862  0.00  0.00     0.196 C 
HETATM   12  O           1     -25.764  -3.086 -10.182  0.00  0.00    -0.646 OA
HETATM   13  O           1     -24.210  -3.357  -8.701  0.00  0.00    -0.646 OA
ENDBRANCH   5  11
ENDBRANCH   2   5
BRANCH   3  14
HETATM   14  C           1     -23.007  -2.253 -14.043  0.00  0.00     0.270 C 
HETATM   15  C           1     -24.092  -1.353 -14.619  0.00  0.00     0.050 C 
BRANCH  14  16
HETATM   16  N           1     -22.324  -2.989 -15.158  0.00  0.00    -0.067 N 
HETATM   17  H           1     -22.579  -2.549 -16.072  0.00  0.00     0.275 HD
HETATM   18  H           1     -22.630  -3.988 -15.155  0.00  0.00     0.275 HD
HETATM   19  H           1     -21.288  -2.940 -15.026  0.00  0.00     0.275 HD
ENDBRANCH  14  16
ENDBRANCH   3  14
TORSDOF 7
ENDMDL
MODEL 4
REMARK VINA RESULT:      -5.5      2.253      3.624
REMARK  7 active torsions:
REMARK  status: ('A' for Active; 'I' for Inactive)
REMARK    1  A    between atoms: C_5  and  C_7 
REMARK    2  A    between atoms: C_7  and  C_8 
REMARK    3  A    between atoms: C_8  and  C_9 
REMARK    4  A    between atoms: C_9  and  C_10 
REMARK    5  A    between atoms: C_9  and  N_13 
REMARK       I    between atoms: N_13  and  C_14 
REMARK    6  A    between atoms: C_14  and  C_16 
REMARK    7  A    between atoms: C_16  and  N_18 
ROOT
HETATM    1  H           1     -21.614  -4.093  -6.137  0.00  0.00     0.163 HD
HETATM    2  N           1     -21.503  -4.897  -6.742  0.00  0.00    -0.345 N 
HETATM    3  C           1     -21.205  -6.120  -6.207  0.00  0.00     0.248 C 
HETATM    4  O           1     -21.073  -7.080  -6.929  0.00  0.00    -0.271 OA
ENDROOT
BRANCH   2   5
HETATM    5  C           1     -21.660  -4.751  -8.176  0.00  0.00     0.186 C 
BRANCH   5   6
HETATM    6  C           1     -22.839  -3.831  -8.466  0.00  0.00     0.046 C 
BRANCH   6   7
HETATM    7  C           1     -23.776  -4.503  -9.461  0.00  0.00     0.116 C 
BRANCH   7   8
HETATM    8  C           1     -24.551  -3.449 -10.214  0.00  0.00     0.172 C 
HETATM    9  O           1     -24.030  -2.871 -11.193  0.00  0.00    -0.648 OA
HETATM   10  O           1     -25.712  -3.155  -9.860  0.00  0.00    -0.648 OA
ENDBRANCH   7   8
ENDBRANCH   6   7
ENDBRANCH   5   6
BRANCH   5  11
HETATM   11  C           1     -20.403  -4.159  -8.762  0.00  0.00     0.196 C 
HETATM   12  O           1     -20.375  -3.819  -9.965  0.00  0.00    -0.646 OA
HETATM   13  O           1     -19.390  -4.007  -8.047  0.00  0.00    -0.646 OA
ENDBRANCH   5  11
ENDBRANCH   2   5
BRANCH   3  14
HETATM   14  C           1     -21.041  -6.272  -4.715  0.00  0.00     0.270 C 
HETATM   15  C           1     -20.443  -7.638  -4.404  0.00  0.00     0.050 C 
BRANCH  14  16
HETATM   16  N           1     -22.380  -6.151  -4.050  0.00  0.00    -0.067 N 
HETATM   17  H           1     -22.995  -5.523  -4.617  0.00  0.00     0.275 HD
HETATM   18  H           1     -22.259  -5.748  -3.093  0.00  0.00     0.275 HD
HETATM   19  H           1     -22.821  -7.096  -3.977  0.00  0.00     0.275 HD
ENDBRANCH  14  16
ENDBRANCH   3  14
TORSDOF 7
ENDMDL
MODEL 5
REMARK VINA RESULT:      -5.1      4.427      7.929
REMARK  7 active torsions:
REMARK  status: ('A' for Active; 'I' for Inactive)
REMARK    1  A    between atoms: C_5  and  C_7 
REMARK    2  A    between atoms: C_7  and  C_8 
REMARK    3  A    between atoms: C_8  and  C_9 
REMARK    4  A    between atoms: C_9  and  C_10 
REMARK    5  A    between atoms: C_9  and  N_13 
REMARK       I    between atoms: N_13  and  C_14 
REMARK    6  A    between atoms: C_14  and  C_16 
REMARK    7  A    between atoms: C_16  and  N_18 
ROOT
HETATM    1  H           1     -21.696  -7.029  -6.962  0.00  0.00     0.163 HD
HETATM    2  N           1     -21.244  -6.368  -6.344  0.00  0.00    -0.345 N 
HETATM    3  C           1     -21.016  -5.085  -6.762  0.00  0.00     0.248 C 
HETATM    4  O           1     -20.477  -4.295  -6.024  0.00  0.00    -0.271 OA
ENDROOT
BRANCH   2   5
HETATM    5  C           1     -20.837  -6.780  -5.015  0.00  0.00     0.186 C 
BRANCH   5   6
HETATM    6  C           1     -22.029  -6.694  -4.069  0.00  0.00     0.046 C 
BRANCH   6   7
HETATM    7  C           1     -21.571  -6.151  -2.722  0.00  0.00     0.116 C 
BRANCH   7   8
HETATM    8  C           1     -21.928  -7.135  -1.635  0.00  0.00     0.172 C 
HETATM    9  O           1     -22.702  -6.796  -0.713  0.00  0.00    -0.648 OA
HETATM   10  O           1     -21.451  -8.290  -1.657  0.00  0.00    -0.648 OA
ENDBRANCH   7   8
ENDBRANCH   6   7
ENDBRANCH   5   6
BRANCH   5  11
HETATM   11  C           1     -20.332  -8.200  -5.060  0.00  0.00     0.196 C 
HETATM   12  O           1     -19.382  -8.549  -4.327  0.00  0.00    -0.646 OA
HETATM   13  O           1     -20.863  -9.028  -5.831  0.00  0.00    -0.646 OA
ENDBRANCH   5  11
ENDBRANCH   2   5
BRANCH   3  14
HETATM   14  C           1     -21.439  -4.656  -8.146  0.00  0.00     0.270 C 
HETATM   15  C           1     -20.223  -4.169  -8.922  0.00  0.00     0.050 C 
BRANCH  14  16
HETATM   16  N           1     -22.442  -3.545  -8.040  0.00  0.00    -0.067 N 
HETATM   17  H           1     -23.397  -3.917  -8.248  0.00  0.00     0.275 HD
HETATM   18  H           1     -22.203  -2.794  -8.726  0.00  0.00     0.275 HD
HETATM   19  H           1     -22.425  -3.151  -7.072  0.00  0.00     0.275 HD
ENDBRANCH  14  16
ENDBRANCH   3  14
TORSDOF 7
ENDMDL
MODEL 6
REMARK VINA RESULT:      -5.0      2.948      6.544
REMARK  7 active torsions:
REMARK  status: ('A' for Active; 'I' for Inactive)
REMARK    1  A    between atoms: C_5  and  C_7 
REMARK    2  A    between atoms: C_7  and  C_8 
REMARK    3  A    between atoms: C_8  and  C_9 
REMARK    4  A    between atoms: C_9  and  C_10 
REMARK    5  A    between atoms: C_9  and  N_13 
REMARK       I    between atoms: N_13  and  C_14 
REMARK    6  A    between atoms: C_14  and  C_16 
REMARK    7  A    between atoms: C_16  and  N_18 
ROOT
HETATM    1  H           1     -22.764  -5.778  -6.855  0.00  0.00     0.163 HD
HETATM    2  N           1     -22.157  -5.006  -7.099  0.00  0.00    -0.345 N 
HETATM    3  C           1     -22.473  -4.193  -8.153  0.00  0.00     0.248 C 
HETATM    4  O           1     -21.748  -3.271  -8.443  0.00  0.00    -0.271 OA
ENDROOT
BRANCH   2   5
HETATM    5  C           1     -20.950  -4.764  -6.332  0.00  0.00     0.186 C 
BRANCH   5   6
HETATM    6  C           1     -21.026  -5.524  -5.014  0.00  0.00     0.046 C 
BRANCH   6   7
HETATM    7  C           1     -22.130  -6.570  -5.092  0.00  0.00     0.116 C 
BRANCH   7   8
HETATM    8  C           1     -21.544  -7.939  -4.850  0.00  0.00     0.172 C 
HETATM    9  O           1     -21.357  -8.342  -3.682  0.00  0.00    -0.648 OA
HETATM   10  O           1     -21.246  -8.670  -5.819  0.00  0.00    -0.648 OA
ENDBRANCH   7   8
ENDBRANCH   6   7
ENDBRANCH   5   6
BRANCH   5  11
HETATM   11  C           1     -19.752  -5.236  -7.117  0.00  0.00     0.196 C 
HETATM   12  O           1     -18.798  -4.457  -7.331  0.00  0.00    -0.646 OA
HETATM   13  O           1     -19.711  -6.406  -7.554  0.00  0.00    -0.646 OA
ENDBRANCH   5  11
ENDBRANCH   2   5
BRANCH   3  14
HETATM   14  C           1     -23.728  -4.445  -8.951  0.00  0.00     0.270 C 
HETATM   15  C           1     -23.357  -4.814 -10.381  0.00  0.00     0.050 C 
BRANCH  14  16
HETATM   16  N           1     -24.573  -3.206  -8.958  0.00  0.00    -0.067 N 
HETATM   17  H           1     -25.484  -3.408  -9.431  0.00  0.00     0.275 HD
HETATM   18  H           1     -24.074  -2.447  -9.474  0.00  0.00     0.275 HD
HETATM   19  H           1     -24.753  -2.899  -7.975  0.00  0.00     0.275 HD
ENDBRANCH  14  16
ENDBRANCH   3  14
TORSDOF 7
ENDMDL
MODEL 7
REMARK VINA RESULT:      -5.0      5.905      8.407
REMARK  7 active torsions:
REMARK  status: ('A' for Active; 'I' for Inactive)
REMARK    1  A    between atoms: C_5  and  C_7 
REMARK    2  A    between atoms: C_7  and  C_8 
REMARK    3  A    between atoms: C_8  and  C_9 
REMARK    4  A    between atoms: C_9  and  C_10 
REMARK    5  A    between atoms: C_9  and  N_13 
REMARK       I    between atoms: N_13  and  C_14 
REMARK    6  A    between atoms: C_14  and  C_16 
REMARK    7  A    between atoms: C_16  and  N_18 
ROOT
HETATM    1  H           1     -22.450  -7.569  -4.731  0.00  0.00     0.163 HD
HETATM    2  N           1     -21.486  -7.837  -4.881  0.00  0.00    -0.345 N 
HETATM    3  C           1     -20.703  -7.122  -5.746  0.00  0.00     0.248 C 
HETATM    4  O           1     -19.552  -7.443  -5.925  0.00  0.00    -0.271 OA
ENDROOT
BRANCH   2   5
HETATM    5  C           1     -20.935  -8.980  -4.180  0.00  0.00     0.186 C 
BRANCH   5   6
HETATM    6  C           1     -21.425  -8.976  -2.738  0.00  0.00     0.046 C 
BRANCH   6   7
HETATM    7  C           1     -20.915  -7.727  -2.031  0.00  0.00     0.116 C 
BRANCH   7   8
HETATM    8  C           1     -22.064  -6.777  -1.796  0.00  0.00     0.172 C 
HETATM    9  O           1     -22.401  -5.970  -2.689  0.00  0.00    -0.648 OA
HETATM   10  O           1     -22.680  -6.798  -0.709  0.00  0.00    -0.648 OA
ENDBRANCH   7   8
ENDBRANCH   6   7
ENDBRANCH   5   6
BRANCH   5  11
HETATM   11  C           1     -21.381 -10.251  -4.860  0.00  0.00     0.196 C 
HETATM   12  O           1     -21.043 -10.479  -6.041  0.00  0.00    -0.646 OA
HETATM   13  O           1     -22.090 -11.074  -4.243  0.00  0.00    -0.646 OA
ENDBRANCH   5  11
ENDBRANCH   2   5
BRANCH   3  14
HETATM   14  C           1     -21.277  -5.932  -6.476  0.00  0.00     0.270 C 
HETATM   15  C           1     -20.283  -4.779  -6.429  0.00  0.00     0.050 C 
BRANCH  14  16
HETATM   16  N           1     -22.559  -5.514  -5.819  0.00  0.00    -0.067 N 
HETATM   17  H           1     -22.518  -4.493  -5.594  0.00  0.00     0.275 HD
HETATM   18  H           1     -22.694  -6.060  -4.938  0.00  0.00     0.275 HD
HETATM   19  H           1     -23.359  -5.695  -6.467  0.00  0.00     0.275 HD
ENDBRANCH  14  16
ENDBRANCH   3  14
TORSDOF 7
ENDMDL
MODEL 8
REMARK VINA RESULT:      -4.9      6.834      9.356
REMARK  7 active torsions:
REMARK  status: ('A' for Active; 'I' for Inactive)
REMARK    1  A    between atoms: C_5  and  C_7 
REMARK    2  A    between atoms: C_7  and  C_8 
REMARK    3  A    between atoms: C_8  and  C_9 
REMARK    4  A    between atoms: C_9  and  C_10 
REMARK    5  A    between atoms: C_9  and  N_13 
REMARK       I    between atoms: N_13  and  C_14 
REMARK    6  A    between atoms: C_14  and  C_16 
REMARK    7  A    between atoms: C_16  and  N_18 
ROOT
HETATM    1  H           1     -22.490  -9.521  -2.300  0.00  0.00     0.163 HD
HETATM    2  N           1     -21.889  -9.232  -1.540  0.00  0.00    -0.345 N 
HETATM    3  C           1     -21.708 -10.052  -0.460  0.00  0.00     0.248 C 
HETATM    4  O           1     -20.990  -9.706   0.448  0.00  0.00    -0.271 OA
ENDROOT
BRANCH   2   5
HETATM    5  C           1     -21.221  -7.946  -1.594  0.00  0.00     0.186 C 
BRANCH   5   6
HETATM    6  C           1     -20.658  -7.725  -2.992  0.00  0.00     0.046 C 
BRANCH   6   7
HETATM    7  C           1     -21.605  -8.325  -4.022  0.00  0.00     0.116 C 
BRANCH   7   8
HETATM    8  C           1     -21.818  -7.339  -5.145  0.00  0.00     0.172 C 
HETATM    9  O           1     -21.184  -7.463  -6.215  0.00  0.00    -0.648 OA
HETATM   10  O           1     -22.629  -6.399  -5.005  0.00  0.00    -0.648 OA
ENDBRANCH   7   8
ENDBRANCH   6   7
ENDBRANCH   5   6
BRANCH   5  11
HETATM   11  C           1     -22.208  -6.852  -1.269  0.00  0.00     0.196 C 
HETATM   12  O           1     -22.168  -5.770  -1.894  0.00  0.00    -0.646 OA
HETATM   13  O           1     -23.065  -7.026  -0.377  0.00  0.00    -0.646 OA
ENDBRANCH   5  11
ENDBRANCH   2   5
BRANCH   3  14
HETATM   14  C           1     -22.403 -11.390  -0.404  0.00  0.00     0.270 C 
HETATM   15  C           1     -23.901 -11.178  -0.225  0.00  0.00     0.050 C 
BRANCH  14  16
HETATM   16  N           1     -21.869 -12.183   0.752  0.00  0.00    -0.067 N 
HETATM   17  H           1     -22.199 -11.757   1.648  0.00  0.00     0.275 HD
HETATM   18  H           1     -20.825 -12.176   0.727  0.00  0.00     0.275 HD
HETATM   19  H           1     -22.213 -13.168   0.688  0.00  0.00     0.275 HD
ENDBRANCH  14  16
ENDBRANCH   3  14
TORSDOF 7
ENDMDL
MODEL 9
REMARK VINA RESULT:      -4.8      6.102      8.665
REMARK  7 active torsions:
REMARK  status: ('A' for Active; 'I' for Inactive)
REMARK    1  A    between atoms: C_5  and  C_7 
REMARK    2  A    between atoms: C_7  and  C_8 
REMARK    3  A    between atoms: C_8  and  C_9 
REMARK    4  A    between atoms: C_9  and  C_10 
REMARK    5  A    between atoms: C_9  and  N_13 
REMARK       I    between atoms: N_13  and  C_14 
REMARK    6  A    between atoms: C_14  and  C_16 
REMARK    7  A    between atoms: C_16  and  N_18 
ROOT
HETATM    1  H           1     -19.821  -7.487  -2.230  0.00  0.00     0.163 HD
HETATM    2  N           1     -20.318  -8.283  -2.607  0.00  0.00    -0.345 N 
HETATM    3  C           1     -21.380  -8.813  -1.925  0.00  0.00     0.248 C 
HETATM    4  O           1     -21.974  -9.763  -2.376  0.00  0.00    -0.271 OA
ENDROOT
BRANCH   2   5
HETATM    5  C           1     -19.906  -8.862  -3.871  0.00  0.00     0.186 C 
BRANCH   5   6
HETATM    6  C           1     -20.061  -7.827  -4.978  0.00  0.00     0.046 C 
BRANCH   6   7
HETATM    7  C           1     -21.528  -7.718  -5.371  0.00  0.00     0.116 C 
BRANCH   7   8
HETATM    8  C           1     -22.061  -6.368  -4.956  0.00  0.00     0.172 C 
HETATM    9  O           1     -22.497  -5.576  -5.819  0.00  0.00    -0.648 OA
HETATM   10  O           1     -22.065  -6.043  -3.749  0.00  0.00    -0.648 OA
ENDBRANCH   7   8
ENDBRANCH   6   7
ENDBRANCH   5   6
BRANCH   5  11
HETATM   11  C           1     -18.463  -9.291  -3.780  0.00  0.00     0.196 C 
HETATM   12  O           1     -17.886  -9.316  -2.671  0.00  0.00    -0.646 OA
HETATM   13  O           1     -17.842  -9.621  -4.813  0.00  0.00    -0.646 OA
ENDBRANCH   5  11
ENDBRANCH   2   5
BRANCH   3  14
HETATM   14  C           1     -21.809  -8.210  -0.610  0.00  0.00     0.270 C 
HETATM   15  C           1     -22.879  -9.086   0.026  0.00  0.00     0.050 C 
BRANCH  14  16
HETATM   16  N           1     -22.363  -6.837  -0.847  0.00  0.00    -0.067 N 
HETATM   17  H           1     -21.620  -6.124  -0.661  0.00  0.00     0.275 HD
HETATM   18  H           1     -23.172  -6.672  -0.206  0.00  0.00     0.275 HD
HETATM   19  H           1     -22.682  -6.755  -1.839  0.00  0.00     0.275 HD
ENDBRANCH  14  16
ENDBRANCH   3  14
TORSDOF 7
ENDMDL
