MODEL 1
REMARK VINA RESULT:      -6.5      0.000      0.000
REMARK  7 active torsions:
REMARK  status: ('A' for Active; 'I' for Inactive)
REMARK    1  A    between atoms: C_4  and  N_5 
REMARK    2  A    between atoms: C_4  and  C_16 
REMARK    3  A    between atoms: C_9  and  C_11 
REMARK    4  A    between atoms: C_11  and  C_14 
REMARK    5  A    between atoms: C_11  and  N_20 
REMARK    6  A    between atoms: C_12  and  C_19 
REMARK    7  A    between atoms: C_14  and  C_16 
REMARK       I    between atoms: C_19  and  N_20 
ROOT
HETATM    1  C           1     -35.866  -0.862 -13.099  0.00  0.00     0.185 C 
ENDROOT
BRANCH   1   2
HETATM    2  C           1     -35.165   0.124 -14.001  0.00  0.00     0.196 C 
HETATM    3  O           1     -34.959  -0.164 -15.200  0.00  0.00    -0.646 OA
HETATM    4  O           1     -34.792   1.227 -13.550  0.00  0.00    -0.646 OA
ENDBRANCH   1   2
BRANCH   1   5
HETATM    5  C           1     -36.988  -0.155 -12.350  0.00  0.00     0.038 C 
BRANCH   5   6
HETATM    6  C           1     -36.984  -0.598 -10.893  0.00  0.00     0.030 C 
BRANCH   6   7
HETATM    7  C           1     -37.583   0.502 -10.025  0.00  0.00     0.230 C 
BRANCH   7   8
HETATM    8  N           1     -36.483   1.239  -9.321  0.00  0.00    -0.079 N 
HETATM    9  H           1     -36.450   2.225  -9.663  0.00  0.00     0.274 HD
HETATM   10  H           1     -36.664   1.233  -8.292  0.00  0.00     0.274 HD
HETATM   11  H           1     -35.569   0.772  -9.517  0.00  0.00     0.274 HD
ENDBRANCH   7   8
ENDBRANCH   6   7
ENDBRANCH   5   6
ENDBRANCH   1   5
BRANCH   1  12
HETATM   12  N           1     -34.917  -1.405 -12.146  0.00  0.00    -0.345 N 
HETATM   13  H           1     -34.757  -0.932 -11.266  0.00  0.00     0.163 HD
HETATM   14  C           1     -34.236  -2.556 -12.438  0.00  0.00     0.251 C 
HETATM   15  O           1     -34.427  -3.121 -13.488  0.00  0.00    -0.271 OA
BRANCH  14  16
HETATM   16  C           1     -33.248  -3.120 -11.447  0.00  0.00     0.311 C 
HETATM   17  C           1     -32.625  -4.401 -11.973  0.00  0.00     0.047 C 
HETATM   18  C           1     -33.470  -5.524 -11.384  0.00  0.00     0.033 C 
HETATM   19  C           1     -34.528  -4.827 -10.545  0.00  0.00     0.271 C 
HETATM   20  N           1     -33.922  -3.539 -10.221  0.00  0.00     0.097 N 
HETATM   21  H           1     -33.252  -3.660  -9.462  0.00  0.00     0.317 HD
ENDBRANCH  14  16
ENDBRANCH   1  12
TORSDOF 7
ENDMDL
MODEL 2
REMARK VINA RESULT:      -6.4      2.241      3.251
REMARK  7 active torsions:
REMARK  status: ('A' for Active; 'I' for Inactive)
REMARK    1  A    between atoms: C_4  and  N_5 
REMARK    2  A    between atoms: C_4  and  C_16 
REMARK    3  A    between atoms: C_9  and  C_11 
REMARK    4  A    between atoms: C_11  and  C_14 
REMARK    5  A    between atoms: C_11  and  N_20 
REMARK    6  A    between atoms: C_12  and  C_19 
REMARK    7  A    between atoms: C_14  and  C_16 
REMARK       I    between atoms: C_19  and  N_20 
ROOT
HETATM    1  C           1     -35.360  -0.327 -12.526  0.00  0.00     0.185 C 
ENDROOT
BRANCH   1   2
HETATM    2  C           1     -36.863  -0.225 -12.433  0.00  0.00     0.196 C 
HETATM    3  O           1     -37.580  -0.735 -13.321  0.00  0.00    -0.646 OA
HETATM    4  O           1     -37.391   0.369 -11.468  0.00  0.00    -0.646 OA
ENDBRANCH   1   2
BRANCH   1   5
HETATM    5  C           1     -34.831   0.789 -13.417  0.00  0.00     0.038 C 
BRANCH   5   6
HETATM    6  C           1     -34.938   0.367 -14.877  0.00  0.00     0.030 C 
BRANCH   6   7
HETATM    7  C           1     -35.700   1.429 -15.659  0.00  0.00     0.230 C 
BRANCH   7   8
HETATM    8  N           1     -37.142   1.031 -15.769  0.00  0.00    -0.079 N 
HETATM    9  H           1     -37.211   0.087 -16.211  0.00  0.00     0.274 HD
HETATM   10  H           1     -37.568   1.001 -14.816  0.00  0.00     0.274 HD
HETATM   11  H           1     -37.652   1.729 -16.357  0.00  0.00     0.274 HD
ENDBRANCH   7   8
ENDBRANCH   6   7
ENDBRANCH   5   6
ENDBRANCH   1   5
BRANCH   1  12
HETATM   12  N           1     -34.997  -1.611 -13.093  0.00  0.00    -0.345 N 
HETATM   13  H           1     -34.776  -1.685 -14.079  0.00  0.00     0.163 HD
HETATM   14  C           1     -34.954  -2.724 -12.297  0.00  0.00     0.251 C 
HETATM   15  O           1     -35.217  -2.636 -11.122  0.00  0.00    -0.271 OA
BRANCH  14  16
HETATM   16  C           1     -34.577  -4.060 -12.888  0.00  0.00     0.311 C 
HETATM   17  C           1     -34.718  -5.166 -11.858  0.00  0.00     0.047 C 
HETATM   18  C           1     -33.329  -5.327 -11.254  0.00  0.00     0.033 C 
HETATM   19  C           1     -32.462  -4.309 -11.976  0.00  0.00     0.271 C 
HETATM   20  N           1     -33.160  -4.092 -13.240  0.00  0.00     0.097 N 
HETATM   21  H           1     -32.961  -4.865 -13.875  0.00  0.00     0.317 HD
ENDBRANCH  14  16
ENDBRANCH   1  12
TORSDOF 7
ENDMDL
MODEL 3
REMARK VINA RESULT:      -6.2     11.738     13.821
REMARK  7 active torsions:
REMARK  status: ('A' for Active; 'I' for Inactive)
REMARK    1  A    between atoms: C_4  and  N_5 
REMARK    2  A    between atoms: C_4  and  C_16 
REMARK    3  A    between atoms: C_9  and  C_11 
REMARK    4  A    between atoms: C_11  and  C_14 
REMARK    5  A    between atoms: C_11  and  N_20 
REMARK    6  A    between atoms: C_12  and  C_19 
REMARK    7  A    between atoms: C_14  and  C_16 
REMARK       I    between atoms: C_19  and  N_20 
ROOT
HETATM    1  C           1     -22.613  -3.579 -10.092  0.00  0.00     0.185 C 
ENDROOT
BRANCH   1   2
HETATM    2  C           1     -24.101  -3.833 -10.102  0.00  0.00     0.196 C 
HETATM    3  O           1     -24.545  -4.929 -10.508  0.00  0.00    -0.646 OA
HETATM    4  O           1     -24.888  -2.948  -9.705  0.00  0.00    -0.646 OA
ENDBRANCH   1   2
BRANCH   1   5
HETATM    5  C           1     -22.096  -3.541 -11.524  0.00  0.00     0.038 C 
BRANCH   5   6
HETATM    6  C           1     -22.808  -2.434 -12.292  0.00  0.00     0.030 C 
BRANCH   6   7
HETATM    7  C           1     -23.165  -2.931 -13.687  0.00  0.00     0.230 C 
BRANCH   7   8
HETATM    8  N           1     -23.933  -4.215 -13.580  0.00  0.00    -0.079 N 
HETATM    9  H           1     -24.791  -4.061 -13.005  0.00  0.00     0.274 HD
HETATM   10  H           1     -24.206  -4.537 -14.536  0.00  0.00     0.274 HD
HETATM   11  H           1     -23.335  -4.941 -13.125  0.00  0.00     0.274 HD
ENDBRANCH   7   8
ENDBRANCH   6   7
ENDBRANCH   5   6
ENDBRANCH   1   5
BRANCH   1  12
HETATM   12  N           1     -21.946  -4.643  -9.366  0.00  0.00    -0.345 N 
HETATM   13  H           1     -21.435  -5.356  -9.871  0.00  0.00     0.163 HD
HETATM   14  C           1     -22.009  -4.683  -8.000  0.00  0.00     0.251 C 
HETATM   15  O           1     -22.620  -3.832  -7.398  0.00  0.00    -0.271 OA
BRANCH  14  16
HETATM   16  C           1     -21.316  -5.790  -7.245  0.00  0.00     0.311 C 
HETATM   17  C           1     -21.219  -5.459  -5.766  0.00  0.00     0.047 C 
HETATM   18  C           1     -19.846  -4.824  -5.590  0.00  0.00     0.033 C 
HETATM   19  C           1     -19.225  -4.832  -6.977  0.00  0.00     0.271 C 
HETATM   20  N           1     -19.924  -5.913  -7.666  0.00  0.00     0.097 N 
HETATM   21  H           1     -19.534  -6.810  -7.373  0.00  0.00     0.317 HD
ENDBRANCH  14  16
ENDBRANCH   1  12
TORSDOF 7
ENDMDL
MODEL 4
REMARK VINA RESULT:      -5.9      2.173      5.482
REMARK  7 active torsions:
REMARK  status: ('A' for Active; 'I' for Inactive)
REMARK    1  A    between atoms: C_4  and  N_5 
REMARK    2  A    between atoms: C_4  and  C_16 
REMARK    3  A    between atoms: C_9  and  C_11 
REMARK    4  A    between atoms: C_11  and  C_14 
REMARK    5  A    between atoms: C_11  and  N_20 
REMARK    6  A    between atoms: C_12  and  C_19 
REMARK    7  A    between atoms: C_14  and  C_16 
REMARK       I    between atoms: C_19  and  N_20 
ROOT
HETATM    1  C           1     -34.601  -3.748 -11.841  0.00  0.00     0.185 C 
ENDROOT
BRANCH   1   2
HETATM    2  C           1     -34.468  -4.433 -13.180  0.00  0.00     0.196 C 
HETATM    3  O           1     -33.716  -3.953 -14.055  0.00  0.00    -0.646 OA
HETATM    4  O           1     -35.109  -5.480 -13.412  0.00  0.00    -0.646 OA
ENDBRANCH   1   2
BRANCH   1   5
HETATM    5  C           1     -35.286  -4.688 -10.858  0.00  0.00     0.038 C 
BRANCH   5   6
HETATM    6  C           1     -34.238  -5.549 -10.164  0.00  0.00     0.030 C 
BRANCH   6   7
HETATM    7  C           1     -34.800  -6.947  -9.936  0.00  0.00     0.230 C 
BRANCH   7   8
HETATM    8  N           1     -34.945  -7.650 -11.253  0.00  0.00    -0.079 N 
HETATM    9  H           1     -34.170  -7.360 -11.890  0.00  0.00     0.274 HD
HETATM   10  H           1     -34.905  -8.683 -11.102  0.00  0.00     0.274 HD
HETATM   11  H           1     -35.863  -7.396 -11.683  0.00  0.00     0.274 HD
ENDBRANCH   7   8
ENDBRANCH   6   7
ENDBRANCH   5   6
ENDBRANCH   1   5
BRANCH   1  12
HETATM   12  N           1     -35.394  -2.544 -11.991  0.00  0.00    -0.345 N 
HETATM   13  H           1     -36.336  -2.601 -12.359  0.00  0.00     0.163 HD
HETATM   14  C           1     -34.870  -1.330 -11.637  0.00  0.00     0.251 C 
HETATM   15  O           1     -33.747  -1.262 -11.198  0.00  0.00    -0.271 OA
BRANCH  14  16
HETATM   16  C           1     -35.696  -0.077 -11.794  0.00  0.00     0.311 C 
HETATM   17  C           1     -36.950  -0.354 -12.603  0.00  0.00     0.047 C 
HETATM   18  C           1     -36.588   0.010 -14.037  0.00  0.00     0.033 C 
HETATM   19  C           1     -35.145   0.483 -13.973  0.00  0.00     0.271 C 
HETATM   20  N           1     -34.982   0.919 -12.589  0.00  0.00     0.097 N 
HETATM   21  H           1     -35.399   1.842 -12.473  0.00  0.00     0.317 HD
ENDBRANCH  14  16
ENDBRANCH   1  12
TORSDOF 7
ENDMDL
MODEL 5
REMARK VINA RESULT:      -5.7     11.827     13.694
REMARK  7 active torsions:
REMARK  status: ('A' for Active; 'I' for Inactive)
REMARK    1  A    between atoms: C_4  and  N_5 
REMARK    2  A    between atoms: C_4  and  C_16 
REMARK    3  A    between atoms: C_9  and  C_11 
REMARK    4  A    between atoms: C_11  and  C_14 
REMARK    5  A    between atoms: C_11  and  N_20 
REMARK    6  A    between atoms: C_12  and  C_19 
REMARK    7  A    between atoms: C_14  and  C_16 
REMARK       I    between atoms: C_19  and  N_20 
ROOT
HETATM    1  C           1     -22.102  -4.395 -11.123  0.00  0.00     0.185 C 
ENDROOT
BRANCH   1   2
HETATM    2  C           1     -22.037  -3.212 -12.059  0.00  0.00     0.196 C 
HETATM    3  O           1     -22.592  -3.269 -13.177  0.00  0.00    -0.646 OA
HETATM    4  O           1     -21.427  -2.177 -11.716  0.00  0.00    -0.646 OA
ENDBRANCH   1   2
BRANCH   1   5
HETATM    5  C           1     -23.525  -4.933 -11.085  0.00  0.00     0.038 C 
BRANCH   5   6
HETATM    6  C           1     -24.132  -4.669  -9.712  0.00  0.00     0.030 C 
BRANCH   6   7
HETATM    7  C           1     -24.739  -3.272  -9.685  0.00  0.00     0.230 C 
BRANCH   7   8
HETATM    8  N           1     -26.233  -3.377  -9.594  0.00  0.00    -0.079 N 
HETATM    9  H           1     -26.638  -2.434  -9.403  0.00  0.00     0.274 HD
HETATM   10  H           1     -26.611  -3.742 -10.497  0.00  0.00     0.274 HD
HETATM   11  H           1     -26.489  -4.030  -8.819  0.00  0.00     0.274 HD
ENDBRANCH   7   8
ENDBRANCH   6   7
ENDBRANCH   5   6
ENDBRANCH   1   5
BRANCH   1  12
HETATM   12  N           1     -21.707  -3.978  -9.791  0.00  0.00    -0.345 N 
HETATM   13  H           1     -22.324  -3.396  -9.238  0.00  0.00     0.163 HD
HETATM   14  C           1     -20.499  -4.371  -9.281  0.00  0.00     0.251 C 
HETATM   15  O           1     -19.762  -5.065  -9.940  0.00  0.00    -0.271 OA
BRANCH  14  16
HETATM   16  C           1     -20.088  -3.937  -7.895  0.00  0.00     0.311 C 
HETATM   17  C           1     -19.343  -5.049  -7.179  0.00  0.00     0.047 C 
HETATM   18  C           1     -20.404  -5.775  -6.361  0.00  0.00     0.033 C 
HETATM   19  C           1     -21.700  -5.035  -6.647  0.00  0.00     0.271 C 
HETATM   20  N           1     -21.259  -3.705  -7.055  0.00  0.00     0.097 N 
HETATM   21  H           1     -21.010  -3.161  -6.229  0.00  0.00     0.317 HD
ENDBRANCH  14  16
ENDBRANCH   1  12
TORSDOF 7
ENDMDL
MODEL 6
REMARK VINA RESULT:      -5.5      2.116      4.765
REMARK  7 active torsions:
REMARK  status: ('A' for Active; 'I' for Inactive)
REMARK    1  A    between atoms: C_4  and  N_5 
REMARK    2  A    between atoms: C_4  and  C_16 
REMARK    3  A    between atoms: C_9  and  C_11 
REMARK    4  A    between atoms: C_11  and  C_14 
REMARK    5  A    between atoms: C_11  and  N_20 
REMARK    6  A    between atoms: C_12  and  C_19 
REMARK    7  A    between atoms: C_14  and  C_16 
REMARK       I    between atoms: C_19  and  N_20 
ROOT
HETATM    1  C           1     -35.261  -0.882 -12.131  0.00  0.00     0.185 C 
ENDROOT
BRANCH   1   2
HETATM    2  C           1     -34.810  -2.291 -12.431  0.00  0.00     0.196 C 
HETATM    3  O           1     -34.506  -3.062 -11.496  0.00  0.00    -0.646 OA
HETATM    4  O           1     -34.743  -2.687 -13.615  0.00  0.00    -0.646 OA
ENDBRANCH   1   2
BRANCH   1   5
HETATM    5  C           1     -36.056  -0.871 -10.833  0.00  0.00     0.038 C 
BRANCH   5   6
HETATM    6  C           1     -37.383  -0.157 -11.057  0.00  0.00     0.030 C 
BRANCH   6   7
HETATM    7  C           1     -37.708   0.706  -9.844  0.00  0.00     0.230 C 
BRANCH   7   8
HETATM    8  N           1     -36.434   1.213  -9.234  0.00  0.00    -0.079 N 
HETATM    9  H           1     -36.145   0.580  -8.455  0.00  0.00     0.274 HD
HETATM   10  H           1     -35.685   1.235  -9.962  0.00  0.00     0.274 HD
HETATM   11  H           1     -36.587   2.177  -8.861  0.00  0.00     0.274 HD
ENDBRANCH   7   8
ENDBRANCH   6   7
ENDBRANCH   5   6
ENDBRANCH   1   5
BRANCH   1  12
HETATM   12  N           1     -36.097  -0.401 -13.215  0.00  0.00    -0.345 N 
HETATM   13  H           1     -37.080  -0.642 -13.240  0.00  0.00     0.163 HD
HETATM   14  C           1     -35.557   0.377 -14.203  0.00  0.00     0.251 C 
HETATM   15  O           1     -34.384   0.664 -14.172  0.00  0.00    -0.271 OA
BRANCH  14  16
HETATM   16  C           1     -36.427   0.876 -15.330  0.00  0.00     0.311 C 
HETATM   17  C           1     -37.812   0.260 -15.257  0.00  0.00     0.047 C 
HETATM   18  C           1     -37.757  -0.953 -16.176  0.00  0.00     0.033 C 
HETATM   19  C           1     -36.343  -0.965 -16.733  0.00  0.00     0.271 C 
HETATM   20  N           1     -35.913   0.426 -16.621  0.00  0.00     0.097 N 
HETATM   21  H           1     -36.320   0.970 -17.382  0.00  0.00     0.317 HD
ENDBRANCH  14  16
ENDBRANCH   1  12
TORSDOF 7
ENDMDL
MODEL 7
REMARK VINA RESULT:      -5.3     15.197     17.390
REMARK  7 active torsions:
REMARK  status: ('A' for Active; 'I' for Inactive)
REMARK    1  A    between atoms: C_4  and  N_5 
REMARK    2  A    between atoms: C_4  and  C_16 
REMARK    3  A    between atoms: C_9  and  C_11 
REMARK    4  A    between atoms: C_11  and  C_14 
REMARK    5  A    between atoms: C_11  and  N_20 
REMARK    6  A    between atoms: C_12  and  C_19 
REMARK    7  A    between atoms: C_14  and  C_16 
REMARK       I    between atoms: C_19  and  N_20 
ROOT
HETATM    1  C           1     -21.595  -7.290  -4.079  0.00  0.00     0.185 C 
ENDROOT
BRANCH   1   2
HETATM    2  C           1     -21.704  -6.935  -2.616  0.00  0.00     0.196 C 
HETATM    3  O           1     -22.442  -5.994  -2.254  0.00  0.00    -0.646 OA
HETATM    4  O           1     -21.057  -7.584  -1.766  0.00  0.00    -0.646 OA
ENDBRANCH   1   2
BRANCH   1   5
HETATM    5  C           1     -20.933  -8.653  -4.222  0.00  0.00     0.038 C 
BRANCH   5   6
HETATM    6  C           1     -19.601  -8.498  -4.944  0.00  0.00     0.030 C 
BRANCH   6   7
HETATM    7  C           1     -18.535  -9.317  -4.228  0.00  0.00     0.230 C 
BRANCH   7   8
HETATM    8  N           1     -18.746  -9.226  -2.745  0.00  0.00    -0.079 N 
HETATM    9  H           1     -18.753  -8.223  -2.454  0.00  0.00     0.274 HD
HETATM   10  H           1     -19.660  -9.667  -2.497  0.00  0.00     0.274 HD
HETATM   11  H           1     -17.972  -9.726  -2.252  0.00  0.00     0.274 HD
ENDBRANCH   7   8
ENDBRANCH   6   7
ENDBRANCH   5   6
ENDBRANCH   1   5
BRANCH   1  12
HETATM   12  N           1     -20.794  -6.290  -4.760  0.00  0.00    -0.345 N 
HETATM   13  H           1     -19.794  -6.252  -4.605  0.00  0.00     0.163 HD
HETATM   14  C           1     -21.390  -5.398  -5.609  0.00  0.00     0.251 C 
HETATM   15  O           1     -22.582  -5.443  -5.793  0.00  0.00    -0.271 OA
BRANCH  14  16
HETATM   16  C           1     -20.556  -4.357  -6.316  0.00  0.00     0.311 C 
HETATM   17  C           1     -21.384  -3.609  -7.345  0.00  0.00     0.047 C 
HETATM   18  C           1     -21.136  -4.335  -8.661  0.00  0.00     0.033 C 
HETATM   19  C           1     -20.172  -5.458  -8.318  0.00  0.00     0.271 C 
HETATM   20  N           1     -19.503  -4.986  -7.109  0.00  0.00     0.097 N 
HETATM   21  H           1     -18.785  -4.307  -7.361  0.00  0.00     0.317 HD
ENDBRANCH  14  16
ENDBRANCH   1  12
TORSDOF 7
ENDMDL
MODEL 8
REMARK VINA RESULT:      -5.2      2.250      5.761
REMARK  7 active torsions:
REMARK  status: ('A' for Active; 'I' for Inactive)
REMARK    1  A    between atoms: C_4  and  N_5 
REMARK    2  A    between atoms: C_4  and  C_16 
REMARK    3  A    between atoms: C_9  and  C_11 
REMARK    4  A    between atoms: C_11  and  C_14 
REMARK    5  A    between atoms: C_11  and  N_20 
REMARK    6  A    between atoms: C_12  and  C_19 
REMARK    7  A    between atoms: C_14  and  C_16 
REMARK       I    between atoms: C_19  and  N_20 
ROOT
HETATM    1  C           1     -34.505  -3.949 -11.189  0.00  0.00     0.185 C 
ENDROOT
BRANCH   1   2
HETATM    2  C           1     -33.476  -3.969 -12.293  0.00  0.00     0.196 C 
HETATM    3  O           1     -32.275  -4.188 -12.025  0.00  0.00    -0.646 OA
HETATM    4  O           1     -33.826  -3.767 -13.476  0.00  0.00    -0.646 OA
ENDBRANCH   1   2
BRANCH   1   5
HETATM    5  C           1     -35.129  -5.330 -11.053  0.00  0.00     0.038 C 
BRANCH   5   6
HETATM    6  C           1     -34.222  -6.217 -10.209  0.00  0.00     0.030 C 
BRANCH   6   7
HETATM    7  C           1     -34.770  -7.639 -10.196  0.00  0.00     0.230 C 
BRANCH   7   8
HETATM    8  N           1     -33.633  -8.614 -10.279  0.00  0.00    -0.079 N 
HETATM    9  H           1     -33.519  -8.934 -11.267  0.00  0.00     0.274 HD
HETATM   10  H           1     -32.753  -8.151  -9.959  0.00  0.00     0.274 HD
HETATM   11  H           1     -33.836  -9.438  -9.668  0.00  0.00     0.274 HD
ENDBRANCH   7   8
ENDBRANCH   6   7
ENDBRANCH   5   6
ENDBRANCH   1   5
BRANCH   1  12
HETATM   12  N           1     -35.537  -2.981 -11.508  0.00  0.00    -0.345 N 
HETATM   13  H           1     -36.318  -3.249 -12.093  0.00  0.00     0.163 HD
HETATM   14  C           1     -35.455  -1.705 -11.019  0.00  0.00     0.251 C 
HETATM   15  O           1     -34.522  -1.386 -10.321  0.00  0.00    -0.271 OA
BRANCH  14  16
HETATM   16  C           1     -36.528  -0.699 -11.352  0.00  0.00     0.311 C 
HETATM   17  C           1     -36.154   0.680 -10.840  0.00  0.00     0.047 C 
HETATM   18  C           1     -36.825   0.795  -9.477  0.00  0.00     0.033 C 
HETATM   19  C           1     -37.555  -0.524  -9.283  0.00  0.00     0.271 C 
HETATM   20  N           1     -37.767  -1.008 -10.643  0.00  0.00     0.097 N 
HETATM   21  H           1     -38.556  -0.514 -11.061  0.00  0.00     0.317 HD
ENDBRANCH  14  16
ENDBRANCH   1  12
TORSDOF 7
ENDMDL
MODEL 9
REMARK VINA RESULT:      -5.2     14.840     16.580
REMARK  7 active torsions:
REMARK  status: ('A' for Active; 'I' for Inactive)
REMARK    1  A    between atoms: C_4  and  N_5 
REMARK    2  A    between atoms: C_4  and  C_16 
REMARK    3  A    between atoms: C_9  and  C_11 
REMARK    4  A    between atoms: C_11  and  C_14 
REMARK    5  A    between atoms: C_11  and  N_20 
REMARK    6  A    between atoms: C_12  and  C_19 
REMARK    7  A    between atoms: C_14  and  C_16 
REMARK       I    between atoms: C_19  and  N_20 
ROOT
HETATM    1  C           1     -20.919  -6.617  -4.705  0.00  0.00     0.185 C 
ENDROOT
BRANCH   1   2
HETATM    2  C           1     -20.553  -7.887  -5.434  0.00  0.00     0.196 C 
HETATM    3  O           1     -19.358  -8.126  -5.712  0.00  0.00    -0.646 OA
HETATM    4  O           1     -21.445  -8.700  -5.760  0.00  0.00    -0.646 OA
ENDBRANCH   1   2
BRANCH   1   5
HETATM    5  C           1     -21.988  -6.921  -3.664  0.00  0.00     0.038 C 
BRANCH   5   6
HETATM    6  C           1     -21.728  -6.093  -2.412  0.00  0.00     0.030 C 
BRANCH   6   7
HETATM    7  C           1     -22.317  -6.804  -1.201  0.00  0.00     0.230 C 
BRANCH   7   8
HETATM    8  N           1     -21.886  -8.241  -1.205  0.00  0.00    -0.079 N 
HETATM    9  H           1     -21.356  -8.449  -0.329  0.00  0.00     0.274 HD
HETATM   10  H           1     -22.729  -8.857  -1.256  0.00  0.00     0.274 HD
HETATM   11  H           1     -21.274  -8.419  -2.033  0.00  0.00     0.274 HD
ENDBRANCH   7   8
ENDBRANCH   6   7
ENDBRANCH   5   6
ENDBRANCH   1   5
BRANCH   1  12
HETATM   12  N           1     -21.429  -5.646  -5.653  0.00  0.00    -0.345 N 
HETATM   13  H           1     -22.397  -5.688  -5.949  0.00  0.00     0.163 HD
HETATM   14  C           1     -20.604  -4.673  -6.148  0.00  0.00     0.251 C 
HETATM   15  O           1     -19.450  -4.623  -5.795  0.00  0.00    -0.271 OA
BRANCH  14  16
HETATM   16  C           1     -21.135  -3.663  -7.135  0.00  0.00     0.311 C 
HETATM   17  C           1     -22.433  -4.146  -7.757  0.00  0.00     0.047 C 
HETATM   18  C           1     -22.024  -4.824  -9.058  0.00  0.00     0.033 C 
HETATM   19  C           1     -20.512  -4.688  -9.117  0.00  0.00     0.271 C 
HETATM   20  N           1     -20.233  -3.527  -8.276  0.00  0.00     0.097 N 
HETATM   21  H           1     -20.434  -2.674  -8.797  0.00  0.00     0.317 HD
ENDBRANCH  14  16
ENDBRANCH   1  12
TORSDOF 7
ENDMDL
