MODEL 1
REMARK VINA RESULT:      -7.1      0.000      0.000
REMARK  9 active torsions:
REMARK  status: ('A' for Active; 'I' for Inactive)
REMARK    1  A    between atoms: C_2  and  C_21 
REMARK    2  A    between atoms: C_2  and  C_3 
REMARK    3  A    between atoms: C_2  and  N_8 
REMARK    4  A    between atoms: C_4  and  C_19 
REMARK    5  A    between atoms: P_5  and  O_6 
REMARK    6  A    between atoms: P_5  and  O_10 
REMARK    7  A    between atoms: O_6  and  C_23 
REMARK    8  A    between atoms: N_13  and  C_19 
REMARK       I    between atoms: N_13  and  C_21 
REMARK    9  A    between atoms: C_19  and  C_23 
ROOT
HETATM    1  O           1     -33.828  -1.906 -11.067  0.00  0.00    -0.271 OA
HETATM    2  N           1     -34.977  -1.524 -12.944  0.00  0.00    -0.343 N 
HETATM    3  H           1     -35.400  -1.901 -13.782  0.00  0.00     0.163 HD
HETATM    4  C           1     -34.334  -2.356 -12.068  0.00  0.00     0.249 C 
ENDROOT
BRANCH   2   5
HETATM    5  C           1     -35.054  -0.101 -12.669  0.00  0.00     0.210 C 
BRANCH   5   6
HETATM    6  C           1     -36.262   0.180 -11.811  0.00  0.00     0.198 C 
HETATM    7  O           1     -37.411   0.036 -12.282  0.00  0.00    -0.646 OA
HETATM    8  O           1     -36.115   0.557 -10.628  0.00  0.00    -0.646 OA
ENDBRANCH   5   6
BRANCH   5   9
HETATM    9  C           1     -35.174   0.662 -13.982  0.00  0.00     0.217 C 
BRANCH   9  10
HETATM   10  O           1     -35.246  -0.248 -15.047  0.00  0.00    -0.287 OA
BRANCH  10  11
HETATM   11  P           1     -36.581  -0.173 -15.952  0.00  0.00     0.406 P 
HETATM   12  O           1     -37.000   1.238 -16.099  0.00  0.00    -0.624 OA
HETATM   13  O           1     -37.664  -0.943 -15.299  0.00  0.00    -0.624 OA
BRANCH  11  14
HETATM   14  O           1     -36.277  -0.799 -17.410  0.00  0.00    -0.300 OA
HETATM   15  H           1     -35.339  -0.881 -17.448  0.00  0.00     0.223 HD
ENDBRANCH  11  14
ENDBRANCH  10  11
ENDBRANCH   9  10
ENDBRANCH   5   9
ENDBRANCH   2   5
BRANCH   4  16
HETATM   16  C           1     -34.253  -3.835 -12.354  0.00  0.00     0.278 C 
BRANCH  16  17
HETATM   17  C           1     -33.279  -4.488 -11.382  0.00  0.00     0.017 C 
HETATM   18  C           1     -33.864  -5.800 -10.879  0.00  0.00     0.012 C 
HETATM   19  C           1     -31.960  -4.761 -12.094  0.00  0.00     0.012 C 
ENDBRANCH  16  17
BRANCH  16  20
HETATM   20  N           1     -33.774  -4.048 -13.760  0.00  0.00    -0.066 N 
HETATM   21  H           1     -33.800  -5.067 -13.987  0.00  0.00     0.275 HD
HETATM   22  H           1     -34.396  -3.529 -14.420  0.00  0.00     0.275 HD
HETATM   23  H           1     -32.795  -3.695 -13.850  0.00  0.00     0.275 HD
ENDBRANCH  16  20
ENDBRANCH   4  16
TORSDOF 9
ENDMDL
MODEL 2
REMARK VINA RESULT:      -6.3      1.294      2.028
REMARK  9 active torsions:
REMARK  status: ('A' for Active; 'I' for Inactive)
REMARK    1  A    between atoms: C_2  and  C_21 
REMARK    2  A    between atoms: C_2  and  C_3 
REMARK    3  A    between atoms: C_2  and  N_8 
REMARK    4  A    between atoms: C_4  and  C_19 
REMARK    5  A    between atoms: P_5  and  O_6 
REMARK    6  A    between atoms: P_5  and  O_10 
REMARK    7  A    between atoms: O_6  and  C_23 
REMARK    8  A    between atoms: N_13  and  C_19 
REMARK       I    between atoms: N_13  and  C_21 
REMARK    9  A    between atoms: C_19  and  C_23 
ROOT
HETATM    1  O           1     -34.024  -1.130 -11.385  0.00  0.00    -0.271 OA
HETATM    2  N           1     -35.782  -1.584 -12.685  0.00  0.00    -0.343 N 
HETATM    3  H           1     -36.263  -2.252 -13.274  0.00  0.00     0.163 HD
HETATM    4  C           1     -34.599  -1.927 -12.089  0.00  0.00     0.249 C 
ENDROOT
BRANCH   2   5
HETATM    5  C           1     -36.347  -0.265 -12.471  0.00  0.00     0.210 C 
BRANCH   5   6
HETATM    6  C           1     -36.999  -0.212 -11.111  0.00  0.00     0.198 C 
HETATM    7  O           1     -36.547   0.552 -10.231  0.00  0.00    -0.646 OA
HETATM    8  O           1     -37.990  -0.932 -10.864  0.00  0.00    -0.646 OA
ENDBRANCH   5   6
BRANCH   5   9
HETATM    9  C           1     -37.388   0.020 -13.546  0.00  0.00     0.217 C 
BRANCH   9  10
HETATM   10  O           1     -37.168  -0.822 -14.645  0.00  0.00    -0.287 OA
BRANCH  10  11
HETATM   11  P           1     -36.278  -0.204 -15.843  0.00  0.00     0.406 P 
HETATM   12  O           1     -36.711  -0.787 -17.131  0.00  0.00    -0.624 OA
HETATM   13  O           1     -34.851  -0.522 -15.612  0.00  0.00    -0.624 OA
BRANCH  11  14
HETATM   14  O           1     -36.474   1.399 -15.885  0.00  0.00    -0.300 OA
HETATM   15  H           1     -35.636   1.739 -16.152  0.00  0.00     0.223 HD
ENDBRANCH  11  14
ENDBRANCH  10  11
ENDBRANCH   9  10
ENDBRANCH   5   9
ENDBRANCH   2   5
BRANCH   4  16
HETATM   16  C           1     -34.011  -3.298 -12.311  0.00  0.00     0.278 C 
BRANCH  16  17
HETATM   17  C           1     -35.001  -4.358 -11.844  0.00  0.00     0.017 C 
HETATM   18  C           1     -34.249  -5.626 -11.466  0.00  0.00     0.012 C 
HETATM   19  C           1     -35.764  -3.839 -10.633  0.00  0.00     0.012 C 
ENDBRANCH  16  17
BRANCH  16  20
HETATM   20  N           1     -32.736  -3.429 -11.531  0.00  0.00    -0.066 N 
HETATM   21  H           1     -32.067  -4.036 -12.055  0.00  0.00     0.275 HD
HETATM   22  H           1     -32.314  -2.483 -11.395  0.00  0.00     0.275 HD
HETATM   23  H           1     -32.940  -3.858 -10.601  0.00  0.00     0.275 HD
ENDBRANCH  16  20
ENDBRANCH   4  16
TORSDOF 9
ENDMDL
MODEL 3
REMARK VINA RESULT:      -5.7     13.582     15.862
REMARK  9 active torsions:
REMARK  status: ('A' for Active; 'I' for Inactive)
REMARK    1  A    between atoms: C_2  and  C_21 
REMARK    2  A    between atoms: C_2  and  C_3 
REMARK    3  A    between atoms: C_2  and  N_8 
REMARK    4  A    between atoms: C_4  and  C_19 
REMARK    5  A    between atoms: P_5  and  O_6 
REMARK    6  A    between atoms: P_5  and  O_10 
REMARK    7  A    between atoms: O_6  and  C_23 
REMARK    8  A    between atoms: N_13  and  C_19 
REMARK       I    between atoms: N_13  and  C_21 
REMARK    9  A    between atoms: C_19  and  C_23 
ROOT
HETATM    1  O           1     -20.827  -7.920  -6.072  0.00  0.00    -0.271 OA
HETATM    2  N           1     -21.802  -5.938  -5.744  0.00  0.00    -0.343 N 
HETATM    3  H           1     -22.351  -5.342  -5.137  0.00  0.00     0.163 HD
HETATM    4  C           1     -21.482  -7.208  -5.347  0.00  0.00     0.249 C 
ENDROOT
BRANCH   2   5
HETATM    5  C           1     -21.354  -5.445  -7.032  0.00  0.00     0.210 C 
BRANCH   5   6
HETATM    6  C           1     -20.006  -4.785  -6.876  0.00  0.00     0.198 C 
HETATM    7  O           1     -19.606  -4.441  -5.743  0.00  0.00    -0.646 OA
HETATM    8  O           1     -19.290  -4.581  -7.880  0.00  0.00    -0.646 OA
ENDBRANCH   5   6
BRANCH   5   9
HETATM    9  C           1     -22.359  -4.432  -7.564  0.00  0.00     0.217 C 
BRANCH   9  10
HETATM   10  O           1     -22.157  -4.251  -8.940  0.00  0.00    -0.287 OA
BRANCH  10  11
HETATM   11  P           1     -23.483  -3.976  -9.820  0.00  0.00     0.406 P 
HETATM   12  O           1     -24.004  -5.259 -10.340  0.00  0.00    -0.624 OA
HETATM   13  O           1     -23.149  -3.084 -10.952  0.00  0.00    -0.624 OA
BRANCH  11  14
HETATM   14  O           1     -24.606  -3.276  -8.894  0.00  0.00    -0.300 OA
HETATM   15  H           1     -24.233  -2.446  -8.645  0.00  0.00     0.223 HD
ENDBRANCH  11  14
ENDBRANCH  10  11
ENDBRANCH   9  10
ENDBRANCH   5   9
ENDBRANCH   2   5
BRANCH   4  16
HETATM   16  C           1     -21.949  -7.721  -4.007  0.00  0.00     0.278 C 
BRANCH  16  17
HETATM   17  C           1     -21.185  -7.010  -2.897  0.00  0.00     0.017 C 
HETATM   18  C           1     -22.151  -6.179  -2.065  0.00  0.00     0.012 C 
HETATM   19  C           1     -20.507  -8.043  -2.007  0.00  0.00     0.012 C 
ENDBRANCH  16  17
BRANCH  16  20
HETATM   20  N           1     -21.696  -9.197  -3.920  0.00  0.00    -0.066 N 
HETATM   21  H           1     -22.412  -9.707  -4.485  0.00  0.00     0.275 HD
HETATM   22  H           1     -20.744  -9.409  -4.294  0.00  0.00     0.275 HD
HETATM   23  H           1     -21.756  -9.502  -2.923  0.00  0.00     0.275 HD
ENDBRANCH  16  20
ENDBRANCH   4  16
TORSDOF 9
ENDMDL
MODEL 4
REMARK VINA RESULT:      -5.7     25.142     26.270
REMARK  9 active torsions:
REMARK  status: ('A' for Active; 'I' for Inactive)
REMARK    1  A    between atoms: C_2  and  C_21 
REMARK    2  A    between atoms: C_2  and  C_3 
REMARK    3  A    between atoms: C_2  and  N_8 
REMARK    4  A    between atoms: C_4  and  C_19 
REMARK    5  A    between atoms: P_5  and  O_6 
REMARK    6  A    between atoms: P_5  and  O_10 
REMARK    7  A    between atoms: O_6  and  C_23 
REMARK    8  A    between atoms: N_13  and  C_19 
REMARK       I    between atoms: N_13  and  C_21 
REMARK    9  A    between atoms: C_19  and  C_23 
ROOT
HETATM    1  O           1     -11.493   3.121 -21.406  0.00  0.00    -0.271 OA
HETATM    2  N           1     -11.529   5.353 -21.373  0.00  0.00    -0.343 N 
HETATM    3  H           1     -12.007   6.207 -21.632  0.00  0.00     0.163 HD
HETATM    4  C           1     -12.064   4.141 -21.715  0.00  0.00     0.249 C 
ENDROOT
BRANCH   2   5
HETATM    5  C           1     -10.280   5.415 -20.639  0.00  0.00     0.210 C 
BRANCH   5   6
HETATM    6  C           1     -10.567   5.427 -19.158  0.00  0.00     0.198 C 
HETATM    7  O           1      -9.673   5.759 -18.351  0.00  0.00    -0.646 OA
HETATM    8  O           1     -11.699   5.104 -18.739  0.00  0.00    -0.646 OA
ENDBRANCH   5   6
BRANCH   5   9
HETATM    9  C           1      -9.530   6.685 -21.022  0.00  0.00     0.217 C 
BRANCH   9  10
HETATM   10  O           1     -10.445   7.730 -21.209  0.00  0.00    -0.287 OA
BRANCH  10  11
HETATM   11  P           1     -10.146   9.088 -20.387  0.00  0.00     0.406 P 
HETATM   12  O           1     -11.188  10.091 -20.695  0.00  0.00    -0.624 OA
HETATM   13  O           1      -8.820   9.619 -20.777  0.00  0.00    -0.624 OA
BRANCH  11  14
HETATM   14  O           1     -10.156   8.770 -18.803  0.00  0.00    -0.300 OA
HETATM   15  H           1      -9.769   7.914 -18.724  0.00  0.00     0.223 HD
ENDBRANCH  11  14
ENDBRANCH  10  11
ENDBRANCH   9  10
ENDBRANCH   5   9
ENDBRANCH   2   5
BRANCH   4  16
HETATM   16  C           1     -13.363   4.076 -22.479  0.00  0.00     0.278 C 
BRANCH  16  17
HETATM   17  C           1     -14.296   5.177 -21.989  0.00  0.00     0.017 C 
HETATM   18  C           1     -15.514   5.254 -22.898  0.00  0.00     0.012 C 
HETATM   19  C           1     -14.742   4.867 -20.566  0.00  0.00     0.012 C 
ENDBRANCH  16  17
BRANCH  16  20
HETATM   20  N           1     -14.009   2.740 -22.257  0.00  0.00    -0.066 N 
HETATM   21  H           1     -15.025   2.873 -22.053  0.00  0.00     0.275 HD
HETATM   22  H           1     -13.899   2.155 -23.115  0.00  0.00     0.275 HD
HETATM   23  H           1     -13.551   2.263 -21.448  0.00  0.00     0.275 HD
ENDBRANCH  16  20
ENDBRANCH   4  16
TORSDOF 9
ENDMDL
MODEL 5
REMARK VINA RESULT:      -5.5     16.655     18.747
REMARK  9 active torsions:
REMARK  status: ('A' for Active; 'I' for Inactive)
REMARK    1  A    between atoms: C_2  and  C_21 
REMARK    2  A    between atoms: C_2  and  C_3 
REMARK    3  A    between atoms: C_2  and  N_8 
REMARK    4  A    between atoms: C_4  and  C_19 
REMARK    5  A    between atoms: P_5  and  O_6 
REMARK    6  A    between atoms: P_5  and  O_10 
REMARK    7  A    between atoms: O_6  and  C_23 
REMARK    8  A    between atoms: N_13  and  C_19 
REMARK       I    between atoms: N_13  and  C_21 
REMARK    9  A    between atoms: C_19  and  C_23 
ROOT
HETATM    1  O           1     -21.822  -9.688  -2.207  0.00  0.00    -0.271 OA
HETATM    2  N           1     -20.655  -8.063  -3.198  0.00  0.00    -0.343 N 
HETATM    3  H           1     -20.228  -7.148  -3.127  0.00  0.00     0.163 HD
HETATM    4  C           1     -21.312  -8.596  -2.122  0.00  0.00     0.249 C 
ENDROOT
BRANCH   2   5
HETATM    5  C           1     -20.568  -8.810  -4.439  0.00  0.00     0.210 C 
BRANCH   5   6
HETATM    6  C           1     -19.119  -8.987  -4.818  0.00  0.00     0.198 C 
HETATM    7  O           1     -18.779  -8.950  -6.021  0.00  0.00    -0.646 OA
HETATM    8  O           1     -18.258  -9.170  -3.931  0.00  0.00    -0.646 OA
ENDBRANCH   5   6
BRANCH   5   9
HETATM    9  C           1     -21.294  -8.048  -5.540  0.00  0.00     0.217 C 
BRANCH   9  10
HETATM   10  O           1     -21.400  -6.697  -5.182  0.00  0.00    -0.287 OA
BRANCH  10  11
HETATM   11  P           1     -20.798  -5.634  -6.239  0.00  0.00     0.406 P 
HETATM   12  O           1     -20.082  -4.564  -5.510  0.00  0.00    -0.624 OA
HETATM   13  O           1     -21.901  -5.042  -7.027  0.00  0.00    -0.624 OA
BRANCH  11  14
HETATM   14  O           1     -19.770  -6.389  -7.231  0.00  0.00    -0.300 OA
HETATM   15  H           1     -18.983  -5.872  -7.205  0.00  0.00     0.223 HD
ENDBRANCH  11  14
ENDBRANCH  10  11
ENDBRANCH   9  10
ENDBRANCH   5   9
ENDBRANCH   2   5
BRANCH   4  16
HETATM   16  C           1     -21.402  -7.819  -0.832  0.00  0.00     0.278 C 
BRANCH  16  17
HETATM   17  C           1     -21.977  -8.712   0.260  0.00  0.00     0.017 C 
HETATM   18  C           1     -21.034  -8.724   1.455  0.00  0.00     0.012 C 
HETATM   19  C           1     -23.336  -8.176   0.690  0.00  0.00     0.012 C 
ENDBRANCH  16  17
BRANCH  16  20
HETATM   20  N           1     -22.296  -6.630  -1.026  0.00  0.00    -0.066 N 
HETATM   21  H           1     -22.469  -6.169  -0.104  0.00  0.00     0.275 HD
HETATM   22  H           1     -21.835  -5.951  -1.673  0.00  0.00     0.275 HD
HETATM   23  H           1     -23.205  -6.942  -1.435  0.00  0.00     0.275 HD
ENDBRANCH  16  20
ENDBRANCH   4  16
TORSDOF 9
ENDMDL
MODEL 6
REMARK VINA RESULT:      -5.4     13.672     16.544
REMARK  9 active torsions:
REMARK  status: ('A' for Active; 'I' for Inactive)
REMARK    1  A    between atoms: C_2  and  C_21 
REMARK    2  A    between atoms: C_2  and  C_3 
REMARK    3  A    between atoms: C_2  and  N_8 
REMARK    4  A    between atoms: C_4  and  C_19 
REMARK    5  A    between atoms: P_5  and  O_6 
REMARK    6  A    between atoms: P_5  and  O_10 
REMARK    7  A    between atoms: O_6  and  C_23 
REMARK    8  A    between atoms: N_13  and  C_19 
REMARK       I    between atoms: N_13  and  C_21 
REMARK    9  A    between atoms: C_19  and  C_23 
ROOT
HETATM    1  O           1     -23.411  -3.939  -8.069  0.00  0.00    -0.271 OA
HETATM    2  N           1     -21.553  -5.172  -7.959  0.00  0.00    -0.343 N 
HETATM    3  H           1     -20.837  -5.690  -8.453  0.00  0.00     0.163 HD
HETATM    4  C           1     -22.556  -4.557  -8.658  0.00  0.00     0.249 C 
ENDROOT
BRANCH   2   5
HETATM    5  C           1     -21.515  -5.081  -6.512  0.00  0.00     0.210 C 
BRANCH   5   6
HETATM    6  C           1     -20.125  -4.698  -6.069  0.00  0.00     0.198 C 
HETATM    7  O           1     -19.896  -4.462  -4.863  0.00  0.00    -0.646 OA
HETATM    8  O           1     -19.202  -4.616  -6.908  0.00  0.00    -0.646 OA
ENDBRANCH   5   6
BRANCH   5   9
HETATM    9  C           1     -21.887  -6.430  -5.910  0.00  0.00     0.217 C 
BRANCH   9  10
HETATM   10  O           1     -20.890  -7.368  -6.211  0.00  0.00    -0.287 OA
BRANCH  10  11
HETATM   11  P           1     -20.688  -8.556  -5.136  0.00  0.00     0.406 P 
HETATM   12  O           1     -19.290  -8.550  -4.651  0.00  0.00    -0.624 OA
HETATM   13  O           1     -20.982  -9.857  -5.777  0.00  0.00    -0.624 OA
BRANCH  11  14
HETATM   14  O           1     -21.691  -8.329  -3.891  0.00  0.00    -0.300 OA
HETATM   15  H           1     -21.173  -7.887  -3.239  0.00  0.00     0.223 HD
ENDBRANCH  11  14
ENDBRANCH  10  11
ENDBRANCH   9  10
ENDBRANCH   5   9
ENDBRANCH   2   5
BRANCH   4  16
HETATM   16  C           1     -22.595  -4.652 -10.164  0.00  0.00     0.278 C 
BRANCH  16  17
HETATM   17  C           1     -21.862  -3.461 -10.767  0.00  0.00     0.017 C 
HETATM   18  C           1     -20.470  -3.891 -11.209  0.00  0.00     0.012 C 
HETATM   19  C           1     -22.639  -2.944 -11.971  0.00  0.00     0.012 C 
ENDBRANCH  16  17
BRANCH  16  20
HETATM   20  N           1     -24.022  -4.647 -10.628  0.00  0.00    -0.066 N 
HETATM   21  H           1     -24.113  -4.033 -11.468  0.00  0.00     0.275 HD
HETATM   22  H           1     -24.309  -5.621 -10.876  0.00  0.00     0.275 HD
HETATM   23  H           1     -24.635  -4.286  -9.863  0.00  0.00     0.275 HD
ENDBRANCH  16  20
ENDBRANCH   4  16
TORSDOF 9
ENDMDL
MODEL 7
REMARK VINA RESULT:      -5.2     24.627     25.799
REMARK  9 active torsions:
REMARK  status: ('A' for Active; 'I' for Inactive)
REMARK    1  A    between atoms: C_2  and  C_21 
REMARK    2  A    between atoms: C_2  and  C_3 
REMARK    3  A    between atoms: C_2  and  N_8 
REMARK    4  A    between atoms: C_4  and  C_19 
REMARK    5  A    between atoms: P_5  and  O_6 
REMARK    6  A    between atoms: P_5  and  O_10 
REMARK    7  A    between atoms: O_6  and  C_23 
REMARK    8  A    between atoms: N_13  and  C_19 
REMARK       I    between atoms: N_13  and  C_21 
REMARK    9  A    between atoms: C_19  and  C_23 
ROOT
HETATM    1  O           1     -14.270   9.364 -18.003  0.00  0.00    -0.271 OA
HETATM    2  N           1     -12.792  10.156 -19.478  0.00  0.00    -0.343 N 
HETATM    3  H           1     -12.467  10.939 -20.031  0.00  0.00     0.163 HD
HETATM    4  C           1     -13.882  10.300 -18.663  0.00  0.00     0.249 C 
ENDROOT
BRANCH   2   5
HETATM    5  C           1     -12.103   8.882 -19.550  0.00  0.00     0.210 C 
BRANCH   5   6
HETATM    6  C           1     -10.620   9.103 -19.383  0.00  0.00     0.198 C 
HETATM    7  O           1      -9.964   9.658 -20.291  0.00  0.00    -0.646 OA
HETATM    8  O           1     -10.047   8.732 -18.336  0.00  0.00    -0.646 OA
ENDBRANCH   5   6
BRANCH   5   9
HETATM    9  C           1     -12.371   8.236 -20.903  0.00  0.00     0.217 C 
BRANCH   9  10
HETATM   10  O           1     -11.706   7.003 -20.973  0.00  0.00    -0.287 OA
BRANCH  10  11
HETATM   11  P           1     -12.446   5.758 -20.258  0.00  0.00     0.406 P 
HETATM   12  O           1     -13.829   6.144 -19.902  0.00  0.00    -0.624 OA
HETATM   13  O           1     -11.708   5.384 -19.031  0.00  0.00    -0.624 OA
BRANCH  11  14
HETATM   14  O           1     -12.482   4.501 -21.271  0.00  0.00    -0.300 OA
HETATM   15  H           1     -11.581   4.346 -21.498  0.00  0.00     0.223 HD
ENDBRANCH  11  14
ENDBRANCH  10  11
ENDBRANCH   9  10
ENDBRANCH   5   9
ENDBRANCH   2   5
BRANCH   4  16
HETATM   16  C           1     -14.599  11.625 -18.588  0.00  0.00     0.278 C 
BRANCH  16  17
HETATM   17  C           1     -15.856  11.476 -17.741  0.00  0.00     0.017 C 
HETATM   18  C           1     -15.564  11.919 -16.315  0.00  0.00     0.012 C 
HETATM   19  C           1     -16.966  12.340 -18.324  0.00  0.00     0.012 C 
ENDBRANCH  16  17
BRANCH  16  20
HETATM   20  N           1     -14.979  12.066 -19.971  0.00  0.00    -0.066 N 
HETATM   21  H           1     -14.320  12.809 -20.294  0.00  0.00     0.275 HD
HETATM   22  H           1     -14.929  11.250 -20.622  0.00  0.00     0.275 HD
HETATM   23  H           1     -15.953  12.445 -19.960  0.00  0.00     0.275 HD
ENDBRANCH  16  20
ENDBRANCH   4  16
TORSDOF 9
ENDMDL
MODEL 8
REMARK VINA RESULT:      -5.2     17.191     19.312
REMARK  9 active torsions:
REMARK  status: ('A' for Active; 'I' for Inactive)
REMARK    1  A    between atoms: C_2  and  C_21 
REMARK    2  A    between atoms: C_2  and  C_3 
REMARK    3  A    between atoms: C_2  and  N_8 
REMARK    4  A    between atoms: C_4  and  C_19 
REMARK    5  A    between atoms: P_5  and  O_6 
REMARK    6  A    between atoms: P_5  and  O_10 
REMARK    7  A    between atoms: O_6  and  C_23 
REMARK    8  A    between atoms: N_13  and  C_19 
REMARK       I    between atoms: N_13  and  C_21 
REMARK    9  A    between atoms: C_19  and  C_23 
ROOT
HETATM    1  O           1     -19.905  -8.698  -1.547  0.00  0.00    -0.271 OA
HETATM    2  N           1     -21.678  -8.749  -2.904  0.00  0.00    -0.343 N 
HETATM    3  H           1     -22.590  -9.137  -3.109  0.00  0.00     0.163 HD
HETATM    4  C           1     -20.994  -9.161  -1.792  0.00  0.00     0.249 C 
ENDROOT
BRANCH   2   5
HETATM    5  C           1     -21.096  -7.756  -3.787  0.00  0.00     0.210 C 
BRANCH   5   6
HETATM    6  C           1     -21.953  -6.514  -3.780  0.00  0.00     0.198 C 
HETATM    7  O           1     -22.293  -5.997  -2.694  0.00  0.00    -0.646 OA
HETATM    8  O           1     -22.321  -6.003  -4.859  0.00  0.00    -0.646 OA
ENDBRANCH   5   6
BRANCH   5   9
HETATM    9  C           1     -21.024  -8.317  -5.201  0.00  0.00     0.217 C 
BRANCH   9  10
HETATM   10  O           1     -19.686  -8.367  -5.617  0.00  0.00    -0.287 OA
BRANCH  10  11
HETATM   11  P           1     -18.873  -9.707  -5.227  0.00  0.00     0.406 P 
HETATM   12  O           1     -17.901  -9.400  -4.155  0.00  0.00    -0.624 OA
HETATM   13  O           1     -18.152 -10.211  -6.417  0.00  0.00    -0.624 OA
BRANCH  11  14
HETATM   14  O           1     -19.910 -10.831  -4.707  0.00  0.00    -0.300 OA
HETATM   15  H           1     -19.395 -11.405  -4.165  0.00  0.00     0.223 HD
ENDBRANCH  11  14
ENDBRANCH  10  11
ENDBRANCH   9  10
ENDBRANCH   5   9
ENDBRANCH   2   5
BRANCH   4  16
HETATM   16  C           1     -21.599 -10.194  -0.874  0.00  0.00     0.278 C 
BRANCH  16  17
HETATM   17  C           1     -23.062  -9.854  -0.620  0.00  0.00     0.017 C 
HETATM   18  C           1     -23.777 -11.073  -0.055  0.00  0.00     0.012 C 
HETATM   19  C           1     -23.150  -8.707   0.378  0.00  0.00     0.012 C 
ENDBRANCH  16  17
BRANCH  16  20
HETATM   20  N           1     -20.856 -10.202   0.429  0.00  0.00    -0.066 N 
HETATM   21  H           1     -19.954  -9.686   0.320  0.00  0.00     0.275 HD
HETATM   22  H           1     -21.436  -9.738   1.163  0.00  0.00     0.275 HD
HETATM   23  H           1     -20.659 -11.189   0.711  0.00  0.00     0.275 HD
ENDBRANCH  16  20
ENDBRANCH   4  16
TORSDOF 9
ENDMDL
MODEL 9
REMARK VINA RESULT:      -5.2     17.557     19.120
REMARK  9 active torsions:
REMARK  status: ('A' for Active; 'I' for Inactive)
REMARK    1  A    between atoms: C_2  and  C_21 
REMARK    2  A    between atoms: C_2  and  C_3 
REMARK    3  A    between atoms: C_2  and  N_8 
REMARK    4  A    between atoms: C_4  and  C_19 
REMARK    5  A    between atoms: P_5  and  O_6 
REMARK    6  A    between atoms: P_5  and  O_10 
REMARK    7  A    between atoms: O_6  and  C_23 
REMARK    8  A    between atoms: N_13  and  C_19 
REMARK       I    between atoms: N_13  and  C_21 
REMARK    9  A    between atoms: C_19  and  C_23 
ROOT
HETATM    1  O           1     -19.597  -8.270  -5.454  0.00  0.00    -0.271 OA
HETATM    2  N           1     -21.147  -7.923  -3.885  0.00  0.00    -0.343 N 
HETATM    3  H           1     -21.997  -7.447  -3.610  0.00  0.00     0.163 HD
HETATM    4  C           1     -20.611  -7.702  -5.125  0.00  0.00     0.249 C 
ENDROOT
BRANCH   2   5
HETATM    5  C           1     -20.500  -8.841  -2.968  0.00  0.00     0.210 C 
BRANCH   5   6
HETATM    6  C           1     -21.198 -10.177  -3.018  0.00  0.00     0.198 C 
HETATM    7  O           1     -20.711 -11.159  -2.417  0.00  0.00    -0.646 OA
HETATM    8  O           1     -22.263 -10.302  -3.659  0.00  0.00    -0.646 OA
ENDBRANCH   5   6
BRANCH   5   9
HETATM    9  C           1     -20.574  -8.280  -1.554  0.00  0.00     0.217 C 
BRANCH   9  10
HETATM   10  O           1     -21.900  -7.931  -1.258  0.00  0.00    -0.287 OA
BRANCH  10  11
HETATM   11  P           1     -22.480  -8.483   0.145  0.00  0.00     0.406 P 
HETATM   12  O           1     -21.439  -8.367   1.189  0.00  0.00    -0.624 OA
HETATM   13  O           1     -22.872  -9.901  -0.006  0.00  0.00    -0.624 OA
BRANCH  11  14
HETATM   14  O           1     -23.770  -7.609   0.573  0.00  0.00    -0.300 OA
HETATM   15  H           1     -24.510  -8.167   0.402  0.00  0.00     0.223 HD
ENDBRANCH  11  14
ENDBRANCH  10  11
ENDBRANCH   9  10
ENDBRANCH   5   9
ENDBRANCH   2   5
BRANCH   4  16
HETATM   16  C           1     -21.285  -6.746  -6.079  0.00  0.00     0.278 C 
BRANCH  16  17
HETATM   17  C           1     -20.257  -5.762  -6.623  0.00  0.00     0.017 C 
HETATM   18  C           1     -20.733  -5.220  -7.964  0.00  0.00     0.012 C 
HETATM   19  C           1     -20.088  -4.612  -5.641  0.00  0.00     0.012 C 
ENDBRANCH  16  17
BRANCH  16  20
HETATM   20  N           1     -22.362  -5.993  -5.356  0.00  0.00    -0.066 N 
HETATM   21  H           1     -23.006  -6.669  -4.888  0.00  0.00     0.275 HD
HETATM   22  H           1     -21.928  -5.372  -4.637  0.00  0.00     0.275 HD
HETATM   23  H           1     -22.901  -5.415  -6.039  0.00  0.00     0.275 HD
ENDBRANCH  16  20
ENDBRANCH   4  16
TORSDOF 9
ENDMDL
