MODEL 1
REMARK VINA RESULT:      -6.5      0.000      0.000
REMARK  9 active torsions:
REMARK  status: ('A' for Active; 'I' for Inactive)
REMARK    1  A    between atoms: C_1  and  C_7 
REMARK    2  A    between atoms: C_5  and  C_13 
REMARK    3  A    between atoms: C_5  and  C_6 
REMARK    4  A    between atoms: C_7  and  C_17 
REMARK    5  A    between atoms: C_7  and  N_10 
REMARK    6  A    between atoms: C_8  and  C_9 
REMARK    7  A    between atoms: C_8  and  C_13 
REMARK    8  A    between atoms: C_8  and  N_15 
REMARK       I    between atoms: C_9  and  N_10 
REMARK    9  A    between atoms: C_16  and  C_17 
ROOT
HETATM    1  O           1     -33.600  -2.145 -11.074  0.00  0.00    -0.271 OA
HETATM    2  C           1     -34.336  -2.762 -11.806  0.00  0.00     0.249 C 
HETATM    3  N           1     -35.456  -2.160 -12.315  0.00  0.00    -0.345 N 
HETATM    4  H           1     -36.074  -2.677 -12.929  0.00  0.00     0.163 HD
ENDROOT
BRANCH   2   5
HETATM    5  C           1     -34.024  -4.195 -12.160  0.00  0.00     0.275 C 
BRANCH   5   6
HETATM    6  C           1     -34.597  -5.118 -11.094  0.00  0.00     0.053 C 
BRANCH   6   7
HETATM    7  C           1     -33.658  -6.300 -10.885  0.00  0.00     0.115 C 
BRANCH   7   8
HETATM    8  C           1     -34.380  -7.389 -10.131  0.00  0.00     0.172 C 
HETATM    9  O           1     -35.438  -7.130  -9.517  0.00  0.00    -0.648 OA
HETATM   10  O           1     -33.921  -8.551 -10.120  0.00  0.00    -0.648 OA
ENDBRANCH   7   8
ENDBRANCH   6   7
ENDBRANCH   5   6
BRANCH   5  11
HETATM   11  N           1     -32.537  -4.378 -12.232  0.00  0.00    -0.066 N 
HETATM   12  H           1     -32.201  -4.848 -11.361  0.00  0.00     0.275 HD
HETATM   13  H           1     -32.299  -4.970 -13.060  0.00  0.00     0.275 HD
HETATM   14  H           1     -32.075  -3.446 -12.324  0.00  0.00     0.275 HD
ENDBRANCH   5  11
ENDBRANCH   2   5
BRANCH   3  15
HETATM   15  C           1     -35.757  -0.783 -11.976  0.00  0.00     0.185 C 
BRANCH  15  16
HETATM   16  C           1     -36.654  -0.749 -10.763  0.00  0.00     0.196 C 
HETATM   17  O           1     -36.181  -0.453  -9.644  0.00  0.00    -0.646 OA
HETATM   18  O           1     -37.870  -1.015 -10.877  0.00  0.00    -0.646 OA
ENDBRANCH  15  16
BRANCH  15  19
HETATM   19  C           1     -36.462  -0.114 -13.148  0.00  0.00     0.040 C 
BRANCH  19  20
HETATM   20  C           1     -35.458   0.155 -14.261  0.00  0.00    -0.020 C 
HETATM   21  C           1     -36.195   0.644 -15.501  0.00  0.00     0.009 C 
HETATM   22  C           1     -34.468   1.218 -13.806  0.00  0.00     0.009 C 
ENDBRANCH  19  20
ENDBRANCH  15  19
ENDBRANCH   3  15
TORSDOF 9
ENDMDL
MODEL 2
REMARK VINA RESULT:      -6.4     12.036     13.666
REMARK  9 active torsions:
REMARK  status: ('A' for Active; 'I' for Inactive)
REMARK    1  A    between atoms: C_1  and  C_7 
REMARK    2  A    between atoms: C_5  and  C_13 
REMARK    3  A    between atoms: C_5  and  C_6 
REMARK    4  A    between atoms: C_7  and  C_17 
REMARK    5  A    between atoms: C_7  and  N_10 
REMARK    6  A    between atoms: C_8  and  C_9 
REMARK    7  A    between atoms: C_8  and  C_13 
REMARK    8  A    between atoms: C_8  and  N_15 
REMARK       I    between atoms: C_9  and  N_10 
REMARK    9  A    between atoms: C_16  and  C_17 
ROOT
HETATM    1  O           1     -21.575  -3.192  -7.847  0.00  0.00    -0.271 OA
HETATM    2  C           1     -22.377  -4.084  -7.711  0.00  0.00     0.249 C 
HETATM    3  N           1     -23.205  -4.423  -8.748  0.00  0.00    -0.345 N 
HETATM    4  H           1     -23.877  -5.171  -8.635  0.00  0.00     0.163 HD
ENDROOT
BRANCH   2   5
HETATM    5  C           1     -22.467  -4.827  -6.401  0.00  0.00     0.275 C 
BRANCH   5   6
HETATM    6  C           1     -21.537  -6.031  -6.435  0.00  0.00     0.053 C 
BRANCH   6   7
HETATM    7  C           1     -20.709  -6.071  -5.156  0.00  0.00     0.115 C 
BRANCH   7   8
HETATM    8  C           1     -21.510  -6.725  -4.058  0.00  0.00     0.172 C 
HETATM    9  O           1     -21.740  -7.953  -4.098  0.00  0.00    -0.648 OA
HETATM   10  O           1     -21.943  -6.039  -3.107  0.00  0.00    -0.648 OA
ENDBRANCH   7   8
ENDBRANCH   6   7
ENDBRANCH   5   6
BRANCH   5  11
HETATM   11  N           1     -23.877  -5.291  -6.186  0.00  0.00    -0.066 N 
HETATM   12  H           1     -24.499  -4.859  -6.907  0.00  0.00     0.275 HD
HETATM   13  H           1     -23.918  -6.332  -6.272  0.00  0.00     0.275 HD
HETATM   14  H           1     -24.197  -5.005  -5.234  0.00  0.00     0.275 HD
ENDBRANCH   5  11
ENDBRANCH   2   5
BRANCH   3  15
HETATM   15  C           1     -23.119  -3.710 -10.008  0.00  0.00     0.185 C 
BRANCH  15  16
HETATM   16  C           1     -24.494  -3.237 -10.412  0.00  0.00     0.196 C 
HETATM   17  O           1     -25.316  -2.887  -9.538  0.00  0.00    -0.646 OA
HETATM   18  O           1     -24.810  -3.195 -11.620  0.00  0.00    -0.646 OA
ENDBRANCH  15  16
BRANCH  15  19
HETATM   19  C           1     -22.566  -4.639 -11.079  0.00  0.00     0.040 C 
BRANCH  19  20
HETATM   20  C           1     -21.172  -4.178 -11.484  0.00  0.00    -0.020 C 
HETATM   21  C           1     -21.086  -2.661 -11.369  0.00  0.00     0.009 C 
HETATM   22  C           1     -20.139  -4.816 -10.565  0.00  0.00     0.009 C 
ENDBRANCH  19  20
ENDBRANCH  15  19
ENDBRANCH   3  15
TORSDOF 9
ENDMDL
MODEL 3
REMARK VINA RESULT:      -6.1     13.208     16.083
REMARK  9 active torsions:
REMARK  status: ('A' for Active; 'I' for Inactive)
REMARK    1  A    between atoms: C_1  and  C_7 
REMARK    2  A    between atoms: C_5  and  C_13 
REMARK    3  A    between atoms: C_5  and  C_6 
REMARK    4  A    between atoms: C_7  and  C_17 
REMARK    5  A    between atoms: C_7  and  N_10 
REMARK    6  A    between atoms: C_8  and  C_9 
REMARK    7  A    between atoms: C_8  and  C_13 
REMARK    8  A    between atoms: C_8  and  N_15 
REMARK       I    between atoms: C_9  and  N_10 
REMARK    9  A    between atoms: C_16  and  C_17 
ROOT
HETATM    1  O           1     -19.958  -4.361  -5.419  0.00  0.00    -0.271 OA
HETATM    2  C           1     -20.650  -4.818  -6.297  0.00  0.00     0.249 C 
HETATM    3  N           1     -21.068  -6.120  -6.231  0.00  0.00    -0.345 N 
HETATM    4  H           1     -21.648  -6.503  -6.967  0.00  0.00     0.163 HD
ENDROOT
BRANCH   2   5
HETATM    5  C           1     -21.053  -3.955  -7.467  0.00  0.00     0.275 C 
BRANCH   5   6
HETATM    6  C           1     -22.474  -4.302  -7.888  0.00  0.00     0.053 C 
BRANCH   6   7
HETATM    7  C           1     -22.758  -3.707  -9.262  0.00  0.00     0.115 C 
BRANCH   7   8
HETATM    8  C           1     -24.229  -3.837  -9.572  0.00  0.00     0.172 C 
HETATM    9  O           1     -24.972  -2.834  -9.511  0.00  0.00    -0.648 OA
HETATM   10  O           1     -24.704  -4.948  -9.892  0.00  0.00    -0.648 OA
ENDBRANCH   7   8
ENDBRANCH   6   7
ENDBRANCH   5   6
BRANCH   5  11
HETATM   11  N           1     -20.119  -4.202  -8.614  0.00  0.00    -0.066 N 
HETATM   12  H           1     -19.861  -3.290  -9.056  0.00  0.00     0.275 HD
HETATM   13  H           1     -19.255  -4.675  -8.264  0.00  0.00     0.275 HD
HETATM   14  H           1     -20.588  -4.810  -9.322  0.00  0.00     0.275 HD
ENDBRANCH   5  11
ENDBRANCH   2   5
BRANCH   3  15
HETATM   15  C           1     -20.681  -6.950  -5.106  0.00  0.00     0.185 C 
BRANCH  15  16
HETATM   16  C           1     -20.296  -8.322  -5.604  0.00  0.00     0.196 C 
HETATM   17  O           1     -19.099  -8.584  -5.849  0.00  0.00    -0.646 OA
HETATM   18  O           1     -21.174  -9.196  -5.769  0.00  0.00    -0.646 OA
ENDBRANCH  15  16
BRANCH  15  19
HETATM   19  C           1     -21.851  -7.070  -4.139  0.00  0.00     0.040 C 
BRANCH  19  20
HETATM   20  C           1     -21.331  -7.055  -2.707  0.00  0.00    -0.020 C 
HETATM   21  C           1     -22.204  -6.138  -1.861  0.00  0.00     0.009 C 
HETATM   22  C           1     -21.374  -8.466  -2.137  0.00  0.00     0.009 C 
ENDBRANCH  19  20
ENDBRANCH  15  19
ENDBRANCH   3  15
TORSDOF 9
ENDMDL
MODEL 4
REMARK VINA RESULT:      -6.1      4.426      6.138
REMARK  9 active torsions:
REMARK  status: ('A' for Active; 'I' for Inactive)
REMARK    1  A    between atoms: C_1  and  C_7 
REMARK    2  A    between atoms: C_5  and  C_13 
REMARK    3  A    between atoms: C_5  and  C_6 
REMARK    4  A    between atoms: C_7  and  C_17 
REMARK    5  A    between atoms: C_7  and  N_10 
REMARK    6  A    between atoms: C_8  and  C_9 
REMARK    7  A    between atoms: C_8  and  C_13 
REMARK    8  A    between atoms: C_8  and  N_15 
REMARK       I    between atoms: C_9  and  N_10 
REMARK    9  A    between atoms: C_16  and  C_17 
ROOT
HETATM    1  O           1     -35.030  -4.953 -15.500  0.00  0.00    -0.271 OA
HETATM    2  C           1     -33.916  -4.490 -15.528  0.00  0.00     0.249 C 
HETATM    3  N           1     -33.361  -3.973 -14.388  0.00  0.00    -0.345 N 
HETATM    4  H           1     -32.426  -3.584 -14.411  0.00  0.00     0.163 HD
ENDROOT
BRANCH   2   5
HETATM    5  C           1     -33.134  -4.480 -16.819  0.00  0.00     0.275 C 
BRANCH   5   6
HETATM    6  C           1     -31.656  -4.689 -16.519  0.00  0.00     0.053 C 
BRANCH   6   7
HETATM    7  C           1     -31.206  -6.029 -17.088  0.00  0.00     0.115 C 
BRANCH   7   8
HETATM    8  C           1     -29.771  -6.285 -16.698  0.00  0.00     0.172 C 
HETATM    9  O           1     -29.320  -5.815 -15.631  0.00  0.00    -0.648 OA
HETATM   10  O           1     -29.034  -6.969 -17.441  0.00  0.00    -0.648 OA
ENDBRANCH   7   8
ENDBRANCH   6   7
ENDBRANCH   5   6
BRANCH   5  11
HETATM   11  N           1     -33.322  -3.160 -17.506  0.00  0.00    -0.066 N 
HETATM   12  H           1     -33.714  -3.318 -18.462  0.00  0.00     0.275 HD
HETATM   13  H           1     -33.984  -2.571 -16.952  0.00  0.00     0.275 HD
HETATM   14  H           1     -32.401  -2.673 -17.583  0.00  0.00     0.275 HD
ENDBRANCH   5  11
ENDBRANCH   2   5
BRANCH   3  15
HETATM   15  C           1     -34.111  -3.982 -13.147  0.00  0.00     0.185 C 
BRANCH  15  16
HETATM   16  C           1     -34.570  -2.580 -12.827  0.00  0.00     0.196 C 
HETATM   17  O           1     -35.078  -1.870 -13.721  0.00  0.00    -0.646 OA
HETATM   18  O           1     -34.443  -2.131 -11.668  0.00  0.00    -0.646 OA
ENDBRANCH  15  16
BRANCH  15  19
HETATM   19  C           1     -33.224  -4.496 -12.021  0.00  0.00     0.040 C 
BRANCH  19  20
HETATM   20  C           1     -33.890  -5.692 -11.353  0.00  0.00    -0.020 C 
HETATM   21  C           1     -34.360  -5.297  -9.959  0.00  0.00     0.009 C 
HETATM   22  C           1     -35.084  -6.138 -12.185  0.00  0.00     0.009 C 
ENDBRANCH  19  20
ENDBRANCH  15  19
ENDBRANCH   3  15
TORSDOF 9
ENDMDL
MODEL 5
REMARK VINA RESULT:      -5.9     12.360     13.887
REMARK  9 active torsions:
REMARK  status: ('A' for Active; 'I' for Inactive)
REMARK    1  A    between atoms: C_1  and  C_7 
REMARK    2  A    between atoms: C_5  and  C_13 
REMARK    3  A    between atoms: C_5  and  C_6 
REMARK    4  A    between atoms: C_7  and  C_17 
REMARK    5  A    between atoms: C_7  and  N_10 
REMARK    6  A    between atoms: C_8  and  C_9 
REMARK    7  A    between atoms: C_8  and  C_13 
REMARK    8  A    between atoms: C_8  and  N_15 
REMARK       I    between atoms: C_9  and  N_10 
REMARK    9  A    between atoms: C_16  and  C_17 
ROOT
HETATM    1  O           1     -20.841  -3.430  -7.991  0.00  0.00    -0.271 OA
HETATM    2  C           1     -21.294  -4.545  -7.890  0.00  0.00     0.249 C 
HETATM    3  N           1     -22.256  -4.974  -8.764  0.00  0.00    -0.345 N 
HETATM    4  H           1     -22.636  -5.909  -8.679  0.00  0.00     0.163 HD
ENDROOT
BRANCH   2   5
HETATM    5  C           1     -20.800  -5.464  -6.800  0.00  0.00     0.275 C 
BRANCH   5   6
HETATM    6  C           1     -21.987  -6.003  -6.014  0.00  0.00     0.053 C 
BRANCH   6   7
HETATM    7  C           1     -21.583  -7.284  -5.296  0.00  0.00     0.115 C 
BRANCH   7   8
HETATM    8  C           1     -21.584  -7.048  -3.806  0.00  0.00     0.172 C 
HETATM    9  O           1     -21.598  -5.881  -3.357  0.00  0.00    -0.648 OA
HETATM   10  O           1     -21.573  -8.020  -3.019  0.00  0.00    -0.648 OA
ENDBRANCH   7   8
ENDBRANCH   6   7
ENDBRANCH   5   6
BRANCH   5  11
HETATM   11  N           1     -19.895  -4.703  -5.878  0.00  0.00    -0.066 N 
HETATM   12  H           1     -19.455  -3.910  -6.397  0.00  0.00     0.275 HD
HETATM   13  H           1     -20.450  -4.328  -5.076  0.00  0.00     0.275 HD
HETATM   14  H           1     -19.148  -5.340  -5.518  0.00  0.00     0.275 HD
ENDBRANCH   5  11
ENDBRANCH   2   5
BRANCH   3  15
HETATM   15  C           1     -22.730  -4.091  -9.812  0.00  0.00     0.185 C 
BRANCH  15  16
HETATM   16  C           1     -24.221  -3.900  -9.671  0.00  0.00     0.196 C 
HETATM   17  O           1     -24.986  -4.887  -9.726  0.00  0.00    -0.646 OA
HETATM   18  O           1     -24.690  -2.755  -9.497  0.00  0.00    -0.646 OA
ENDBRANCH  15  16
BRANCH  15  19
HETATM   19  C           1     -22.424  -4.706 -11.171  0.00  0.00     0.040 C 
BRANCH  19  20
HETATM   20  C           1     -21.817  -3.649 -12.083  0.00  0.00    -0.020 C 
HETATM   21  C           1     -22.922  -2.755 -12.630  0.00  0.00     0.009 C 
HETATM   22  C           1     -20.825  -2.806 -11.293  0.00  0.00     0.009 C 
ENDBRANCH  19  20
ENDBRANCH  15  19
ENDBRANCH   3  15
TORSDOF 9
ENDMDL
MODEL 6
REMARK VINA RESULT:      -5.8     11.929     14.506
REMARK  9 active torsions:
REMARK  status: ('A' for Active; 'I' for Inactive)
REMARK    1  A    between atoms: C_1  and  C_7 
REMARK    2  A    between atoms: C_5  and  C_13 
REMARK    3  A    between atoms: C_5  and  C_6 
REMARK    4  A    between atoms: C_7  and  C_17 
REMARK    5  A    between atoms: C_7  and  N_10 
REMARK    6  A    between atoms: C_8  and  C_9 
REMARK    7  A    between atoms: C_8  and  C_13 
REMARK    8  A    between atoms: C_8  and  N_15 
REMARK       I    between atoms: C_9  and  N_10 
REMARK    9  A    between atoms: C_16  and  C_17 
ROOT
HETATM    1  O           1     -23.615  -3.275  -9.484  0.00  0.00    -0.271 OA
HETATM    2  C           1     -22.890  -4.034 -10.081  0.00  0.00     0.249 C 
HETATM    3  N           1     -22.027  -4.842  -9.389  0.00  0.00    -0.345 N 
HETATM    4  H           1     -21.419  -5.479  -9.889  0.00  0.00     0.163 HD
ENDROOT
BRANCH   2   5
HETATM    5  C           1     -22.933  -4.092 -11.588  0.00  0.00     0.275 C 
BRANCH   5   6
HETATM    6  C           1     -23.789  -2.949 -12.116  0.00  0.00     0.053 C 
BRANCH   6   7
HETATM    7  C           1     -22.988  -2.139 -13.128  0.00  0.00     0.115 C 
BRANCH   7   8
HETATM    8  C           1     -23.132  -2.760 -14.496  0.00  0.00     0.172 C 
HETATM    9  O           1     -22.444  -2.336 -15.450  0.00  0.00    -0.648 OA
HETATM   10  O           1     -23.937  -3.698 -14.675  0.00  0.00    -0.648 OA
ENDBRANCH   7   8
ENDBRANCH   6   7
ENDBRANCH   5   6
BRANCH   5  11
HETATM   11  N           1     -23.526  -5.401 -12.020  0.00  0.00    -0.066 N 
HETATM   12  H           1     -22.766  -6.033 -12.357  0.00  0.00     0.275 HD
HETATM   13  H           1     -24.015  -5.845 -11.210  0.00  0.00     0.275 HD
HETATM   14  H           1     -24.209  -5.236 -12.793  0.00  0.00     0.275 HD
ENDBRANCH   5  11
ENDBRANCH   2   5
BRANCH   3  15
HETATM   15  C           1     -21.986  -4.787  -7.941  0.00  0.00     0.185 C 
BRANCH  15  16
HETATM   16  C           1     -20.966  -3.762  -7.507  0.00  0.00     0.196 C 
HETATM   17  O           1     -21.296  -2.844  -6.726  0.00  0.00    -0.646 OA
HETATM   18  O           1     -19.791  -3.833  -7.928  0.00  0.00    -0.646 OA
ENDBRANCH  15  16
BRANCH  15  19
HETATM   19  C           1     -21.598  -6.153  -7.392  0.00  0.00     0.040 C 
BRANCH  19  20
HETATM   20  C           1     -21.325  -6.043  -5.898  0.00  0.00    -0.020 C 
HETATM   21  C           1     -22.559  -6.486  -5.123  0.00  0.00     0.009 C 
HETATM   22  C           1     -20.147  -6.935  -5.530  0.00  0.00     0.009 C 
ENDBRANCH  19  20
ENDBRANCH  15  19
ENDBRANCH   3  15
TORSDOF 9
ENDMDL
MODEL 7
REMARK VINA RESULT:      -5.6     15.381     18.074
REMARK  9 active torsions:
REMARK  status: ('A' for Active; 'I' for Inactive)
REMARK    1  A    between atoms: C_1  and  C_7 
REMARK    2  A    between atoms: C_5  and  C_13 
REMARK    3  A    between atoms: C_5  and  C_6 
REMARK    4  A    between atoms: C_7  and  C_17 
REMARK    5  A    between atoms: C_7  and  N_10 
REMARK    6  A    between atoms: C_8  and  C_9 
REMARK    7  A    between atoms: C_8  and  C_13 
REMARK    8  A    between atoms: C_8  and  N_15 
REMARK       I    between atoms: C_9  and  N_10 
REMARK    9  A    between atoms: C_16  and  C_17 
ROOT
HETATM    1  O           1     -22.390 -10.293  -3.508  0.00  0.00    -0.271 OA
HETATM    2  C           1     -21.418  -9.595  -3.344  0.00  0.00     0.249 C 
HETATM    3  N           1     -21.219  -8.970  -2.141  0.00  0.00    -0.345 N 
HETATM    4  H           1     -20.405  -8.385  -2.004  0.00  0.00     0.163 HD
ENDROOT
BRANCH   2   5
HETATM    5  C           1     -20.424  -9.410  -4.464  0.00  0.00     0.275 C 
BRANCH   5   6
HETATM    6  C           1     -20.200  -7.923  -4.704  0.00  0.00     0.053 C 
BRANCH   6   7
HETATM    7  C           1     -21.320  -7.375  -5.580  0.00  0.00     0.115 C 
BRANCH   7   8
HETATM    8  C           1     -22.169  -6.423  -4.775  0.00  0.00     0.172 C 
HETATM    9  O           1     -23.271  -6.037  -5.221  0.00  0.00    -0.648 OA
HETATM   10  O           1     -21.771  -6.021  -3.660  0.00  0.00    -0.648 OA
ENDBRANCH   7   8
ENDBRANCH   6   7
ENDBRANCH   5   6
BRANCH   5  11
HETATM   11  N           1     -20.957 -10.043  -5.714  0.00  0.00    -0.066 N 
HETATM   12  H           1     -20.174 -10.501  -6.234  0.00  0.00     0.275 HD
HETATM   13  H           1     -21.673 -10.761  -5.462  0.00  0.00     0.275 HD
HETATM   14  H           1     -21.393  -9.310  -6.317  0.00  0.00     0.275 HD
ENDBRANCH   5  11
ENDBRANCH   2   5
BRANCH   3  15
HETATM   15  C           1     -22.174  -9.149  -1.065  0.00  0.00     0.185 C 
BRANCH  15  16
HETATM   16  C           1     -22.291  -7.865  -0.280  0.00  0.00     0.196 C 
HETATM   17  O           1     -21.928  -7.828   0.915  0.00  0.00    -0.646 OA
HETATM   18  O           1     -22.748  -6.838  -0.826  0.00  0.00    -0.646 OA
ENDBRANCH  15  16
BRANCH  15  19
HETATM   19  C           1     -21.699 -10.265  -0.145  0.00  0.00     0.040 C 
BRANCH  19  20
HETATM   20  C           1     -22.616 -11.472  -0.294  0.00  0.00    -0.020 C 
HETATM   21  C           1     -22.304 -12.483   0.802  0.00  0.00     0.009 C 
HETATM   22  C           1     -24.066 -11.025  -0.175  0.00  0.00     0.009 C 
ENDBRANCH  19  20
ENDBRANCH  15  19
ENDBRANCH   3  15
TORSDOF 9
ENDMDL
MODEL 8
REMARK VINA RESULT:      -5.6     12.586     15.225
REMARK  9 active torsions:
REMARK  status: ('A' for Active; 'I' for Inactive)
REMARK    1  A    between atoms: C_1  and  C_7 
REMARK    2  A    between atoms: C_5  and  C_13 
REMARK    3  A    between atoms: C_5  and  C_6 
REMARK    4  A    between atoms: C_7  and  C_17 
REMARK    5  A    between atoms: C_7  and  N_10 
REMARK    6  A    between atoms: C_8  and  C_9 
REMARK    7  A    between atoms: C_8  and  C_13 
REMARK    8  A    between atoms: C_8  and  N_15 
REMARK       I    between atoms: C_9  and  N_10 
REMARK    9  A    between atoms: C_16  and  C_17 
ROOT
HETATM    1  O           1     -22.439  -3.443  -8.358  0.00  0.00    -0.271 OA
HETATM    2  C           1     -21.597  -4.021  -9.002  0.00  0.00     0.249 C 
HETATM    3  N           1     -20.810  -4.969  -8.404  0.00  0.00    -0.345 N 
HETATM    4  H           1     -20.105  -5.455  -8.944  0.00  0.00     0.163 HD
ENDROOT
BRANCH   2   5
HETATM    5  C           1     -21.413  -3.701 -10.465  0.00  0.00     0.275 C 
BRANCH   5   6
HETATM    6  C           1     -22.728  -3.915 -11.201  0.00  0.00     0.053 C 
BRANCH   6   7
HETATM    7  C           1     -23.058  -2.675 -12.023  0.00  0.00     0.115 C 
BRANCH   7   8
HETATM    8  C           1     -24.173  -2.993 -12.988  0.00  0.00     0.172 C 
HETATM    9  O           1     -23.907  -3.349 -14.157  0.00  0.00    -0.648 OA
HETATM   10  O           1     -25.364  -2.903 -12.619  0.00  0.00    -0.648 OA
ENDBRANCH   7   8
ENDBRANCH   6   7
ENDBRANCH   5   6
BRANCH   5  11
HETATM   11  N           1     -20.364  -4.603 -11.045  0.00  0.00    -0.066 N 
HETATM   12  H           1     -19.474  -4.069 -11.165  0.00  0.00     0.275 HD
HETATM   13  H           1     -20.201  -5.408 -10.398  0.00  0.00     0.275 HD
HETATM   14  H           1     -20.684  -4.959 -11.973  0.00  0.00     0.275 HD
ENDBRANCH   5  11
ENDBRANCH   2   5
BRANCH   3  15
HETATM   15  C           1     -20.987  -5.278  -6.999  0.00  0.00     0.185 C 
BRANCH  15  16
HETATM   16  C           1     -19.833  -4.708  -6.210  0.00  0.00     0.196 C 
HETATM   17  O           1     -18.706  -4.604  -6.740  0.00  0.00    -0.646 OA
HETATM   18  O           1     -20.005  -4.338  -5.029  0.00  0.00    -0.646 OA
ENDBRANCH  15  16
BRANCH  15  19
HETATM   19  C           1     -21.032  -6.788  -6.813  0.00  0.00     0.040 C 
BRANCH  19  20
HETATM   20  C           1     -21.227  -7.114  -5.338  0.00  0.00    -0.020 C 
HETATM   21  C           1     -22.615  -6.665  -4.898  0.00  0.00     0.009 C 
HETATM   22  C           1     -21.090  -8.616  -5.127  0.00  0.00     0.009 C 
ENDBRANCH  19  20
ENDBRANCH  15  19
ENDBRANCH   3  15
TORSDOF 9
ENDMDL
MODEL 9
REMARK VINA RESULT:      -5.4     14.576     17.415
REMARK  9 active torsions:
REMARK  status: ('A' for Active; 'I' for Inactive)
REMARK    1  A    between atoms: C_1  and  C_7 
REMARK    2  A    between atoms: C_5  and  C_13 
REMARK    3  A    between atoms: C_5  and  C_6 
REMARK    4  A    between atoms: C_7  and  C_17 
REMARK    5  A    between atoms: C_7  and  N_10 
REMARK    6  A    between atoms: C_8  and  C_9 
REMARK    7  A    between atoms: C_8  and  C_13 
REMARK    8  A    between atoms: C_8  and  N_15 
REMARK       I    between atoms: C_9  and  N_10 
REMARK    9  A    between atoms: C_16  and  C_17 
ROOT
HETATM    1  O           1     -19.514  -7.959  -5.652  0.00  0.00    -0.271 OA
HETATM    2  C           1     -20.519  -7.394  -5.294  0.00  0.00     0.249 C 
HETATM    3  N           1     -21.044  -7.649  -4.056  0.00  0.00    -0.345 N 
HETATM    4  H           1     -21.887  -7.174  -3.756  0.00  0.00     0.163 HD
ENDROOT
BRANCH   2   5
HETATM    5  C           1     -21.197  -6.406  -6.213  0.00  0.00     0.275 C 
BRANCH   5   6
HETATM    6  C           1     -20.247  -5.254  -6.510  0.00  0.00     0.053 C 
BRANCH   6   7
HETATM    7  C           1     -20.058  -5.127  -8.016  0.00  0.00     0.115 C 
BRANCH   7   8
HETATM    8  C           1     -21.224  -4.375  -8.608  0.00  0.00     0.172 C 
HETATM    9  O           1     -21.487  -4.486  -9.825  0.00  0.00    -0.648 OA
HETATM   10  O           1     -21.930  -3.643  -7.881  0.00  0.00    -0.648 OA
ENDBRANCH   7   8
ENDBRANCH   6   7
ENDBRANCH   5   6
BRANCH   5  11
HETATM   11  N           1     -22.433  -5.876  -5.549  0.00  0.00    -0.066 N 
HETATM   12  H           1     -22.369  -4.836  -5.473  0.00  0.00     0.275 HD
HETATM   13  H           1     -23.271  -6.131  -6.119  0.00  0.00     0.275 HD
HETATM   14  H           1     -22.521  -6.290  -4.594  0.00  0.00     0.275 HD
ENDBRANCH   5  11
ENDBRANCH   2   5
BRANCH   3  15
HETATM   15  C           1     -20.393  -8.597  -3.173  0.00  0.00     0.185 C 
BRANCH  15  16
HETATM   16  C           1     -21.141  -9.907  -3.205  0.00  0.00     0.196 C 
HETATM   17  O           1     -22.170 -10.023  -3.906  0.00  0.00    -0.646 OA
HETATM   18  O           1     -20.732 -10.877  -2.531  0.00  0.00    -0.646 OA
ENDBRANCH  15  16
BRANCH  15  19
HETATM   19  C           1     -20.390  -8.048  -1.753  0.00  0.00     0.040 C 
BRANCH  19  20
HETATM   20  C           1     -21.824  -7.873  -1.271  0.00  0.00    -0.020 C 
HETATM   21  C           1     -21.943  -8.378   0.161  0.00  0.00     0.009 C 
HETATM   22  C           1     -22.201  -6.399  -1.322  0.00  0.00     0.009 C 
ENDBRANCH  19  20
ENDBRANCH  15  19
ENDBRANCH   3  15
TORSDOF 9
ENDMDL
