MODEL 1
REMARK VINA RESULT:      -6.3      0.000      0.000
REMARK  6 active torsions:
REMARK  status: ('A' for Active; 'I' for Inactive)
REMARK    1  A    between atoms: C_3  and  C_14 
REMARK    2  A    between atoms: C_4  and  C_13 
REMARK    3  A    between atoms: N_7  and  C_13 
REMARK       I    between atoms: N_7  and  C_8 
REMARK    4  A    between atoms: C_8  and  C_9 
REMARK    5  A    between atoms: C_9  and  N_11 
REMARK    6  A    between atoms: C_13  and  C_14 
ROOT
HETATM    1  O           1     -36.359  -1.285 -13.658  0.00  0.00    -0.271 OA
HETATM    2  N           1     -34.795  -0.695 -12.178  0.00  0.00    -0.345 N 
HETATM    3  C           1     -35.440  -0.553 -13.376  0.00  0.00     0.248 C 
HETATM    4  H           1     -34.025  -0.082 -11.941  0.00  0.00     0.163 HD
ENDROOT
BRANCH   2   5
HETATM    5  C           1     -35.214  -1.724 -11.246  0.00  0.00     0.185 C 
BRANCH   5   6
HETATM    6  C           1     -36.280  -1.170 -10.333  0.00  0.00     0.196 C 
HETATM    7  O           1     -35.958  -0.469  -9.349  0.00  0.00    -0.646 OA
HETATM    8  O           1     -37.485  -1.411 -10.560  0.00  0.00    -0.646 OA
ENDBRANCH   5   6
BRANCH   5   9
HETATM    9  C           1     -34.019  -2.176 -10.417  0.00  0.00     0.040 C 
BRANCH   9  10
HETATM   10  C           1     -33.777  -3.662 -10.641  0.00  0.00    -0.020 C 
HETATM   11  C           1     -35.098  -4.348 -10.962  0.00  0.00     0.009 C 
HETATM   12  C           1     -32.810  -3.848 -11.804  0.00  0.00     0.009 C 
ENDBRANCH   9  10
ENDBRANCH   5   9
ENDBRANCH   2   5
BRANCH   3  13
HETATM   13  C           1     -35.003   0.518 -14.345  0.00  0.00     0.270 C 
HETATM   14  C           1     -34.377   1.675 -13.576  0.00  0.00     0.050 C 
BRANCH  13  15
HETATM   15  N           1     -36.193   1.015 -15.111  0.00  0.00    -0.067 N 
HETATM   16  H           1     -36.898   0.249 -15.197  0.00  0.00     0.275 HD
HETATM   17  H           1     -36.620   1.824 -14.603  0.00  0.00     0.275 HD
HETATM   18  H           1     -35.893   1.321 -16.064  0.00  0.00     0.275 HD
ENDBRANCH  13  15
ENDBRANCH   3  13
TORSDOF 6
ENDMDL
MODEL 2
REMARK VINA RESULT:      -6.0      1.744      4.580
REMARK  6 active torsions:
REMARK  status: ('A' for Active; 'I' for Inactive)
REMARK    1  A    between atoms: C_3  and  C_14 
REMARK    2  A    between atoms: C_4  and  C_13 
REMARK    3  A    between atoms: N_7  and  C_13 
REMARK       I    between atoms: N_7  and  C_8 
REMARK    4  A    between atoms: C_8  and  C_9 
REMARK    5  A    between atoms: C_9  and  N_11 
REMARK    6  A    between atoms: C_13  and  C_14 
ROOT
HETATM    1  O           1     -33.575  -1.476 -10.624  0.00  0.00    -0.271 OA
HETATM    2  N           1     -35.344  -2.095 -11.837  0.00  0.00    -0.345 N 
HETATM    3  C           1     -34.228  -2.376 -11.097  0.00  0.00     0.248 C 
HETATM    4  H           1     -35.891  -2.849 -12.234  0.00  0.00     0.163 HD
ENDROOT
BRANCH   2   5
HETATM    5  C           1     -35.744  -0.719 -12.054  0.00  0.00     0.185 C 
BRANCH   5   6
HETATM    6  C           1     -36.779  -0.329 -11.027  0.00  0.00     0.196 C 
HETATM    7  O           1     -37.899  -0.885 -11.026  0.00  0.00    -0.646 OA
HETATM    8  O           1     -36.516   0.548 -10.176  0.00  0.00    -0.646 OA
ENDBRANCH   5   6
BRANCH   5   9
HETATM    9  C           1     -36.335  -0.575 -13.450  0.00  0.00     0.040 C 
BRANCH   9  10
HETATM   10  C           1     -35.318   0.093 -14.366  0.00  0.00    -0.020 C 
HETATM   11  C           1     -36.042   0.755 -15.530  0.00  0.00     0.009 C 
HETATM   12  C           1     -34.544   1.145 -13.583  0.00  0.00     0.009 C 
ENDBRANCH   9  10
ENDBRANCH   5   9
ENDBRANCH   2   5
BRANCH   3  13
HETATM   13  C           1     -33.812  -3.809 -10.872  0.00  0.00     0.270 C 
HETATM   14  C           1     -32.733  -4.189 -11.879  0.00  0.00     0.050 C 
BRANCH  13  15
HETATM   15  N           1     -34.999  -4.707 -11.050  0.00  0.00    -0.067 N 
HETATM   16  H           1     -35.114  -4.938 -12.063  0.00  0.00     0.275 HD
HETATM   17  H           1     -34.853  -5.589 -10.508  0.00  0.00     0.275 HD
HETATM   18  H           1     -35.858  -4.223 -10.704  0.00  0.00     0.275 HD
ENDBRANCH  13  15
ENDBRANCH   3  13
TORSDOF 6
ENDMDL
MODEL 3
REMARK VINA RESULT:      -5.9     12.229     14.225
REMARK  6 active torsions:
REMARK  status: ('A' for Active; 'I' for Inactive)
REMARK    1  A    between atoms: C_3  and  C_14 
REMARK    2  A    between atoms: C_4  and  C_13 
REMARK    3  A    between atoms: N_7  and  C_13 
REMARK       I    between atoms: N_7  and  C_8 
REMARK    4  A    between atoms: C_8  and  C_9 
REMARK    5  A    between atoms: C_9  and  N_11 
REMARK    6  A    between atoms: C_13  and  C_14 
ROOT
HETATM    1  O           1     -21.685  -3.206  -7.483  0.00  0.00    -0.271 OA
HETATM    2  N           1     -22.368  -4.954  -8.693  0.00  0.00    -0.345 N 
HETATM    3  C           1     -21.802  -4.405  -7.574  0.00  0.00     0.248 C 
HETATM    4  H           1     -22.466  -5.958  -8.770  0.00  0.00     0.163 HD
ENDROOT
BRANCH   2   5
HETATM    5  C           1     -22.828  -4.097  -9.769  0.00  0.00     0.185 C 
BRANCH   5   6
HETATM    6  C           1     -24.321  -3.909  -9.657  0.00  0.00     0.196 C 
HETATM    7  O           1     -24.797  -2.765  -9.497  0.00  0.00    -0.646 OA
HETATM    8  O           1     -25.082  -4.898  -9.724  0.00  0.00    -0.646 OA
ENDBRANCH   5   6
BRANCH   5   9
HETATM    9  C           1     -22.495  -4.740 -11.108  0.00  0.00     0.040 C 
BRANCH   9  10
HETATM   10  C           1     -21.656  -3.779 -11.939  0.00  0.00    -0.020 C 
HETATM   11  C           1     -22.539  -2.652 -12.457  0.00  0.00     0.009 C 
HETATM   12  C           1     -20.544  -3.199 -11.074  0.00  0.00     0.009 C 
ENDBRANCH   9  10
ENDBRANCH   5   9
ENDBRANCH   2   5
BRANCH   3  13
HETATM   13  C           1     -21.324  -5.298  -6.455  0.00  0.00     0.270 C 
HETATM   14  C           1     -20.162  -4.627  -5.732  0.00  0.00     0.050 C 
BRANCH  13  15
HETATM   15  N           1     -20.867  -6.608  -7.023  0.00  0.00    -0.067 N 
HETATM   16  H           1     -21.299  -7.392  -6.483  0.00  0.00     0.275 HD
HETATM   17  H           1     -21.159  -6.674  -8.024  0.00  0.00     0.275 HD
HETATM   18  H           1     -19.826  -6.674  -6.958  0.00  0.00     0.275 HD
ENDBRANCH  13  15
ENDBRANCH   3  13
TORSDOF 6
ENDMDL
MODEL 4
REMARK VINA RESULT:      -5.5      2.239      4.866
REMARK  6 active torsions:
REMARK  status: ('A' for Active; 'I' for Inactive)
REMARK    1  A    between atoms: C_3  and  C_14 
REMARK    2  A    between atoms: C_4  and  C_13 
REMARK    3  A    between atoms: N_7  and  C_13 
REMARK       I    between atoms: N_7  and  C_8 
REMARK    4  A    between atoms: C_8  and  C_9 
REMARK    5  A    between atoms: C_9  and  N_11 
REMARK    6  A    between atoms: C_13  and  C_14 
ROOT
HETATM    1  O           1     -35.770  -3.720 -11.674  0.00  0.00    -0.271 OA
HETATM    2  N           1     -34.402  -1.978 -11.957  0.00  0.00    -0.345 N 
HETATM    3  C           1     -34.661  -3.258 -11.546  0.00  0.00     0.248 C 
HETATM    4  H           1     -33.473  -1.591 -11.850  0.00  0.00     0.163 HD
ENDROOT
BRANCH   2   5
HETATM    5  C           1     -35.457  -1.177 -12.546  0.00  0.00     0.185 C 
BRANCH   5   6
HETATM    6  C           1     -35.135  -0.913 -13.997  0.00  0.00     0.196 C 
HETATM    7  O           1     -35.235  -1.834 -14.837  0.00  0.00    -0.646 OA
HETATM    8  O           1     -34.771   0.226 -14.359  0.00  0.00    -0.646 OA
ENDBRANCH   5   6
BRANCH   5   9
HETATM    9  C           1     -35.566   0.146 -11.801  0.00  0.00     0.040 C 
BRANCH   9  10
HETATM   10  C           1     -36.870   0.181 -11.015  0.00  0.00    -0.020 C 
HETATM   11  C           1     -38.018  -0.253 -11.916  0.00  0.00     0.009 C 
HETATM   12  C           1     -36.770  -0.767  -9.826  0.00  0.00     0.009 C 
ENDBRANCH   9  10
ENDBRANCH   5   9
ENDBRANCH   2   5
BRANCH   3  13
HETATM   13  C           1     -33.562  -4.091 -10.933  0.00  0.00     0.270 C 
HETATM   14  C           1     -32.503  -4.389 -11.987  0.00  0.00     0.050 C 
BRANCH  13  15
HETATM   15  N           1     -34.136  -5.379 -10.424  0.00  0.00    -0.067 N 
HETATM   16  H           1     -33.373  -5.966 -10.019  0.00  0.00     0.275 HD
HETATM   17  H           1     -34.847  -5.174  -9.684  0.00  0.00     0.275 HD
HETATM   18  H           1     -34.591  -5.894 -11.211  0.00  0.00     0.275 HD
ENDBRANCH  13  15
ENDBRANCH   3  13
TORSDOF 6
ENDMDL
MODEL 5
REMARK VINA RESULT:      -5.3      2.906      3.506
REMARK  6 active torsions:
REMARK  status: ('A' for Active; 'I' for Inactive)
REMARK    1  A    between atoms: C_3  and  C_14 
REMARK    2  A    between atoms: C_4  and  C_13 
REMARK    3  A    between atoms: N_7  and  C_13 
REMARK       I    between atoms: N_7  and  C_8 
REMARK    4  A    between atoms: C_8  and  C_9 
REMARK    5  A    between atoms: C_9  and  N_11 
REMARK    6  A    between atoms: C_13  and  C_14 
ROOT
HETATM    1  O           1     -35.006  -5.126 -14.198  0.00  0.00    -0.271 OA
HETATM    2  N           1     -34.208  -3.052 -13.987  0.00  0.00    -0.345 N 
HETATM    3  C           1     -34.433  -4.193 -14.708  0.00  0.00     0.248 C 
HETATM    4  H           1     -33.728  -2.270 -14.414  0.00  0.00     0.163 HD
ENDROOT
BRANCH   2   5
HETATM    5  C           1     -34.657  -2.961 -12.612  0.00  0.00     0.185 C 
BRANCH   5   6
HETATM    6  C           1     -35.223  -1.586 -12.358  0.00  0.00     0.196 C 
HETATM    7  O           1     -34.581  -0.762 -11.671  0.00  0.00    -0.646 OA
HETATM    8  O           1     -36.334  -1.269 -12.835  0.00  0.00    -0.646 OA
ENDBRANCH   5   6
BRANCH   5   9
HETATM    9  C           1     -33.482  -3.208 -11.676  0.00  0.00     0.040 C 
BRANCH   9  10
HETATM   10  C           1     -33.813  -4.360 -10.736  0.00  0.00    -0.020 C 
HETATM   11  C           1     -35.322  -4.561 -10.693  0.00  0.00     0.009 C 
HETATM   12  C           1     -33.143  -5.633 -11.239  0.00  0.00     0.009 C 
ENDBRANCH   9  10
ENDBRANCH   5   9
ENDBRANCH   2   5
BRANCH   3  13
HETATM   13  C           1     -33.965  -4.286 -16.140  0.00  0.00     0.270 C 
HETATM   14  C           1     -32.471  -4.588 -16.167  0.00  0.00     0.050 C 
BRANCH  13  15
HETATM   15  N           1     -34.222  -2.983 -16.835  0.00  0.00    -0.067 N 
HETATM   16  H           1     -33.797  -3.006 -17.789  0.00  0.00     0.275 HD
HETATM   17  H           1     -35.253  -2.831 -16.918  0.00  0.00     0.275 HD
HETATM   18  H           1     -33.799  -2.203 -16.284  0.00  0.00     0.275 HD
ENDBRANCH  13  15
ENDBRANCH   3  13
TORSDOF 6
ENDMDL
MODEL 6
REMARK VINA RESULT:      -5.2     15.413     17.106
REMARK  6 active torsions:
REMARK  status: ('A' for Active; 'I' for Inactive)
REMARK    1  A    between atoms: C_3  and  C_14 
REMARK    2  A    between atoms: C_4  and  C_13 
REMARK    3  A    between atoms: N_7  and  C_13 
REMARK       I    between atoms: N_7  and  C_8 
REMARK    4  A    between atoms: C_8  and  C_9 
REMARK    5  A    between atoms: C_9  and  N_11 
REMARK    6  A    between atoms: C_13  and  C_14 
ROOT
HETATM    1  O           1     -20.268  -4.905  -5.748  0.00  0.00    -0.271 OA
HETATM    2  N           1     -21.005  -6.974  -6.150  0.00  0.00    -0.345 N 
HETATM    3  C           1     -20.873  -5.652  -6.479  0.00  0.00     0.248 C 
HETATM    4  H           1     -21.512  -7.600  -6.762  0.00  0.00     0.163 HD
ENDROOT
BRANCH   2   5
HETATM    5  C           1     -20.418  -7.479  -4.924  0.00  0.00     0.185 C 
BRANCH   5   6
HETATM    6  C           1     -19.776  -8.819  -5.190  0.00  0.00     0.196 C 
HETATM    7  O           1     -20.226  -9.848  -4.642  0.00  0.00    -0.646 OA
HETATM    8  O           1     -18.795  -8.900  -5.960  0.00  0.00    -0.646 OA
ENDBRANCH   5   6
BRANCH   5   9
HETATM    9  C           1     -21.503  -7.636  -3.868  0.00  0.00     0.040 C 
BRANCH   9  10
HETATM   10  C           1     -21.054  -6.971  -2.574  0.00  0.00    -0.020 C 
HETATM   11  C           1     -22.220  -6.201  -1.968  0.00  0.00     0.009 C 
HETATM   12  C           1     -20.582  -8.037  -1.593  0.00  0.00     0.009 C 
ENDBRANCH   9  10
ENDBRANCH   5   9
ENDBRANCH   2   5
BRANCH   3  13
HETATM   13  C           1     -21.485  -5.127  -7.755  0.00  0.00     0.270 C 
HETATM   14  C           1     -20.399  -4.492  -8.615  0.00  0.00     0.050 C 
BRANCH  13  15
HETATM   15  N           1     -22.525  -4.099  -7.424  0.00  0.00    -0.067 N 
HETATM   16  H           1     -23.198  -4.494  -6.730  0.00  0.00     0.275 HD
HETATM   17  H           1     -22.062  -3.254  -7.018  0.00  0.00     0.275 HD
HETATM   18  H           1     -23.040  -3.831  -8.293  0.00  0.00     0.275 HD
ENDBRANCH  13  15
ENDBRANCH   3  13
TORSDOF 6
ENDMDL
MODEL 7
REMARK VINA RESULT:      -5.2     13.634     15.686
REMARK  6 active torsions:
REMARK  status: ('A' for Active; 'I' for Inactive)
REMARK    1  A    between atoms: C_3  and  C_14 
REMARK    2  A    between atoms: C_4  and  C_13 
REMARK    3  A    between atoms: N_7  and  C_13 
REMARK       I    between atoms: N_7  and  C_8 
REMARK    4  A    between atoms: C_8  and  C_9 
REMARK    5  A    between atoms: C_9  and  N_11 
REMARK    6  A    between atoms: C_13  and  C_14 
ROOT
HETATM    1  O           1     -21.111  -7.131  -6.875  0.00  0.00    -0.271 OA
HETATM    2  N           1     -21.435  -4.925  -6.752  0.00  0.00    -0.345 N 
HETATM    3  C           1     -21.235  -6.152  -6.178  0.00  0.00     0.248 C 
HETATM    4  H           1     -21.539  -4.104  -6.169  0.00  0.00     0.163 HD
ENDROOT
BRANCH   2   5
HETATM    5  C           1     -21.497  -4.800  -8.195  0.00  0.00     0.185 C 
BRANCH   5   6
HETATM    6  C           1     -20.108  -4.577  -8.740  0.00  0.00     0.196 C 
HETATM    7  O           1     -19.230  -4.054  -8.019  0.00  0.00    -0.646 OA
HETATM    8  O           1     -19.834  -4.915  -9.911  0.00  0.00    -0.646 OA
ENDBRANCH   5   6
BRANCH   5   9
HETATM    9  C           1     -22.384  -3.619  -8.565  0.00  0.00     0.040 C 
BRANCH   9  10
HETATM   10  C           1     -23.268  -3.997  -9.746  0.00  0.00    -0.020 C 
HETATM   11  C           1     -24.674  -3.455  -9.522  0.00  0.00     0.009 C 
HETATM   12  C           1     -22.690  -3.400 -11.023  0.00  0.00     0.009 C 
ENDBRANCH   9  10
ENDBRANCH   5   9
ENDBRANCH   2   5
BRANCH   3  13
HETATM   13  C           1     -21.170  -6.280  -4.676  0.00  0.00     0.270 C 
HETATM   14  C           1     -20.567  -7.631  -4.308  0.00  0.00     0.050 C 
BRANCH  13  15
HETATM   15  N           1     -22.554  -6.180  -4.106  0.00  0.00    -0.067 N 
HETATM   16  H           1     -23.010  -7.120  -4.128  0.00  0.00     0.275 HD
HETATM   17  H           1     -22.499  -5.844  -3.118  0.00  0.00     0.275 HD
HETATM   18  H           1     -23.117  -5.507  -4.673  0.00  0.00     0.275 HD
ENDBRANCH  13  15
ENDBRANCH   3  13
TORSDOF 6
ENDMDL
MODEL 8
REMARK VINA RESULT:      -5.0     25.377     26.566
REMARK  6 active torsions:
REMARK  status: ('A' for Active; 'I' for Inactive)
REMARK    1  A    between atoms: C_3  and  C_14 
REMARK    2  A    between atoms: C_4  and  C_13 
REMARK    3  A    between atoms: N_7  and  C_13 
REMARK       I    between atoms: N_7  and  C_8 
REMARK    4  A    between atoms: C_8  and  C_9 
REMARK    5  A    between atoms: C_9  and  N_11 
REMARK    6  A    between atoms: C_13  and  C_14 
ROOT
HETATM    1  O           1     -12.930   7.571 -19.446  0.00  0.00    -0.271 OA
HETATM    2  N           1     -11.388   7.150 -21.004  0.00  0.00    -0.345 N 
HETATM    3  C           1     -12.333   7.952 -20.424  0.00  0.00     0.248 C 
HETATM    4  H           1     -10.887   7.469 -21.824  0.00  0.00     0.163 HD
ENDROOT
BRANCH   2   5
HETATM    5  C           1     -11.102   5.843 -20.445  0.00  0.00     0.185 C 
BRANCH   5   6
HETATM    6  C           1      -9.839   5.915 -19.622  0.00  0.00     0.196 C 
HETATM    7  O           1      -9.883   5.712 -18.390  0.00  0.00    -0.646 OA
HETATM    8  O           1      -8.748   6.178 -20.173  0.00  0.00    -0.646 OA
ENDBRANCH   5   6
BRANCH   5   9
HETATM    9  C           1     -10.917   4.837 -21.573  0.00  0.00     0.040 C 
BRANCH   9  10
HETATM   10  C           1     -11.823   3.636 -21.336  0.00  0.00    -0.020 C 
HETATM   11  C           1     -11.034   2.536 -20.639  0.00  0.00     0.009 C 
HETATM   12  C           1     -12.999   4.052 -20.461  0.00  0.00     0.009 C 
ENDBRANCH   9  10
ENDBRANCH   5   9
ENDBRANCH   2   5
BRANCH   3  13
HETATM   13  C           1     -12.630   9.312 -21.007  0.00  0.00     0.270 C 
HETATM   14  C           1     -11.444   9.775 -21.845  0.00  0.00     0.050 C 
BRANCH  13  15
HETATM   15  N           1     -12.868  10.290 -19.897  0.00  0.00    -0.067 N 
HETATM   16  H           1     -13.808  10.118 -19.474  0.00  0.00     0.275 HD
HETATM   17  H           1     -12.131  10.172 -19.165  0.00  0.00     0.275 HD
HETATM   18  H           1     -12.831  11.264 -20.275  0.00  0.00     0.275 HD
ENDBRANCH  13  15
ENDBRANCH   3  13
TORSDOF 6
ENDMDL
MODEL 9
REMARK VINA RESULT:      -4.8     17.467     18.959
REMARK  6 active torsions:
REMARK  status: ('A' for Active; 'I' for Inactive)
REMARK    1  A    between atoms: C_3  and  C_14 
REMARK    2  A    between atoms: C_4  and  C_13 
REMARK    3  A    between atoms: N_7  and  C_13 
REMARK       I    between atoms: N_7  and  C_8 
REMARK    4  A    between atoms: C_8  and  C_9 
REMARK    5  A    between atoms: C_9  and  N_11 
REMARK    6  A    between atoms: C_13  and  C_14 
ROOT
HETATM    1  O           1     -21.008 -10.249  -3.880  0.00  0.00    -0.271 OA
HETATM    2  N           1     -20.079  -8.358  -3.142  0.00  0.00    -0.345 N 
HETATM    3  C           1     -20.031  -9.542  -3.826  0.00  0.00     0.248 C 
HETATM    4  H           1     -19.260  -7.765  -3.096  0.00  0.00     0.163 HD
ENDROOT
BRANCH   2   5
HETATM    5  C           1     -21.305  -7.950  -2.483  0.00  0.00     0.185 C 
BRANCH   5   6
HETATM    6  C           1     -21.693  -6.570  -2.955  0.00  0.00     0.196 C 
HETATM    7  O           1     -22.436  -5.854  -2.250  0.00  0.00    -0.646 OA
HETATM    8  O           1     -21.272  -6.143  -4.051  0.00  0.00    -0.646 OA
ENDBRANCH   5   6
BRANCH   5   9
HETATM    9  C           1     -21.089  -7.929  -0.976  0.00  0.00     0.040 C 
BRANCH   9  10
HETATM   10  C           1     -22.045  -8.911  -0.311  0.00  0.00    -0.020 C 
HETATM   11  C           1     -21.264  -9.825   0.624  0.00  0.00     0.009 C 
HETATM   12  C           1     -23.090  -8.140   0.485  0.00  0.00     0.009 C 
ENDBRANCH   9  10
ENDBRANCH   5   9
ENDBRANCH   2   5
BRANCH   3  13
HETATM   13  C           1     -18.754  -9.966  -4.511  0.00  0.00     0.270 C 
HETATM   14  C           1     -17.561  -9.575  -3.648  0.00  0.00     0.050 C 
BRANCH  13  15
HETATM   15  N           1     -18.652  -9.282  -5.842  0.00  0.00    -0.067 N 
HETATM   16  H           1     -19.583  -8.888  -6.105  0.00  0.00     0.275 HD
HETATM   17  H           1     -17.951  -8.509  -5.783  0.00  0.00     0.275 HD
HETATM   18  H           1     -18.349  -9.972  -6.566  0.00  0.00     0.275 HD
ENDBRANCH  13  15
ENDBRANCH   3  13
TORSDOF 6
ENDMDL
