MODEL 1
REMARK VINA RESULT:      -6.9      0.000      0.000
REMARK  9 active torsions:
REMARK  status: ('A' for Active; 'I' for Inactive)
REMARK    1  A    between atoms: N_7  and  C_27 
REMARK       I    between atoms: N_9  and  C_11 
REMARK    2  A    between atoms: C_11  and  C_28 
REMARK    3  A    between atoms: O_12  and  C_19 
REMARK    4  A    between atoms: C_16  and  C_20 
REMARK    5  A    between atoms: C_20  and  C_21 
REMARK    6  A    between atoms: C_21  and  C_22 
REMARK    7  A    between atoms: C_21  and  N_25 
REMARK       I    between atoms: N_25  and  C_26 
REMARK    8  A    between atoms: C_26  and  C_27 
REMARK    9  A    between atoms: C_27  and  C_28 
ROOT
HETATM    1  H           1     -21.115  -5.213  -8.427  0.00  0.00     0.163 HD
HETATM    2  O           1     -23.714  -4.423  -6.859  0.00  0.00    -0.271 OA
HETATM    3  N           1     -21.720  -5.067  -7.629  0.00  0.00    -0.344 N 
HETATM    4  C           1     -22.993  -4.597  -7.811  0.00  0.00     0.249 C 
ENDROOT
BRANCH   3   5
HETATM    5  C           1     -21.239  -5.356  -6.292  0.00  0.00     0.189 C 
BRANCH   5   6
HETATM    6  C           1     -21.177  -6.864  -6.090  0.00  0.00     0.074 C 
BRANCH   6   7
HETATM    7  C           1     -21.118  -7.171  -4.626  0.00  0.00    -0.056 A 
HETATM    8  C           1     -20.300  -8.202  -4.163  0.00  0.00     0.010 A 
HETATM    9  C           1     -20.245  -8.488  -2.799  0.00  0.00     0.037 A 
HETATM   10  C           1     -21.008  -7.744  -1.899  0.00  0.00     0.065 A 
HETATM   11  C           1     -21.826  -6.714  -2.362  0.00  0.00     0.037 A 
HETATM   12  C           1     -21.881  -6.427  -3.726  0.00  0.00     0.010 A 
BRANCH  10  13
HETATM   13  O           1     -20.955  -8.023  -0.574  0.00  0.00    -0.361 OA
HETATM   14  H           1     -21.075  -8.981  -0.463  0.00  0.00     0.217 HD
ENDBRANCH  10  13
ENDBRANCH   6   7
ENDBRANCH   5   6
BRANCH   5  15
HETATM   15  C           1     -19.861  -4.766  -6.116  0.00  0.00     0.197 C 
HETATM   16  O           1     -19.056  -4.762  -7.072  0.00  0.00    -0.646 OA
HETATM   17  O           1     -19.524  -4.283  -5.012  0.00  0.00    -0.646 OA
ENDBRANCH   5  15
ENDBRANCH   3   5
BRANCH   4  18
HETATM   18  C           1     -23.494  -4.296  -9.203  0.00  0.00     0.283 C 
BRANCH  18  19
HETATM   19  N           1     -24.566  -3.250  -9.133  0.00  0.00    -0.066 N 
HETATM   20  H           1     -24.834  -2.962 -10.101  0.00  0.00     0.275 HD
HETATM   21  H           1     -25.401  -3.640  -8.641  0.00  0.00     0.275 HD
HETATM   22  H           1     -24.209  -2.419  -8.610  0.00  0.00     0.275 HD
ENDBRANCH  18  19
BRANCH  18  23
HETATM   23  C           1     -22.341  -3.786 -10.058  0.00  0.00     0.145 C 
BRANCH  23  24
HETATM   24  C           1     -22.633  -4.062 -11.513  0.00  0.00     0.217 C 
HETATM   25  O           1     -23.709  -4.501 -11.840  0.00  0.00    -0.274 OA
HETATM   26  N           1     -21.678  -3.814 -12.461  0.00  0.00    -0.370 N 
HETATM   27  H           1     -21.873  -3.998 -13.437  0.00  0.00     0.159 HD
HETATM   28  H           1     -20.776  -3.446 -12.186  0.00  0.00     0.159 HD
ENDBRANCH  23  24
ENDBRANCH  18  23
ENDBRANCH   4  18
TORSDOF 9
ENDMDL
MODEL 2
REMARK VINA RESULT:      -6.8      2.491      7.405
REMARK  9 active torsions:
REMARK  status: ('A' for Active; 'I' for Inactive)
REMARK    1  A    between atoms: N_7  and  C_27 
REMARK       I    between atoms: N_9  and  C_11 
REMARK    2  A    between atoms: C_11  and  C_28 
REMARK    3  A    between atoms: O_12  and  C_19 
REMARK    4  A    between atoms: C_16  and  C_20 
REMARK    5  A    between atoms: C_20  and  C_21 
REMARK    6  A    between atoms: C_21  and  C_22 
REMARK    7  A    between atoms: C_21  and  N_25 
REMARK       I    between atoms: N_25  and  C_26 
REMARK    8  A    between atoms: C_26  and  C_27 
REMARK    9  A    between atoms: C_27  and  C_28 
ROOT
HETATM    1  H           1     -22.495  -5.866  -5.263  0.00  0.00     0.163 HD
HETATM    2  O           1     -20.133  -7.797  -5.995  0.00  0.00    -0.271 OA
HETATM    3  N           1     -21.677  -6.202  -5.756  0.00  0.00    -0.344 N 
HETATM    4  C           1     -21.109  -7.398  -5.407  0.00  0.00     0.249 C 
ENDROOT
BRANCH   3   5
HETATM    5  C           1     -21.105  -5.415  -6.831  0.00  0.00     0.189 C 
BRANCH   5   6
HETATM    6  C           1     -22.117  -4.374  -7.291  0.00  0.00     0.074 C 
BRANCH   6   7
HETATM    7  C           1     -22.025  -4.208  -8.776  0.00  0.00    -0.056 A 
HETATM    8  C           1     -23.131  -3.755  -9.496  0.00  0.00     0.010 A 
HETATM    9  C           1     -23.046  -3.600 -10.879  0.00  0.00     0.037 A 
HETATM   10  C           1     -21.855  -3.896 -11.543  0.00  0.00     0.065 A 
HETATM   11  C           1     -20.749  -4.348 -10.822  0.00  0.00     0.037 A 
HETATM   12  C           1     -20.835  -4.504  -9.439  0.00  0.00     0.010 A 
BRANCH  10  13
HETATM   13  O           1     -21.772  -3.745 -12.886  0.00  0.00    -0.361 OA
HETATM   14  H           1     -21.090  -3.078 -13.072  0.00  0.00     0.217 HD
ENDBRANCH  10  13
ENDBRANCH   6   7
ENDBRANCH   5   6
BRANCH   5  15
HETATM   15  C           1     -19.858  -4.721  -6.338  0.00  0.00     0.197 C 
HETATM   16  O           1     -19.820  -4.254  -5.180  0.00  0.00    -0.646 OA
HETATM   17  O           1     -18.864  -4.615  -7.089  0.00  0.00    -0.646 OA
ENDBRANCH   5  15
ENDBRANCH   3   5
BRANCH   4  18
HETATM   18  C           1     -21.705  -8.217  -4.288  0.00  0.00     0.283 C 
BRANCH  18  19
HETATM   19  N           1     -21.484  -9.675  -4.564  0.00  0.00    -0.066 N 
HETATM   20  H           1     -20.480  -9.912  -4.392  0.00  0.00     0.275 HD
HETATM   21  H           1     -22.090 -10.244  -3.931  0.00  0.00     0.275 HD
HETATM   22  H           1     -21.724  -9.882  -5.558  0.00  0.00     0.275 HD
ENDBRANCH  18  19
BRANCH  18  23
HETATM   23  C           1     -21.035  -7.842  -2.973  0.00  0.00     0.145 C 
BRANCH  23  24
HETATM   24  C           1     -21.943  -6.926  -2.189  0.00  0.00     0.217 C 
HETATM   25  O           1     -22.350  -5.907  -2.690  0.00  0.00    -0.274 OA
HETATM   26  N           1     -22.304  -7.253  -0.910  0.00  0.00    -0.370 N 
HETATM   27  H           1     -22.914  -6.640  -0.383  0.00  0.00     0.159 HD
HETATM   28  H           1     -21.963  -8.108  -0.490  0.00  0.00     0.159 HD
ENDBRANCH  23  24
ENDBRANCH  18  23
ENDBRANCH   4  18
TORSDOF 9
ENDMDL
MODEL 3
REMARK VINA RESULT:      -6.8      2.528      7.496
REMARK  9 active torsions:
REMARK  status: ('A' for Active; 'I' for Inactive)
REMARK    1  A    between atoms: N_7  and  C_27 
REMARK       I    between atoms: N_9  and  C_11 
REMARK    2  A    between atoms: C_11  and  C_28 
REMARK    3  A    between atoms: O_12  and  C_19 
REMARK    4  A    between atoms: C_16  and  C_20 
REMARK    5  A    between atoms: C_20  and  C_21 
REMARK    6  A    between atoms: C_21  and  C_22 
REMARK    7  A    between atoms: C_21  and  N_25 
REMARK       I    between atoms: N_25  and  C_26 
REMARK    8  A    between atoms: C_26  and  C_27 
REMARK    9  A    between atoms: C_27  and  C_28 
ROOT
HETATM    1  H           1     -20.748  -4.303  -4.690  0.00  0.00     0.163 HD
HETATM    2  O           1     -21.645  -7.295  -4.980  0.00  0.00    -0.271 OA
HETATM    3  N           1     -21.005  -5.164  -5.158  0.00  0.00    -0.344 N 
HETATM    4  C           1     -21.339  -6.269  -4.422  0.00  0.00     0.249 C 
ENDROOT
BRANCH   3   5
HETATM    5  C           1     -21.018  -5.226  -6.606  0.00  0.00     0.189 C 
BRANCH   5   6
HETATM    6  C           1     -21.472  -3.884  -7.167  0.00  0.00     0.074 C 
BRANCH   6   7
HETATM    7  C           1     -22.040  -4.081  -8.538  0.00  0.00    -0.056 A 
HETATM    8  C           1     -21.199  -4.064  -9.650  0.00  0.00     0.010 A 
HETATM    9  C           1     -21.728  -4.248 -10.927  0.00  0.00     0.037 A 
HETATM   10  C           1     -23.098  -4.450 -11.093  0.00  0.00     0.065 A 
HETATM   11  C           1     -23.939  -4.467  -9.980  0.00  0.00     0.037 A 
HETATM   12  C           1     -23.411  -4.283  -8.703  0.00  0.00     0.010 A 
BRANCH  10  13
HETATM   13  O           1     -23.612  -4.628 -12.333  0.00  0.00    -0.361 OA
HETATM   14  H           1     -24.463  -5.090 -12.242  0.00  0.00     0.217 HD
ENDBRANCH  10  13
ENDBRANCH   6   7
ENDBRANCH   5   6
BRANCH   5  15
HETATM   15  C           1     -19.630  -5.538  -7.109  0.00  0.00     0.197 C 
HETATM   16  O           1     -18.803  -4.617  -7.272  0.00  0.00    -0.646 OA
HETATM   17  O           1     -19.308  -6.720  -7.361  0.00  0.00    -0.646 OA
ENDBRANCH   5  15
ENDBRANCH   3   5
BRANCH   4  18
HETATM   18  C           1     -21.325  -6.204  -2.914  0.00  0.00     0.283 C 
BRANCH  18  19
HETATM   19  N           1     -22.718  -5.969  -2.411  0.00  0.00    -0.066 N 
HETATM   20  H           1     -23.075  -6.840  -1.956  0.00  0.00     0.275 HD
HETATM   21  H           1     -22.710  -5.189  -1.716  0.00  0.00     0.275 HD
HETATM   22  H           1     -23.340  -5.717  -3.211  0.00  0.00     0.275 HD
ENDBRANCH  18  19
BRANCH  18  23
HETATM   23  C           1     -20.799  -7.519  -2.355  0.00  0.00     0.145 C 
BRANCH  23  24
HETATM   24  C           1     -21.688  -7.977  -1.225  0.00  0.00     0.217 C 
HETATM   25  O           1     -21.831  -7.282  -0.249  0.00  0.00    -0.274 OA
HETATM   26  N           1     -22.334  -9.182  -1.309  0.00  0.00    -0.370 N 
HETATM   27  H           1     -22.931  -9.489  -0.552  0.00  0.00     0.159 HD
HETATM   28  H           1     -22.214  -9.765  -2.127  0.00  0.00     0.159 HD
ENDBRANCH  23  24
ENDBRANCH  18  23
ENDBRANCH   4  18
TORSDOF 9
ENDMDL
MODEL 4
REMARK VINA RESULT:      -6.7      2.084      3.510
REMARK  9 active torsions:
REMARK  status: ('A' for Active; 'I' for Inactive)
REMARK    1  A    between atoms: N_7  and  C_27 
REMARK       I    between atoms: N_9  and  C_11 
REMARK    2  A    between atoms: C_11  and  C_28 
REMARK    3  A    between atoms: O_12  and  C_19 
REMARK    4  A    between atoms: C_16  and  C_20 
REMARK    5  A    between atoms: C_20  and  C_21 
REMARK    6  A    between atoms: C_21  and  C_22 
REMARK    7  A    between atoms: C_21  and  N_25 
REMARK       I    between atoms: N_25  and  C_26 
REMARK    8  A    between atoms: C_26  and  C_27 
REMARK    9  A    between atoms: C_27  and  C_28 
ROOT
HETATM    1  H           1     -20.917  -4.216  -5.074  0.00  0.00     0.163 HD
HETATM    2  O           1     -20.095  -6.563  -6.986  0.00  0.00    -0.271 OA
HETATM    3  N           1     -20.750  -5.170  -5.369  0.00  0.00    -0.344 N 
HETATM    4  C           1     -20.294  -5.426  -6.634  0.00  0.00     0.249 C 
ENDROOT
BRANCH   3   5
HETATM    5  C           1     -20.995  -6.266  -4.452  0.00  0.00     0.189 C 
BRANCH   5   6
HETATM    6  C           1     -21.137  -5.721  -3.037  0.00  0.00     0.074 C 
BRANCH   6   7
HETATM    7  C           1     -21.297  -6.858  -2.076  0.00  0.00    -0.056 A 
HETATM    8  C           1     -22.321  -6.830  -1.129  0.00  0.00     0.010 A 
HETATM    9  C           1     -22.471  -7.889  -0.234  0.00  0.00     0.037 A 
HETATM   10  C           1     -21.598  -8.976  -0.286  0.00  0.00     0.065 A 
HETATM   11  C           1     -20.574  -9.003  -1.234  0.00  0.00     0.037 A 
HETATM   12  C           1     -20.424  -7.944  -2.129  0.00  0.00     0.010 A 
BRANCH  10  13
HETATM   13  O           1     -21.743 -10.004   0.583  0.00  0.00    -0.361 OA
HETATM   14  H           1     -22.573  -9.870   1.072  0.00  0.00     0.217 HD
ENDBRANCH  10  13
ENDBRANCH   6   7
ENDBRANCH   5   6
BRANCH   5  15
HETATM   15  C           1     -22.266  -6.978  -4.848  0.00  0.00     0.197 C 
HETATM   16  O           1     -22.262  -8.215  -5.020  0.00  0.00    -0.646 OA
HETATM   17  O           1     -23.324  -6.328  -5.003  0.00  0.00    -0.646 OA
ENDBRANCH   5  15
ENDBRANCH   3   5
BRANCH   4  18
HETATM   18  C           1     -20.039  -4.285  -7.589  0.00  0.00     0.283 C 
BRANCH  18  19
HETATM   19  N           1     -20.008  -4.807  -8.995  0.00  0.00    -0.066 N 
HETATM   20  H           1     -19.166  -4.430  -9.486  0.00  0.00     0.275 HD
HETATM   21  H           1     -19.965  -5.851  -8.977  0.00  0.00     0.275 HD
HETATM   22  H           1     -20.870  -4.502  -9.499  0.00  0.00     0.275 HD
ENDBRANCH  18  19
BRANCH  18  23
HETATM   23  C           1     -21.151  -3.253  -7.455  0.00  0.00     0.145 C 
BRANCH  23  24
HETATM   24  C           1     -22.385  -3.748  -8.168  0.00  0.00     0.217 C 
HETATM   25  O           1     -22.488  -3.612  -9.363  0.00  0.00    -0.274 OA
HETATM   26  N           1     -23.387  -4.353  -7.458  0.00  0.00    -0.370 N 
HETATM   27  H           1     -24.216  -4.687  -7.936  0.00  0.00     0.159 HD
HETATM   28  H           1     -23.301  -4.468  -6.457  0.00  0.00     0.159 HD
ENDBRANCH  23  24
ENDBRANCH  18  23
ENDBRANCH   4  18
TORSDOF 9
ENDMDL
MODEL 5
REMARK VINA RESULT:      -6.5      2.062      3.400
REMARK  9 active torsions:
REMARK  status: ('A' for Active; 'I' for Inactive)
REMARK    1  A    between atoms: N_7  and  C_27 
REMARK       I    between atoms: N_9  and  C_11 
REMARK    2  A    between atoms: C_11  and  C_28 
REMARK    3  A    between atoms: O_12  and  C_19 
REMARK    4  A    between atoms: C_16  and  C_20 
REMARK    5  A    between atoms: C_20  and  C_21 
REMARK    6  A    between atoms: C_21  and  C_22 
REMARK    7  A    between atoms: C_21  and  N_25 
REMARK       I    between atoms: N_25  and  C_26 
REMARK    8  A    between atoms: C_26  and  C_27 
REMARK    9  A    between atoms: C_27  and  C_28 
ROOT
HETATM    1  H           1     -20.327  -7.101  -7.060  0.00  0.00     0.163 HD
HETATM    2  O           1     -20.416  -4.812  -4.916  0.00  0.00    -0.271 OA
HETATM    3  N           1     -20.302  -6.675  -6.141  0.00  0.00    -0.344 N 
HETATM    4  C           1     -20.447  -5.320  -6.011  0.00  0.00     0.249 C 
ENDROOT
BRANCH   3   5
HETATM    5  C           1     -20.110  -7.500  -4.965  0.00  0.00     0.189 C 
BRANCH   5   6
HETATM    6  C           1     -21.424  -8.180  -4.603  0.00  0.00     0.074 C 
BRANCH   6   7
HETATM    7  C           1     -21.654  -8.071  -3.128  0.00  0.00    -0.056 A 
HETATM    8  C           1     -21.950  -6.833  -2.558  0.00  0.00     0.010 A 
HETATM    9  C           1     -22.165  -6.731  -1.184  0.00  0.00     0.037 A 
HETATM   10  C           1     -22.085  -7.867  -0.379  0.00  0.00     0.065 A 
HETATM   11  C           1     -21.788  -9.106  -0.949  0.00  0.00     0.037 A 
HETATM   12  C           1     -21.573  -9.208  -2.323  0.00  0.00     0.010 A 
BRANCH  10  13
HETATM   13  O           1     -22.293  -7.768   0.956  0.00  0.00    -0.361 OA
HETATM   14  H           1     -22.642  -8.620   1.269  0.00  0.00     0.217 HD
ENDBRANCH  10  13
ENDBRANCH   6   7
ENDBRANCH   5   6
BRANCH   5  15
HETATM   15  C           1     -19.062  -8.548  -5.251  0.00  0.00     0.197 C 
HETATM   16  O           1     -18.678  -9.313  -4.341  0.00  0.00    -0.646 OA
HETATM   17  O           1     -18.579  -8.651  -6.400  0.00  0.00    -0.646 OA
ENDBRANCH   5  15
ENDBRANCH   3   5
BRANCH   4  18
HETATM   18  C           1     -20.646  -4.461  -7.235  0.00  0.00     0.283 C 
BRANCH  18  19
HETATM   19  N           1     -19.323  -4.223  -7.899  0.00  0.00    -0.066 N 
HETATM   20  H           1     -19.479  -3.807  -8.845  0.00  0.00     0.275 HD
HETATM   21  H           1     -18.755  -3.565  -7.318  0.00  0.00     0.275 HD
HETATM   22  H           1     -18.814  -5.129  -7.999  0.00  0.00     0.275 HD
ENDBRANCH  18  19
BRANCH  18  23
HETATM   23  C           1     -21.581  -5.171  -8.206  0.00  0.00     0.145 C 
BRANCH  23  24
HETATM   24  C           1     -22.660  -4.215  -8.655  0.00  0.00     0.217 C 
HETATM   25  O           1     -22.526  -3.591  -9.680  0.00  0.00    -0.274 OA
HETATM   26  N           1     -23.790  -4.058  -7.900  0.00  0.00    -0.370 N 
HETATM   27  H           1     -24.515  -3.418  -8.201  0.00  0.00     0.159 HD
HETATM   28  H           1     -23.903  -4.581  -7.041  0.00  0.00     0.159 HD
ENDBRANCH  23  24
ENDBRANCH  18  23
ENDBRANCH   4  18
TORSDOF 9
ENDMDL
MODEL 6
REMARK VINA RESULT:      -6.3      3.697      7.983
REMARK  9 active torsions:
REMARK  status: ('A' for Active; 'I' for Inactive)
REMARK    1  A    between atoms: N_7  and  C_27 
REMARK       I    between atoms: N_9  and  C_11 
REMARK    2  A    between atoms: C_11  and  C_28 
REMARK    3  A    between atoms: O_12  and  C_19 
REMARK    4  A    between atoms: C_16  and  C_20 
REMARK    5  A    between atoms: C_20  and  C_21 
REMARK    6  A    between atoms: C_21  and  C_22 
REMARK    7  A    between atoms: C_21  and  N_25 
REMARK       I    between atoms: N_25  and  C_26 
REMARK    8  A    between atoms: C_26  and  C_27 
REMARK    9  A    between atoms: C_27  and  C_28 
ROOT
HETATM    1  H           1     -20.376  -8.072  -2.890  0.00  0.00     0.163 HD
HETATM    2  O           1     -22.757  -6.111  -2.319  0.00  0.00    -0.271 OA
HETATM    3  N           1     -21.097  -7.389  -3.090  0.00  0.00    -0.344 N 
HETATM    4  C           1     -21.898  -6.925  -2.081  0.00  0.00     0.249 C 
ENDROOT
BRANCH   3   5
HETATM    5  C           1     -21.280  -6.903  -4.443  0.00  0.00     0.189 C 
BRANCH   5   6
HETATM    6  C           1     -20.555  -5.573  -4.606  0.00  0.00     0.074 C 
BRANCH   6   7
HETATM    7  C           1     -20.688  -5.101  -6.020  0.00  0.00    -0.056 A 
HETATM    8  C           1     -19.546  -4.829  -6.774  0.00  0.00     0.010 A 
HETATM    9  C           1     -19.669  -4.389  -8.092  0.00  0.00     0.037 A 
HETATM   10  C           1     -20.933  -4.223  -8.657  0.00  0.00     0.065 A 
HETATM   11  C           1     -22.075  -4.495  -7.903  0.00  0.00     0.037 A 
HETATM   12  C           1     -21.952  -4.934  -6.585  0.00  0.00     0.010 A 
BRANCH  10  13
HETATM   13  O           1     -21.053  -3.796  -9.937  0.00  0.00    -0.361 OA
HETATM   14  H           1     -20.577  -4.422 -10.508  0.00  0.00     0.217 HD
ENDBRANCH  10  13
ENDBRANCH   6   7
ENDBRANCH   5   6
BRANCH   5  15
HETATM   15  C           1     -20.717  -7.907  -5.419  0.00  0.00     0.197 C 
HETATM   16  O           1     -21.480  -8.514  -6.200  0.00  0.00    -0.646 OA
HETATM   17  O           1     -19.487  -8.131  -5.445  0.00  0.00    -0.646 OA
ENDBRANCH   5  15
ENDBRANCH   3   5
BRANCH   4  18
HETATM   18  C           1     -21.707  -7.432  -0.672  0.00  0.00     0.283 C 
BRANCH  18  19
HETATM   19  N           1     -23.047  -7.669  -0.041  0.00  0.00    -0.066 N 
HETATM   20  H           1     -23.200  -6.972   0.722  0.00  0.00     0.275 HD
HETATM   21  H           1     -23.795  -7.567  -0.763  0.00  0.00     0.275 HD
HETATM   22  H           1     -23.078  -8.634   0.359  0.00  0.00     0.275 HD
ENDBRANCH  18  19
BRANCH  18  23
HETATM   23  C           1     -20.923  -8.737  -0.704  0.00  0.00     0.145 C 
BRANCH  23  24
HETATM   24  C           1     -21.095  -9.460   0.610  0.00  0.00     0.217 C 
HETATM   25  O           1     -20.946  -8.865   1.650  0.00  0.00    -0.274 OA
HETATM   26  N           1     -21.421 -10.789   0.621  0.00  0.00    -0.370 N 
HETATM   27  H           1     -21.537 -11.275   1.502  0.00  0.00     0.159 HD
HETATM   28  H           1     -21.545 -11.288  -0.251  0.00  0.00     0.159 HD
ENDBRANCH  23  24
ENDBRANCH  18  23
ENDBRANCH   4  18
TORSDOF 9
ENDMDL
MODEL 7
REMARK VINA RESULT:      -6.2      3.794      6.362
REMARK  9 active torsions:
REMARK  status: ('A' for Active; 'I' for Inactive)
REMARK    1  A    between atoms: N_7  and  C_27 
REMARK       I    between atoms: N_9  and  C_11 
REMARK    2  A    between atoms: C_11  and  C_28 
REMARK    3  A    between atoms: O_12  and  C_19 
REMARK    4  A    between atoms: C_16  and  C_20 
REMARK    5  A    between atoms: C_20  and  C_21 
REMARK    6  A    between atoms: C_21  and  C_22 
REMARK    7  A    between atoms: C_21  and  N_25 
REMARK       I    between atoms: N_25  and  C_26 
REMARK    8  A    between atoms: C_26  and  C_27 
REMARK    9  A    between atoms: C_27  and  C_28 
ROOT
HETATM    1  H           1     -19.862  -7.440  -2.346  0.00  0.00     0.163 HD
HETATM    2  O           1     -21.879  -8.962  -4.206  0.00  0.00    -0.271 OA
HETATM    3  N           1     -20.699  -7.948  -2.604  0.00  0.00    -0.344 N 
HETATM    4  C           1     -20.880  -8.357  -3.899  0.00  0.00     0.249 C 
ENDROOT
BRANCH   3   5
HETATM    5  C           1     -21.706  -8.242  -1.604  0.00  0.00     0.189 C 
BRANCH   5   6
HETATM    6  C           1     -21.041  -8.862  -0.382  0.00  0.00     0.074 C 
BRANCH   6   7
HETATM    7  C           1     -21.712 -10.159  -0.051  0.00  0.00    -0.056 A 
HETATM    8  C           1     -23.055 -10.352  -0.376  0.00  0.00     0.010 A 
HETATM    9  C           1     -23.681 -11.559  -0.067  0.00  0.00     0.037 A 
HETATM   10  C           1     -22.964 -12.575   0.565  0.00  0.00     0.065 A 
HETATM   11  C           1     -21.621 -12.382   0.890  0.00  0.00     0.037 A 
HETATM   12  C           1     -20.995 -11.174   0.582  0.00  0.00     0.010 A 
BRANCH  10  13
HETATM   13  O           1     -23.571 -13.748   0.865  0.00  0.00    -0.361 OA
HETATM   14  H           1     -24.215 -13.941   0.162  0.00  0.00     0.217 HD
ENDBRANCH  10  13
ENDBRANCH   6   7
ENDBRANCH   5   6
BRANCH   5  15
HETATM   15  C           1     -22.405  -6.966  -1.204  0.00  0.00     0.197 C 
HETATM   16  O           1     -23.001  -6.898  -0.108  0.00  0.00    -0.646 OA
HETATM   17  O           1     -22.388  -5.977  -1.970  0.00  0.00    -0.646 OA
ENDBRANCH   5  15
ENDBRANCH   3   5
BRANCH   4  18
HETATM   18  C           1     -19.832  -8.050  -4.940  0.00  0.00     0.283 C 
BRANCH  18  19
HETATM   19  N           1     -19.364  -9.328  -5.570  0.00  0.00    -0.066 N 
HETATM   20  H           1     -19.618 -10.133  -4.952  0.00  0.00     0.275 HD
HETATM   21  H           1     -19.822  -9.445  -6.502  0.00  0.00     0.275 HD
HETATM   22  H           1     -18.327  -9.298  -5.692  0.00  0.00     0.275 HD
ENDBRANCH  18  19
BRANCH  18  23
HETATM   23  C           1     -20.429  -7.146  -6.011  0.00  0.00     0.145 C 
BRANCH  23  24
HETATM   24  C           1     -21.091  -5.959  -5.355  0.00  0.00     0.217 C 
HETATM   25  O           1     -20.431  -4.999  -5.037  0.00  0.00    -0.274 OA
HETATM   26  N           1     -22.440  -5.971  -5.122  0.00  0.00    -0.370 N 
HETATM   27  H           1     -22.884  -5.174  -4.682  0.00  0.00     0.159 HD
HETATM   28  H           1     -22.993  -6.775  -5.388  0.00  0.00     0.159 HD
ENDBRANCH  23  24
ENDBRANCH  18  23
ENDBRANCH   4  18
TORSDOF 9
ENDMDL
MODEL 8
REMARK VINA RESULT:      -6.1      2.799      4.625
REMARK  9 active torsions:
REMARK  status: ('A' for Active; 'I' for Inactive)
REMARK    1  A    between atoms: N_7  and  C_27 
REMARK       I    between atoms: N_9  and  C_11 
REMARK    2  A    between atoms: C_11  and  C_28 
REMARK    3  A    between atoms: O_12  and  C_19 
REMARK    4  A    between atoms: C_16  and  C_20 
REMARK    5  A    between atoms: C_20  and  C_21 
REMARK    6  A    between atoms: C_21  and  C_22 
REMARK    7  A    between atoms: C_21  and  N_25 
REMARK       I    between atoms: N_25  and  C_26 
REMARK    8  A    between atoms: C_26  and  C_27 
REMARK    9  A    between atoms: C_27  and  C_28 
ROOT
HETATM    1  H           1     -21.644  -7.818  -3.911  0.00  0.00     0.163 HD
HETATM    2  O           1     -19.506  -7.535  -6.190  0.00  0.00    -0.271 OA
HETATM    3  N           1     -20.809  -8.027  -4.445  0.00  0.00    -0.344 N 
HETATM    4  C           1     -20.501  -7.285  -5.553  0.00  0.00     0.249 C 
ENDROOT
BRANCH   3   5
HETATM    5  C           1     -19.940  -9.113  -4.035  0.00  0.00     0.189 C 
BRANCH   5   6
HETATM    6  C           1     -19.435  -8.853  -2.622  0.00  0.00     0.074 C 
BRANCH   6   7
HETATM    7  C           1     -20.592  -8.530  -1.729  0.00  0.00    -0.056 A 
HETATM    8  C           1     -21.072  -9.489  -0.836  0.00  0.00     0.010 A 
HETATM    9  C           1     -22.150  -9.189  -0.004  0.00  0.00     0.037 A 
HETATM   10  C           1     -22.747  -7.930  -0.062  0.00  0.00     0.065 A 
HETATM   11  C           1     -22.267  -6.971  -0.955  0.00  0.00     0.037 A 
HETATM   12  C           1     -21.190  -7.271  -1.787  0.00  0.00     0.010 A 
BRANCH  10  13
HETATM   13  O           1     -23.794  -7.639   0.746  0.00  0.00    -0.361 OA
HETATM   14  H           1     -23.754  -6.691   0.960  0.00  0.00     0.217 HD
ENDBRANCH  10  13
ENDBRANCH   6   7
ENDBRANCH   5   6
BRANCH   5  15
HETATM   15  C           1     -20.709 -10.411  -4.065  0.00  0.00     0.197 C 
HETATM   16  O           1     -21.924 -10.410  -4.358  0.00  0.00    -0.646 OA
HETATM   17  O           1     -20.131 -11.486  -3.796  0.00  0.00    -0.646 OA
ENDBRANCH   5  15
ENDBRANCH   3   5
BRANCH   4  18
HETATM   18  C           1     -21.405  -6.154  -5.980  0.00  0.00     0.283 C 
BRANCH  18  19
HETATM   19  N           1     -22.607  -6.111  -5.083  0.00  0.00    -0.066 N 
HETATM   20  H           1     -22.300  -6.189  -4.087  0.00  0.00     0.275 HD
HETATM   21  H           1     -23.113  -5.207  -5.223  0.00  0.00     0.275 HD
HETATM   22  H           1     -23.243  -6.906  -5.314  0.00  0.00     0.275 HD
ENDBRANCH  18  19
BRANCH  18  23
HETATM   23  C           1     -20.650  -4.835  -5.881  0.00  0.00     0.145 C 
BRANCH  23  24
HETATM   24  C           1     -20.838  -4.052  -7.158  0.00  0.00     0.217 C 
HETATM   25  O           1     -19.897  -3.848  -7.885  0.00  0.00    -0.274 OA
HETATM   26  N           1     -22.077  -3.574  -7.490  0.00  0.00    -0.370 N 
HETATM   27  H           1     -22.204  -3.049  -8.346  0.00  0.00     0.159 HD
HETATM   28  H           1     -22.866  -3.744  -6.880  0.00  0.00     0.159 HD
ENDBRANCH  23  24
ENDBRANCH  18  23
ENDBRANCH   4  18
TORSDOF 9
ENDMDL
MODEL 9
REMARK VINA RESULT:      -6.0      3.343      5.383
REMARK  9 active torsions:
REMARK  status: ('A' for Active; 'I' for Inactive)
REMARK    1  A    between atoms: N_7  and  C_27 
REMARK       I    between atoms: N_9  and  C_11 
REMARK    2  A    between atoms: C_11  and  C_28 
REMARK    3  A    between atoms: O_12  and  C_19 
REMARK    4  A    between atoms: C_16  and  C_20 
REMARK    5  A    between atoms: C_20  and  C_21 
REMARK    6  A    between atoms: C_21  and  C_22 
REMARK    7  A    between atoms: C_21  and  N_25 
REMARK       I    between atoms: N_25  and  C_26 
REMARK    8  A    between atoms: C_26  and  C_27 
REMARK    9  A    between atoms: C_27  and  C_28 
ROOT
HETATM    1  H           1     -20.603  -6.722  -3.287  0.00  0.00     0.163 HD
HETATM    2  O           1     -21.205  -7.989  -6.093  0.00  0.00    -0.271 OA
HETATM    3  N           1     -20.694  -7.447  -3.988  0.00  0.00    -0.344 N 
HETATM    4  C           1     -21.095  -7.125  -5.257  0.00  0.00     0.249 C 
ENDROOT
BRANCH   3   5
HETATM    5  C           1     -20.403  -8.825  -3.647  0.00  0.00     0.189 C 
BRANCH   5   6
HETATM    6  C           1     -19.209  -8.873  -2.703  0.00  0.00     0.074 C 
BRANCH   6   7
HETATM    7  C           1     -18.028  -9.451  -3.418  0.00  0.00    -0.056 A 
HETATM    8  C           1     -16.859  -9.739  -2.713  0.00  0.00     0.010 A 
HETATM    9  C           1     -15.758 -10.278  -3.378  0.00  0.00     0.037 A 
HETATM   10  C           1     -15.826 -10.531  -4.748  0.00  0.00     0.065 A 
HETATM   11  C           1     -16.995 -10.244  -5.453  0.00  0.00     0.037 A 
HETATM   12  C           1     -18.096  -9.704  -4.788  0.00  0.00     0.010 A 
BRANCH  10  13
HETATM   13  O           1     -14.757 -11.055  -5.394  0.00  0.00    -0.361 OA
HETATM   14  H           1     -15.016 -11.923  -5.749  0.00  0.00     0.217 HD
ENDBRANCH  10  13
ENDBRANCH   6   7
ENDBRANCH   5   6
BRANCH   5  15
HETATM   15  C           1     -21.604  -9.441  -2.972  0.00  0.00     0.197 C 
HETATM   16  O           1     -21.917  -9.093  -1.814  0.00  0.00    -0.646 OA
HETATM   17  O           1     -22.286 -10.301  -3.573  0.00  0.00    -0.646 OA
ENDBRANCH   5  15
ENDBRANCH   3   5
BRANCH   4  18
HETATM   18  C           1     -21.399  -5.690  -5.611  0.00  0.00     0.283 C 
BRANCH  18  19
HETATM   19  N           1     -20.240  -4.822  -5.219  0.00  0.00    -0.066 N 
HETATM   20  H           1     -19.740  -4.501  -6.079  0.00  0.00     0.275 HD
HETATM   21  H           1     -20.589  -3.993  -4.688  0.00  0.00     0.275 HD
HETATM   22  H           1     -19.582  -5.369  -4.620  0.00  0.00     0.275 HD
ENDBRANCH  18  19
BRANCH  18  23
HETATM   23  C           1     -21.633  -5.576  -7.112  0.00  0.00     0.145 C 
BRANCH  23  24
HETATM   24  C           1     -22.254  -4.236  -7.424  0.00  0.00     0.217 C 
HETATM   25  O           1     -21.587  -3.232  -7.363  0.00  0.00    -0.274 OA
HETATM   26  N           1     -23.575  -4.161  -7.777  0.00  0.00    -0.370 N 
HETATM   27  H           1     -23.992  -3.263  -7.988  0.00  0.00     0.159 HD
HETATM   28  H           1     -24.134  -5.003  -7.829  0.00  0.00     0.159 HD
ENDBRANCH  23  24
ENDBRANCH  18  23
ENDBRANCH   4  18
TORSDOF 9
ENDMDL
