MODEL 1
REMARK VINA RESULT:      -6.7      0.000      0.000
REMARK  9 active torsions:
REMARK  status: ('A' for Active; 'I' for Inactive)
REMARK    1  A    between atoms: C_2  and  C_8 
REMARK    2  A    between atoms: C_2  and  C_25 
REMARK    3  A    between atoms: C_8  and  C_19 
REMARK    4  A    between atoms: C_8  and  N_22 
REMARK    5  A    between atoms: C_10  and  C_11 
REMARK    6  A    between atoms: C_11  and  C_12 
REMARK    7  A    between atoms: C_12  and  C_14 
REMARK    8  A    between atoms: C_12  and  N_18 
REMARK       I    between atoms: N_18  and  C_19 
REMARK    9  A    between atoms: C_25  and  C_26 
ROOT
HETATM    1  N           1     -22.858  -4.178  -7.933  0.00  0.00    -0.344 N 
HETATM    2  C           1     -21.605  -4.038  -7.398  0.00  0.00     0.249 C 
HETATM    3  H           1     -23.575  -4.672  -7.419  0.00  0.00     0.163 HD
HETATM    4  O           1     -21.346  -3.079  -6.710  0.00  0.00    -0.271 OA
ENDROOT
BRANCH   1   5
HETATM    5  C           1     -23.155  -3.618  -9.237  0.00  0.00     0.191 C 
BRANCH   5   6
HETATM    6  C           1     -22.399  -4.395 -10.307  0.00  0.00     0.094 C 
BRANCH   6   7
HETATM    7  C           1     -22.785  -3.887 -11.661  0.00  0.00     0.028 A 
HETATM    8  C           1     -22.355  -2.698 -12.201  0.00  0.00     0.114 A 
HETATM    9  N           1     -22.943  -2.636 -13.433  0.00  0.00    -0.360 N 
HETATM   10  H           1     -22.838  -1.860 -14.133  0.00  0.00     0.166 HD
HETATM   11  C           1     -23.691  -3.769 -13.589  0.00  0.00     0.180 A 
HETATM   12  N           1     -23.614  -4.544 -12.533  0.00  0.00    -0.354 N 
ATOM     13  HN          1     -24.073  -5.444 -12.392  1.00  0.00     0.166 HD
ENDBRANCH   6   7
ENDBRANCH   5   6
BRANCH   5  14
HETATM   14  C           1     -24.638  -3.716  -9.498  0.00  0.00     0.197 C 
HETATM   15  O           1     -25.164  -4.831  -9.708  0.00  0.00    -0.646 OA
HETATM   16  O           1     -25.341  -2.683  -9.507  0.00  0.00    -0.646 OA
ENDBRANCH   5  14
ENDBRANCH   1   5
BRANCH   2  17
HETATM   17  C           1     -20.548  -5.081  -7.667  0.00  0.00     0.275 C 
BRANCH  17  18
HETATM   18  C           1     -20.158  -5.760  -6.362  0.00  0.00     0.053 C 
BRANCH  18  19
HETATM   19  C           1     -21.201  -6.811  -6.004  0.00  0.00     0.115 C 
BRANCH  19  20
HETATM   20  C           1     -22.132  -6.260  -4.952  0.00  0.00     0.172 C 
HETATM   21  O           1     -23.337  -6.064  -5.222  0.00  0.00    -0.648 OA
HETATM   22  O           1     -21.698  -5.997  -3.809  0.00  0.00    -0.648 OA
ENDBRANCH  19  20
ENDBRANCH  18  19
ENDBRANCH  17  18
BRANCH  17  23
HETATM   23  N           1     -19.341  -4.424  -8.269  0.00  0.00    -0.066 N 
HETATM   24  H           1     -18.520  -5.067  -8.192  0.00  0.00     0.275 HD
HETATM   25  H           1     -19.524  -4.214  -9.276  0.00  0.00     0.275 HD
HETATM   26  H           1     -19.138  -3.536  -7.759  0.00  0.00     0.275 HD
ENDBRANCH  17  23
ENDBRANCH   2  17
TORSDOF 9
ENDMDL
MODEL 2
REMARK VINA RESULT:      -6.3      2.482      3.494
REMARK  9 active torsions:
REMARK  status: ('A' for Active; 'I' for Inactive)
REMARK    1  A    between atoms: C_2  and  C_8 
REMARK    2  A    between atoms: C_2  and  C_25 
REMARK    3  A    between atoms: C_8  and  C_19 
REMARK    4  A    between atoms: C_8  and  N_22 
REMARK    5  A    between atoms: C_10  and  C_11 
REMARK    6  A    between atoms: C_11  and  C_12 
REMARK    7  A    between atoms: C_12  and  C_14 
REMARK    8  A    between atoms: C_12  and  N_18 
REMARK       I    between atoms: N_18  and  C_19 
REMARK    9  A    between atoms: C_25  and  C_26 
ROOT
HETATM    1  N           1     -22.183  -4.740  -6.398  0.00  0.00    -0.344 N 
HETATM    2  C           1     -21.365  -5.402  -5.522  0.00  0.00     0.249 C 
HETATM    3  H           1     -22.932  -4.156  -6.049  0.00  0.00     0.163 HD
HETATM    4  O           1     -20.355  -4.871  -5.121  0.00  0.00    -0.271 OA
ENDROOT
BRANCH   1   5
HETATM    5  C           1     -21.977  -4.877  -7.827  0.00  0.00     0.191 C 
BRANCH   5   6
HETATM    6  C           1     -22.633  -3.707  -8.548  0.00  0.00     0.094 C 
BRANCH   6   7
HETATM    7  C           1     -22.607  -3.951 -10.024  0.00  0.00     0.028 A 
HETATM    8  C           1     -23.451  -4.808 -10.689  0.00  0.00     0.114 A 
HETATM    9  N           1     -23.081  -4.723 -12.002  0.00  0.00    -0.360 N 
HETATM   10  H           1     -23.514  -5.245 -12.805  0.00  0.00     0.166 HD
HETATM   11  C           1     -22.047  -3.835 -12.080  0.00  0.00     0.180 A 
HETATM   12  N           1     -21.738  -3.351 -10.900  0.00  0.00    -0.354 N 
ATOM     13  HN          1     -21.008  -2.673 -10.680  1.00  0.00     0.166 HD
ENDBRANCH   6   7
ENDBRANCH   5   6
BRANCH   5  14
HETATM   14  C           1     -20.497  -4.885  -8.121  0.00  0.00     0.197 C 
HETATM   15  O           1     -19.890  -5.971  -8.248  0.00  0.00    -0.646 OA
HETATM   16  O           1     -19.877  -3.806  -8.236  0.00  0.00    -0.646 OA
ENDBRANCH   5  14
ENDBRANCH   1   5
BRANCH   2  17
HETATM   17  C           1     -21.722  -6.792  -5.057  0.00  0.00     0.275 C 
BRANCH  17  18
HETATM   18  C           1     -21.148  -7.027  -3.667  0.00  0.00     0.053 C 
BRANCH  18  19
HETATM   19  C           1     -22.039  -6.356  -2.629  0.00  0.00     0.115 C 
BRANCH  19  20
HETATM   20  C           1     -21.967  -7.123  -1.331  0.00  0.00     0.172 C 
HETATM   21  O           1     -20.974  -7.840  -1.083  0.00  0.00    -0.648 OA
HETATM   22  O           1     -22.902  -7.043  -0.505  0.00  0.00    -0.648 OA
ENDBRANCH  19  20
ENDBRANCH  18  19
ENDBRANCH  17  18
BRANCH  17  23
HETATM   23  N           1     -21.152  -7.799  -6.010  0.00  0.00    -0.066 N 
HETATM   24  H           1     -21.589  -7.675  -6.952  0.00  0.00     0.275 HD
HETATM   25  H           1     -20.118  -7.661  -6.086  0.00  0.00     0.275 HD
HETATM   26  H           1     -21.349  -8.763  -5.658  0.00  0.00     0.275 HD
ENDBRANCH  17  23
ENDBRANCH   2  17
TORSDOF 9
ENDMDL
MODEL 3
REMARK VINA RESULT:      -6.1      3.000      7.227
REMARK  9 active torsions:
REMARK  status: ('A' for Active; 'I' for Inactive)
REMARK    1  A    between atoms: C_2  and  C_8 
REMARK    2  A    between atoms: C_2  and  C_25 
REMARK    3  A    between atoms: C_8  and  C_19 
REMARK    4  A    between atoms: C_8  and  N_22 
REMARK    5  A    between atoms: C_10  and  C_11 
REMARK    6  A    between atoms: C_11  and  C_12 
REMARK    7  A    between atoms: C_12  and  C_14 
REMARK    8  A    between atoms: C_12  and  N_18 
REMARK       I    between atoms: N_18  and  C_19 
REMARK    9  A    between atoms: C_25  and  C_26 
ROOT
HETATM    1  N           1     -20.750  -6.217  -7.001  0.00  0.00    -0.344 N 
HETATM    2  C           1     -21.301  -4.989  -7.255  0.00  0.00     0.249 C 
HETATM    3  H           1     -19.928  -6.517  -7.508  0.00  0.00     0.163 HD
HETATM    4  O           1     -20.934  -4.022  -6.629  0.00  0.00    -0.271 OA
ENDROOT
BRANCH   1   5
HETATM    5  C           1     -21.347  -7.087  -6.006  0.00  0.00     0.191 C 
BRANCH   5   6
HETATM    6  C           1     -20.250  -7.872  -5.297  0.00  0.00     0.094 C 
BRANCH   6   7
HETATM    7  C           1     -20.849  -9.062  -4.615  0.00  0.00     0.028 A 
HETATM    8  C           1     -21.065 -10.280  -5.214  0.00  0.00     0.114 A 
HETATM    9  N           1     -21.620 -11.062  -4.239  0.00  0.00    -0.360 N 
HETATM   10  H           1     -21.917 -12.064  -4.340  0.00  0.00     0.166 HD
HETATM   11  C           1     -21.716 -10.301  -3.109  0.00  0.00     0.180 A 
HETATM   12  N           1     -21.257  -9.087  -3.305  0.00  0.00    -0.354 N 
ATOM     13  HN          1     -21.213  -8.325  -2.629  1.00  0.00     0.166 HD
ENDBRANCH   6   7
ENDBRANCH   5   6
BRANCH   5  14
HETATM   14  C           1     -22.100  -6.253  -4.998  0.00  0.00     0.197 C 
HETATM   15  O           1     -23.313  -6.006  -5.173  0.00  0.00    -0.646 OA
HETATM   16  O           1     -21.511  -5.809  -3.989  0.00  0.00    -0.646 OA
ENDBRANCH   5  14
ENDBRANCH   1   5
BRANCH   2  17
HETATM   17  C           1     -22.365  -4.842  -8.314  0.00  0.00     0.275 C 
BRANCH  17  18
HETATM   18  C           1     -21.835  -3.983  -9.453  0.00  0.00     0.053 C 
BRANCH  18  19
HETATM   19  C           1     -22.553  -4.351 -10.744  0.00  0.00     0.115 C 
BRANCH  19  20
HETATM   20  C           1     -23.487  -3.234 -11.139  0.00  0.00     0.172 C 
HETATM   21  O           1     -23.186  -2.469 -12.080  0.00  0.00    -0.648 OA
HETATM   22  O           1     -24.562  -3.072 -10.522  0.00  0.00    -0.648 OA
ENDBRANCH  19  20
ENDBRANCH  18  19
ENDBRANCH  17  18
BRANCH  17  23
HETATM   23  N           1     -23.577  -4.189  -7.717  0.00  0.00    -0.066 N 
HETATM   24  H           1     -23.758  -4.591  -6.769  0.00  0.00     0.275 HD
HETATM   25  H           1     -23.412  -3.161  -7.633  0.00  0.00     0.275 HD
HETATM   26  H           1     -24.403  -4.361  -8.332  0.00  0.00     0.275 HD
ENDBRANCH  17  23
ENDBRANCH   2  17
TORSDOF 9
ENDMDL
MODEL 4
REMARK VINA RESULT:      -5.8      3.867      7.993
REMARK  9 active torsions:
REMARK  status: ('A' for Active; 'I' for Inactive)
REMARK    1  A    between atoms: C_2  and  C_8 
REMARK    2  A    between atoms: C_2  and  C_25 
REMARK    3  A    between atoms: C_8  and  C_19 
REMARK    4  A    between atoms: C_8  and  N_22 
REMARK    5  A    between atoms: C_10  and  C_11 
REMARK    6  A    between atoms: C_11  and  C_12 
REMARK    7  A    between atoms: C_12  and  C_14 
REMARK    8  A    between atoms: C_12  and  N_18 
REMARK       I    between atoms: N_18  and  C_19 
REMARK    9  A    between atoms: C_25  and  C_26 
ROOT
HETATM    1  N           1     -21.438  -6.523  -2.983  0.00  0.00    -0.344 N 
HETATM    2  C           1     -21.702  -6.372  -4.319  0.00  0.00     0.249 C 
HETATM    3  H           1     -21.271  -5.709  -2.406  0.00  0.00     0.163 HD
HETATM    4  O           1     -22.842  -6.244  -4.699  0.00  0.00    -0.271 OA
ENDROOT
BRANCH   1   5
HETATM    5  C           1     -21.398  -7.849  -2.398  0.00  0.00     0.191 C 
BRANCH   5   6
HETATM    6  C           1     -19.951  -8.239  -2.127  0.00  0.00     0.094 C 
BRANCH   6   7
HETATM    7  C           1     -19.497  -9.223  -3.160  0.00  0.00     0.028 A 
HETATM    8  C           1     -18.185  -9.438  -3.511  0.00  0.00     0.114 A 
HETATM    9  N           1     -18.231 -10.406  -4.476  0.00  0.00    -0.360 N 
HETATM   10  H           1     -17.407 -10.822  -4.977  0.00  0.00     0.166 HD
HETATM   11  C           1     -19.543 -10.732  -4.668  0.00  0.00     0.180 A 
HETATM   12  N           1     -20.332 -10.033  -3.886  0.00  0.00    -0.354 N 
ATOM     13  HN          1     -21.349 -10.083  -3.829  1.00  0.00     0.166 HD
ENDBRANCH   6   7
ENDBRANCH   5   6
BRANCH   5  14
HETATM   14  C           1     -22.170  -7.848  -1.102  0.00  0.00     0.197 C 
HETATM   15  O           1     -22.279  -8.902  -0.438  0.00  0.00    -0.646 OA
HETATM   16  O           1     -22.703  -6.794  -0.692  0.00  0.00    -0.646 OA
ENDBRANCH   5  14
ENDBRANCH   1   5
BRANCH   2  17
HETATM   17  C           1     -20.569  -6.365  -5.316  0.00  0.00     0.275 C 
BRANCH  17  18
HETATM   18  C           1     -20.552  -5.035  -6.057  0.00  0.00     0.053 C 
BRANCH  18  19
HETATM   19  C           1     -20.824  -5.274  -7.537  0.00  0.00     0.115 C 
BRANCH  19  20
HETATM   20  C           1     -21.978  -4.411  -7.983  0.00  0.00     0.172 C 
HETATM   21  O           1     -21.870  -3.704  -9.009  0.00  0.00    -0.648 OA
HETATM   22  O           1     -23.042  -4.400  -7.327  0.00  0.00    -0.648 OA
ENDBRANCH  19  20
ENDBRANCH  18  19
ENDBRANCH  17  18
BRANCH  17  23
HETATM   23  N           1     -20.762  -7.482  -6.298  0.00  0.00    -0.066 N 
HETATM   24  H           1     -21.750  -7.821  -6.250  0.00  0.00     0.275 HD
HETATM   25  H           1     -20.560  -7.136  -7.263  0.00  0.00     0.275 HD
HETATM   26  H           1     -20.113  -8.266  -6.066  0.00  0.00     0.275 HD
ENDBRANCH  17  23
ENDBRANCH   2  17
TORSDOF 9
ENDMDL
MODEL 5
REMARK VINA RESULT:      -5.6      5.528      9.729
REMARK  9 active torsions:
REMARK  status: ('A' for Active; 'I' for Inactive)
REMARK    1  A    between atoms: C_2  and  C_8 
REMARK    2  A    between atoms: C_2  and  C_25 
REMARK    3  A    between atoms: C_8  and  C_19 
REMARK    4  A    between atoms: C_8  and  N_22 
REMARK    5  A    between atoms: C_10  and  C_11 
REMARK    6  A    between atoms: C_11  and  C_12 
REMARK    7  A    between atoms: C_12  and  C_14 
REMARK    8  A    between atoms: C_12  and  N_18 
REMARK       I    between atoms: N_18  and  C_19 
REMARK    9  A    between atoms: C_25  and  C_26 
ROOT
HETATM    1  N           1     -21.166  -7.626  -1.889  0.00  0.00    -0.344 N 
HETATM    2  C           1     -21.712  -6.737  -2.776  0.00  0.00     0.249 C 
HETATM    3  H           1     -20.172  -7.605  -1.700  0.00  0.00     0.163 HD
HETATM    4  O           1     -22.117  -5.666  -2.387  0.00  0.00    -0.271 OA
ENDROOT
BRANCH   1   5
HETATM    5  C           1     -22.011  -8.595  -1.220  0.00  0.00     0.191 C 
BRANCH   5   6
HETATM    6  C           1     -21.264  -9.917  -1.094  0.00  0.00     0.094 C 
BRANCH   6   7
HETATM    7  C           1     -22.234 -11.010  -0.769  0.00  0.00     0.028 A 
HETATM    8  C           1     -22.111 -11.873   0.294  0.00  0.00     0.114 A 
HETATM    9  N           1     -23.201 -12.694   0.212  0.00  0.00    -0.360 N 
HETATM   10  H           1     -23.436 -13.481   0.866  0.00  0.00     0.166 HD
HETATM   11  C           1     -23.927 -12.304  -0.877  0.00  0.00     0.180 A 
HETATM   12  N           1     -23.367 -11.287  -1.489  0.00  0.00    -0.354 N 
ATOM     13  HN          1     -23.704 -10.806  -2.323  1.00  0.00     0.166 HD
ENDBRANCH   6   7
ENDBRANCH   5   6
BRANCH   5  14
HETATM   14  C           1     -22.368  -8.086   0.155  0.00  0.00     0.197 C 
HETATM   15  O           1     -21.538  -8.166   1.087  0.00  0.00    -0.646 OA
HETATM   16  O           1     -23.494  -7.585   0.363  0.00  0.00    -0.646 OA
ENDBRANCH   5  14
ENDBRANCH   1   5
BRANCH   2  17
HETATM   17  C           1     -21.812  -7.095  -4.238  0.00  0.00     0.275 C 
BRANCH  17  18
HETATM   18  C           1     -20.462  -6.878  -4.908  0.00  0.00     0.053 C 
BRANCH  18  19
HETATM   19  C           1     -20.371  -5.444  -5.414  0.00  0.00     0.115 C 
BRANCH  19  20
HETATM   20  C           1     -20.162  -5.449  -6.909  0.00  0.00     0.172 C 
HETATM   21  O           1     -19.228  -4.788  -7.413  0.00  0.00    -0.648 OA
HETATM   22  O           1     -20.925  -6.113  -7.644  0.00  0.00    -0.648 OA
ENDBRANCH  19  20
ENDBRANCH  18  19
ENDBRANCH  17  18
BRANCH  17  23
HETATM   23  N           1     -22.842  -6.226  -4.897  0.00  0.00    -0.066 N 
HETATM   24  H           1     -23.635  -6.064  -4.235  0.00  0.00     0.275 HD
HETATM   25  H           1     -22.411  -5.309  -5.155  0.00  0.00     0.275 HD
HETATM   26  H           1     -23.197  -6.698  -5.758  0.00  0.00     0.275 HD
ENDBRANCH  17  23
ENDBRANCH   2  17
TORSDOF 9
ENDMDL
MODEL 6
REMARK VINA RESULT:      -5.5      5.219      7.549
REMARK  9 active torsions:
REMARK  status: ('A' for Active; 'I' for Inactive)
REMARK    1  A    between atoms: C_2  and  C_8 
REMARK    2  A    between atoms: C_2  and  C_25 
REMARK    3  A    between atoms: C_8  and  C_19 
REMARK    4  A    between atoms: C_8  and  N_22 
REMARK    5  A    between atoms: C_10  and  C_11 
REMARK    6  A    between atoms: C_11  and  C_12 
REMARK    7  A    between atoms: C_12  and  C_14 
REMARK    8  A    between atoms: C_12  and  N_18 
REMARK       I    between atoms: N_18  and  C_19 
REMARK    9  A    between atoms: C_25  and  C_26 
ROOT
HETATM    1  N           1     -22.193  -6.458  -3.887  0.00  0.00    -0.344 N 
HETATM    2  C           1     -21.942  -6.383  -2.542  0.00  0.00     0.249 C 
HETATM    3  H           1     -23.147  -6.471  -4.223  0.00  0.00     0.163 HD
HETATM    4  O           1     -21.823  -5.305  -2.010  0.00  0.00    -0.271 OA
ENDROOT
BRANCH   1   5
HETATM    5  C           1     -21.091  -6.521  -4.827  0.00  0.00     0.191 C 
BRANCH   5   6
HETATM    6  C           1     -21.229  -7.771  -5.686  0.00  0.00     0.094 C 
BRANCH   6   7
HETATM    7  C           1     -20.576  -8.927  -4.995  0.00  0.00     0.028 A 
HETATM    8  C           1     -19.221  -9.058  -4.802  0.00  0.00     0.114 A 
HETATM    9  N           1     -19.071 -10.244  -4.139  0.00  0.00    -0.360 N 
HETATM   10  H           1     -18.164 -10.669  -3.824  0.00  0.00     0.166 HD
HETATM   11  C           1     -20.317 -10.774  -3.960  0.00  0.00     0.180 A 
HETATM   12  N           1     -21.247 -10.000  -4.466  0.00  0.00    -0.354 N 
ATOM     13  HN          1     -22.254 -10.161  -4.467  1.00  0.00     0.166 HD
ENDBRANCH   6   7
ENDBRANCH   5   6
BRANCH   5  14
HETATM   14  C           1     -21.116  -5.298  -5.710  0.00  0.00     0.197 C 
HETATM   15  O           1     -22.064  -5.120  -6.506  0.00  0.00    -0.646 OA
HETATM   16  O           1     -20.189  -4.462  -5.647  0.00  0.00    -0.646 OA
ENDBRANCH   5  14
ENDBRANCH   1   5
BRANCH   2  17
HETATM   17  C           1     -21.813  -7.646  -1.726  0.00  0.00     0.275 C 
BRANCH  17  18
HETATM   18  C           1     -22.495  -7.453  -0.379  0.00  0.00     0.053 C 
BRANCH  18  19
HETATM   19  C           1     -22.118  -8.599   0.550  0.00  0.00     0.115 C 
BRANCH  19  20
HETATM   20  C           1     -22.615  -9.901  -0.028  0.00  0.00     0.172 C 
HETATM   21  O           1     -23.840 -10.145  -0.059  0.00  0.00    -0.648 OA
HETATM   22  O           1     -21.800 -10.738  -0.476  0.00  0.00    -0.648 OA
ENDBRANCH  19  20
ENDBRANCH  18  19
ENDBRANCH  17  18
BRANCH  17  23
HETATM   23  N           1     -20.361  -7.955  -1.512  0.00  0.00    -0.066 N 
HETATM   24  H           1     -20.084  -7.673  -0.544  0.00  0.00     0.275 HD
HETATM   25  H           1     -20.201  -8.981  -1.634  0.00  0.00     0.275 HD
HETATM   26  H           1     -19.786  -7.428  -2.206  0.00  0.00     0.275 HD
ENDBRANCH  17  23
ENDBRANCH   2  17
TORSDOF 9
ENDMDL
MODEL 7
REMARK VINA RESULT:      -5.4      7.253      9.517
REMARK  9 active torsions:
REMARK  status: ('A' for Active; 'I' for Inactive)
REMARK    1  A    between atoms: C_2  and  C_8 
REMARK    2  A    between atoms: C_2  and  C_25 
REMARK    3  A    between atoms: C_8  and  C_19 
REMARK    4  A    between atoms: C_8  and  N_22 
REMARK    5  A    between atoms: C_10  and  C_11 
REMARK    6  A    between atoms: C_11  and  C_12 
REMARK    7  A    between atoms: C_12  and  C_14 
REMARK    8  A    between atoms: C_12  and  N_18 
REMARK       I    between atoms: N_18  and  C_19 
REMARK    9  A    between atoms: C_25  and  C_26 
ROOT
HETATM    1  N           1     -21.199  -9.030  -3.346  0.00  0.00    -0.344 N 
HETATM    2  C           1     -21.622  -7.735  -3.209  0.00  0.00     0.249 C 
HETATM    3  H           1     -21.853  -9.792  -3.215  0.00  0.00     0.163 HD
HETATM    4  O           1     -22.046  -7.134  -4.168  0.00  0.00    -0.271 OA
ENDROOT
BRANCH   1   5
HETATM    5  C           1     -19.816  -9.310  -3.677  0.00  0.00     0.191 C 
BRANCH   5   6
HETATM    6  C           1     -19.347 -10.535  -2.901  0.00  0.00     0.094 C 
BRANCH   6   7
HETATM    7  C           1     -17.877 -10.427  -2.638  0.00  0.00     0.028 A 
HETATM    8  C           1     -17.139 -11.351  -1.938  0.00  0.00     0.114 A 
HETATM    9  N           1     -15.863 -10.860  -1.940  0.00  0.00    -0.360 N 
HETATM   10  H           1     -15.025 -11.309  -1.495  0.00  0.00     0.166 HD
HETATM   11  C           1     -15.879  -9.680  -2.628  0.00  0.00     0.180 A 
HETATM   12  N           1     -17.083  -9.393  -3.062  0.00  0.00    -0.354 N 
ATOM     13  HN          1     -17.367  -8.574  -3.601  1.00  0.00     0.166 HD
ENDBRANCH   6   7
ENDBRANCH   5   6
BRANCH   5  14
HETATM   14  C           1     -19.699  -9.577  -5.157  0.00  0.00     0.197 C 
HETATM   15  O           1     -18.683  -9.203  -5.782  0.00  0.00    -0.646 OA
HETATM   16  O           1     -20.619 -10.171  -5.760  0.00  0.00    -0.646 OA
ENDBRANCH   5  14
ENDBRANCH   1   5
BRANCH   2  17
HETATM   17  C           1     -21.558  -7.057  -1.863  0.00  0.00     0.275 C 
BRANCH  17  18
HETATM   18  C           1     -22.291  -7.903  -0.832  0.00  0.00     0.053 C 
BRANCH  18  19
HETATM   19  C           1     -21.313  -8.352   0.247  0.00  0.00     0.115 C 
BRANCH  19  20
HETATM   20  C           1     -21.259  -9.859   0.283  0.00  0.00     0.172 C 
HETATM   21  O           1     -20.569 -10.440   1.148  0.00  0.00    -0.648 OA
HETATM   22  O           1     -21.904 -10.528  -0.554  0.00  0.00    -0.648 OA
ENDBRANCH  19  20
ENDBRANCH  18  19
ENDBRANCH  17  18
BRANCH  17  23
HETATM   23  N           1     -22.204  -5.706  -1.952  0.00  0.00    -0.066 N 
HETATM   24  H           1     -21.503  -5.007  -2.288  0.00  0.00     0.275 HD
HETATM   25  H           1     -23.004  -5.746  -2.623  0.00  0.00     0.275 HD
HETATM   26  H           1     -22.554  -5.425  -1.009  0.00  0.00     0.275 HD
ENDBRANCH  17  23
ENDBRANCH   2  17
TORSDOF 9
ENDMDL
MODEL 8
REMARK VINA RESULT:      -5.3      6.364      8.663
REMARK  9 active torsions:
REMARK  status: ('A' for Active; 'I' for Inactive)
REMARK    1  A    between atoms: C_2  and  C_8 
REMARK    2  A    between atoms: C_2  and  C_25 
REMARK    3  A    between atoms: C_8  and  C_19 
REMARK    4  A    between atoms: C_8  and  N_22 
REMARK    5  A    between atoms: C_10  and  C_11 
REMARK    6  A    between atoms: C_11  and  C_12 
REMARK    7  A    between atoms: C_12  and  C_14 
REMARK    8  A    between atoms: C_12  and  N_18 
REMARK       I    between atoms: N_18  and  C_19 
REMARK    9  A    between atoms: C_25  and  C_26 
ROOT
HETATM    1  N           1     -21.661  -8.155  -3.027  0.00  0.00    -0.344 N 
HETATM    2  C           1     -21.738  -7.554  -1.799  0.00  0.00     0.249 C 
HETATM    3  H           1     -22.414  -8.751  -3.347  0.00  0.00     0.163 HD
HETATM    4  O           1     -22.242  -6.461  -1.692  0.00  0.00    -0.271 OA
ENDROOT
BRANCH   1   5
HETATM    5  C           1     -20.500  -7.938  -3.868  0.00  0.00     0.191 C 
BRANCH   5   6
HETATM    6  C           1     -20.000  -9.276  -4.396  0.00  0.00     0.094 C 
BRANCH   6   7
HETATM    7  C           1     -18.563  -9.457  -4.017  0.00  0.00     0.028 A 
HETATM    8  C           1     -18.070  -9.331  -2.740  0.00  0.00     0.114 A 
HETATM    9  N           1     -16.729  -9.576  -2.852  0.00  0.00    -0.360 N 
HETATM   10  H           1     -16.029  -9.566  -2.070  0.00  0.00     0.166 HD
HETATM   11  C           1     -16.468  -9.836  -4.168  0.00  0.00     0.180 A 
HETATM   12  N           1     -17.558  -9.772  -4.896  0.00  0.00    -0.354 N 
ATOM     13  HN          1     -17.640  -9.925  -5.901  1.00  0.00     0.166 HD
ENDBRANCH   6   7
ENDBRANCH   5   6
BRANCH   5  14
HETATM   14  C           1     -20.880  -7.050  -5.027  0.00  0.00     0.197 C 
HETATM   15  O           1     -21.037  -7.542  -6.167  0.00  0.00    -0.646 OA
HETATM   16  O           1     -21.038  -5.823  -4.850  0.00  0.00    -0.646 OA
ENDBRANCH   5  14
ENDBRANCH   1   5
BRANCH   2  17
HETATM   17  C           1     -21.194  -8.256  -0.579  0.00  0.00     0.275 C 
BRANCH  17  18
HETATM   18  C           1     -21.385  -9.759  -0.729  0.00  0.00     0.053 C 
BRANCH  18  19
HETATM   19  C           1     -22.815 -10.129  -0.354  0.00  0.00     0.115 C 
BRANCH  19  20
HETATM   20  C           1     -23.391 -11.045  -1.406  0.00  0.00     0.172 C 
HETATM   21  O           1     -23.029 -10.935  -2.597  0.00  0.00    -0.648 OA
HETATM   22  O           1     -24.231 -11.914  -1.086  0.00  0.00    -0.648 OA
ENDBRANCH  19  20
ENDBRANCH  18  19
ENDBRANCH  17  18
BRANCH  17  23
HETATM   23  N           1     -21.926  -7.778   0.640  0.00  0.00    -0.066 N 
HETATM   24  H           1     -22.211  -8.600   1.220  0.00  0.00     0.275 HD
HETATM   25  H           1     -21.300  -7.157   1.201  0.00  0.00     0.275 HD
HETATM   26  H           1     -22.776  -7.245   0.349  0.00  0.00     0.275 HD
ENDBRANCH  17  23
ENDBRANCH   2  17
TORSDOF 9
ENDMDL
MODEL 9
REMARK VINA RESULT:      -5.3      4.311      8.374
REMARK  9 active torsions:
REMARK  status: ('A' for Active; 'I' for Inactive)
REMARK    1  A    between atoms: C_2  and  C_8 
REMARK    2  A    between atoms: C_2  and  C_25 
REMARK    3  A    between atoms: C_8  and  C_19 
REMARK    4  A    between atoms: C_8  and  N_22 
REMARK    5  A    between atoms: C_10  and  C_11 
REMARK    6  A    between atoms: C_11  and  C_12 
REMARK    7  A    between atoms: C_12  and  C_14 
REMARK    8  A    between atoms: C_12  and  N_18 
REMARK       I    between atoms: N_18  and  C_19 
REMARK    9  A    between atoms: C_25  and  C_26 
ROOT
HETATM    1  N           1     -20.875  -8.205  -5.782  0.00  0.00    -0.344 N 
HETATM    2  C           1     -20.618  -6.925  -6.197  0.00  0.00     0.249 C 
HETATM    3  H           1     -21.500  -8.794  -6.316  0.00  0.00     0.163 HD
HETATM    4  O           1     -19.696  -6.707  -6.947  0.00  0.00    -0.271 OA
ENDROOT
BRANCH   1   5
HETATM    5  C           1     -20.249  -8.715  -4.577  0.00  0.00     0.191 C 
BRANCH   5   6
HETATM    6  C           1     -21.213  -9.655  -3.865  0.00  0.00     0.094 C 
BRANCH   6   7
HETATM    7  C           1     -21.364  -9.229  -2.439  0.00  0.00     0.028 A 
HETATM    8  C           1     -20.626  -8.237  -1.837  0.00  0.00     0.114 A 
HETATM    9  N           1     -21.088  -8.182  -0.551  0.00  0.00    -0.360 N 
HETATM   10  H           1     -20.751  -7.533   0.202  0.00  0.00     0.166 HD
HETATM   11  C           1     -22.069  -9.125  -0.427  0.00  0.00     0.180 A 
HETATM   12  N           1     -22.258  -9.773  -1.552  0.00  0.00    -0.354 N 
ATOM     13  HN          1     -22.928 -10.521  -1.730  1.00  0.00     0.166 HD
ENDBRANCH   6   7
ENDBRANCH   5   6
BRANCH   5  14
HETATM   14  C           1     -18.992  -9.465  -4.945  0.00  0.00     0.197 C 
HETATM   15  O           1     -18.928 -10.084  -6.030  0.00  0.00    -0.646 OA
HETATM   16  O           1     -18.016  -9.470  -4.164  0.00  0.00    -0.646 OA
ENDBRANCH   5  14
ENDBRANCH   1   5
BRANCH   2  17
HETATM   17  C           1     -21.487  -5.788  -5.719  0.00  0.00     0.275 C 
BRANCH  17  18
HETATM   18  C           1     -21.154  -4.527  -6.505  0.00  0.00     0.053 C 
BRANCH  18  19
HETATM   19  C           1     -22.284  -4.222  -7.479  0.00  0.00     0.115 C 
BRANCH  19  20
HETATM   20  C           1     -21.719  -4.034  -8.865  0.00  0.00     0.172 C 
HETATM   21  O           1     -22.422  -3.522  -9.763  0.00  0.00    -0.648 OA
HETATM   22  O           1     -20.547  -4.391  -9.116  0.00  0.00    -0.648 OA
ENDBRANCH  19  20
ENDBRANCH  18  19
ENDBRANCH  17  18
BRANCH  17  23
HETATM   23  N           1     -21.235  -5.547  -4.259  0.00  0.00    -0.066 N 
HETATM   24  H           1     -21.963  -6.042  -3.695  0.00  0.00     0.275 HD
HETATM   25  H           1     -20.290  -5.911  -4.004  0.00  0.00     0.275 HD
HETATM   26  H           1     -21.279  -4.522  -4.063  0.00  0.00     0.275 HD
ENDBRANCH  17  23
ENDBRANCH   2  17
TORSDOF 9
ENDMDL
