MODEL 1
REMARK VINA RESULT:      -5.6      0.000      0.000
REMARK  8 active torsions:
REMARK  status: ('A' for Active; 'I' for Inactive)
REMARK    1  A    between atoms: N_2  and  C_17 
REMARK       I    between atoms: N_2  and  C_3 
REMARK    2  A    between atoms: C_3  and  C_4 
REMARK    3  A    between atoms: C_4  and  C_5 
REMARK    4  A    between atoms: C_4  and  N_7 
REMARK    5  A    between atoms: C_5  and  Se_6 
REMARK    6  A    between atoms: O_15  and  C_16 
REMARK    7  A    between atoms: C_16  and  C_17 
REMARK    8  A    between atoms: C_17  and  C_18 
ROOT
HETATM    1  N           1     -35.002  -0.776 -14.080  0.00  0.00    -0.343 N 
HETATM    2  C           1     -35.481  -1.264 -12.894  0.00  0.00     0.249 C 
HETATM    3  O           1     -36.659  -1.181 -12.638  0.00  0.00    -0.271 OA
HETATM    4  H           1     -34.016  -0.847 -14.294  0.00  0.00     0.163 HD
ENDROOT
BRANCH   2   5
HETATM    5  C           1     -34.539  -1.907 -11.906  0.00  0.00     0.274 C 
BRANCH   5   6
HETATM    6  C           1     -34.651  -3.422 -12.008  0.00  0.00     0.045 C 
BRANCH   6   7
HETATM    7 Se           1     -32.876  -4.216 -11.881  0.00  0.00     0.000 Se
HETATM    8  H           1     -33.249  -5.164 -10.819  0.00  0.00     0.000 HD
ENDBRANCH   6   7
ENDBRANCH   5   6
BRANCH   5   9
HETATM    9  N           1     -34.899  -1.472 -10.516  0.00  0.00    -0.067 N 
HETATM   10  H           1     -35.879  -1.765 -10.302  0.00  0.00     0.275 HD
HETATM   11  H           1     -34.246  -1.917  -9.833  0.00  0.00     0.275 HD
HETATM   12  H           1     -34.822  -0.433 -10.446  0.00  0.00     0.275 HD
ENDBRANCH   5   9
ENDBRANCH   2   5
BRANCH   1  13
HETATM   13  C           1     -35.908  -0.159 -15.028  0.00  0.00     0.209 C 
BRANCH  13  14
HETATM   14  C           1     -35.503   1.294 -15.244  0.00  0.00     0.200 C 
BRANCH  14  15
HETATM   15  O           1     -36.441   1.923 -16.075  0.00  0.00    -0.398 OA
HETATM   16  H           1     -36.735   1.277 -16.694  0.00  0.00     0.209 HD
ENDBRANCH  14  15
ENDBRANCH  13  14
BRANCH  13  17
HETATM   17  C           1     -35.843  -0.899 -16.342  0.00  0.00     0.198 C 
HETATM   18  O           1     -36.775  -0.792 -17.167  0.00  0.00    -0.646 OA
HETATM   19  O           1     -34.855  -1.619 -16.604  0.00  0.00    -0.646 OA
ENDBRANCH  13  17
ENDBRANCH   1  13
TORSDOF 8
ENDMDL
MODEL 2
REMARK VINA RESULT:      -5.2      3.047      5.171
REMARK  8 active torsions:
REMARK  status: ('A' for Active; 'I' for Inactive)
REMARK    1  A    between atoms: N_2  and  C_17 
REMARK       I    between atoms: N_2  and  C_3 
REMARK    2  A    between atoms: C_3  and  C_4 
REMARK    3  A    between atoms: C_4  and  C_5 
REMARK    4  A    between atoms: C_4  and  N_7 
REMARK    5  A    between atoms: C_5  and  Se_6 
REMARK    6  A    between atoms: O_15  and  C_16 
REMARK    7  A    between atoms: C_16  and  C_17 
REMARK    8  A    between atoms: C_17  and  C_18 
ROOT
HETATM    1  N           1     -34.687  -1.629 -13.133  0.00  0.00    -0.343 N 
HETATM    2  C           1     -35.812  -0.858 -13.247  0.00  0.00     0.249 C 
HETATM    3  O           1     -36.842  -1.209 -12.721  0.00  0.00    -0.271 OA
HETATM    4  H           1     -33.825  -1.334 -13.573  0.00  0.00     0.163 HD
ENDROOT
BRANCH   2   5
HETATM    5  C           1     -35.767   0.432 -14.030  0.00  0.00     0.274 C 
BRANCH   5   6
HETATM    6  C           1     -36.736   0.350 -15.202  0.00  0.00     0.045 C 
BRANCH   6   7
HETATM    7 Se           1     -36.045  -0.894 -16.532  0.00  0.00     0.000 Se
HETATM    8  H           1     -36.950  -1.989 -16.148  0.00  0.00     0.000 HD
ENDBRANCH   6   7
ENDBRANCH   5   6
BRANCH   5   9
HETATM    9  N           1     -34.376   0.654 -14.547  0.00  0.00    -0.067 N 
HETATM   10  H           1     -34.360   0.500 -15.581  0.00  0.00     0.275 HD
HETATM   11  H           1     -34.079   1.633 -14.336  0.00  0.00     0.275 HD
HETATM   12  H           1     -33.722  -0.016 -14.084  0.00  0.00     0.275 HD
ENDBRANCH   5   9
ENDBRANCH   2   5
BRANCH   1  13
HETATM   13  C           1     -34.732  -2.868 -12.381  0.00  0.00     0.209 C 
BRANCH  13  14
HETATM   14  C           1     -34.217  -4.008 -13.251  0.00  0.00     0.200 C 
BRANCH  14  15
HETATM   15  O           1     -34.955  -5.170 -12.986  0.00  0.00    -0.398 OA
HETATM   16  H           1     -34.430  -5.703 -12.414  0.00  0.00     0.209 HD
ENDBRANCH  14  15
ENDBRANCH  13  14
BRANCH  13  17
HETATM   17  C           1     -33.865  -2.742 -11.152  0.00  0.00     0.198 C 
HETATM   18  O           1     -33.539  -1.612 -10.729  0.00  0.00    -0.646 OA
HETATM   19  O           1     -33.472  -3.769 -10.557  0.00  0.00    -0.646 OA
ENDBRANCH  13  17
ENDBRANCH   1  13
TORSDOF 8
ENDMDL
MODEL 3
REMARK VINA RESULT:      -5.1      2.149      3.014
REMARK  8 active torsions:
REMARK  status: ('A' for Active; 'I' for Inactive)
REMARK    1  A    between atoms: N_2  and  C_17 
REMARK       I    between atoms: N_2  and  C_3 
REMARK    2  A    between atoms: C_3  and  C_4 
REMARK    3  A    between atoms: C_4  and  C_5 
REMARK    4  A    between atoms: C_4  and  N_7 
REMARK    5  A    between atoms: C_5  and  Se_6 
REMARK    6  A    between atoms: O_15  and  C_16 
REMARK    7  A    between atoms: C_16  and  C_17 
REMARK    8  A    between atoms: C_17  and  C_18 
ROOT
HETATM    1  N           1     -34.941  -1.683 -13.212  0.00  0.00    -0.343 N 
HETATM    2  C           1     -34.781  -2.660 -12.268  0.00  0.00     0.249 C 
HETATM    3  O           1     -34.999  -2.418 -11.104  0.00  0.00    -0.271 OA
HETATM    4  H           1     -34.760  -1.886 -14.186  0.00  0.00     0.163 HD
ENDROOT
BRANCH   2   5
HETATM    5  C           1     -34.333  -4.041 -12.680  0.00  0.00     0.274 C 
BRANCH   5   6
HETATM    6  C           1     -33.331  -4.575 -11.665  0.00  0.00     0.045 C 
BRANCH   6   7
HETATM    7 Se           1     -34.079  -6.136 -10.772  0.00  0.00     0.000 Se
HETATM    8  H           1     -35.251  -6.227 -11.659  0.00  0.00     0.000 HD
ENDBRANCH   6   7
ENDBRANCH   5   6
BRANCH   5   9
HETATM    9  N           1     -33.687  -3.974 -14.032  0.00  0.00    -0.067 N 
HETATM   10  H           1     -32.671  -4.201 -13.945  0.00  0.00     0.275 HD
HETATM   11  H           1     -34.144  -4.664 -14.670  0.00  0.00     0.275 HD
HETATM   12  H           1     -33.798  -3.012 -14.423  0.00  0.00     0.275 HD
ENDBRANCH   5   9
ENDBRANCH   2   5
BRANCH   1  13
HETATM   13  C           1     -35.372  -0.356 -12.815  0.00  0.00     0.209 C 
BRANCH  13  14
HETATM   14  C           1     -34.749   0.678 -13.745  0.00  0.00     0.200 C 
BRANCH  14  15
HETATM   15  O           1     -34.681   0.159 -15.045  0.00  0.00    -0.398 OA
HETATM   16  H           1     -34.142  -0.613 -15.004  0.00  0.00     0.209 HD
ENDBRANCH  14  15
ENDBRANCH  13  14
BRANCH  13  17
HETATM   17  C           1     -36.876  -0.268 -12.901  0.00  0.00     0.198 C 
HETATM   18  O           1     -37.471  -0.698 -13.913  0.00  0.00    -0.646 OA
HETATM   19  O           1     -37.527   0.235 -11.960  0.00  0.00    -0.646 OA
ENDBRANCH  13  17
ENDBRANCH   1  13
TORSDOF 8
ENDMDL
MODEL 4
REMARK VINA RESULT:      -5.0     13.706     14.798
REMARK  8 active torsions:
REMARK  status: ('A' for Active; 'I' for Inactive)
REMARK    1  A    between atoms: N_2  and  C_17 
REMARK       I    between atoms: N_2  and  C_3 
REMARK    2  A    between atoms: C_3  and  C_4 
REMARK    3  A    between atoms: C_4  and  C_5 
REMARK    4  A    between atoms: C_4  and  N_7 
REMARK    5  A    between atoms: C_5  and  Se_6 
REMARK    6  A    between atoms: O_15  and  C_16 
REMARK    7  A    between atoms: C_16  and  C_17 
REMARK    8  A    between atoms: C_17  and  C_18 
ROOT
HETATM    1  N           1     -22.166  -4.804  -8.988  0.00  0.00    -0.343 N 
HETATM    2  C           1     -21.639  -4.545  -7.752  0.00  0.00     0.249 C 
HETATM    3  O           1     -21.524  -3.404  -7.371  0.00  0.00    -0.271 OA
HETATM    4  H           1     -22.264  -5.759  -9.306  0.00  0.00     0.163 HD
ENDROOT
BRANCH   2   5
HETATM    5  C           1     -21.203  -5.684  -6.864  0.00  0.00     0.274 C 
BRANCH   5   6
HETATM    6  C           1     -20.881  -5.152  -5.474  0.00  0.00     0.045 C 
BRANCH   6   7
HETATM    7 Se           1     -21.508  -6.417  -4.132  0.00  0.00     0.000 Se
HETATM    8  H           1     -20.223  -6.471  -3.415  0.00  0.00     0.000 HD
ENDBRANCH   6   7
ENDBRANCH   5   6
BRANCH   5   9
HETATM    9  N           1     -19.981  -6.332  -7.446  0.00  0.00    -0.067 N 
HETATM   10  H           1     -20.034  -6.303  -8.489  0.00  0.00     0.275 HD
HETATM   11  H           1     -19.129  -5.816  -7.126  0.00  0.00     0.275 HD
HETATM   12  H           1     -19.927  -7.325  -7.126  0.00  0.00     0.275 HD
ENDBRANCH   5   9
ENDBRANCH   2   5
BRANCH   1  13
HETATM   13  C           1     -22.585  -3.709  -9.841  0.00  0.00     0.209 C 
BRANCH  13  14
HETATM   14  C           1     -21.749  -3.709 -11.114  0.00  0.00     0.200 C 
BRANCH  14  15
HETATM   15  O           1     -22.369  -4.512 -12.082  0.00  0.00    -0.398 OA
HETATM   16  H           1     -22.282  -5.404 -11.794  0.00  0.00     0.209 HD
ENDBRANCH  14  15
ENDBRANCH  13  14
BRANCH  13  17
HETATM   17  C           1     -24.042  -3.877 -10.196  0.00  0.00     0.198 C 
HETATM   18  O           1     -24.640  -4.934  -9.902  0.00  0.00    -0.646 OA
HETATM   19  O           1     -24.651  -2.957 -10.786  0.00  0.00    -0.646 OA
ENDBRANCH  13  17
ENDBRANCH   1  13
TORSDOF 8
ENDMDL
MODEL 5
REMARK VINA RESULT:      -5.0      9.746     11.002
REMARK  8 active torsions:
REMARK  status: ('A' for Active; 'I' for Inactive)
REMARK    1  A    between atoms: N_2  and  C_17 
REMARK       I    between atoms: N_2  and  C_3 
REMARK    2  A    between atoms: C_3  and  C_4 
REMARK    3  A    between atoms: C_4  and  C_5 
REMARK    4  A    between atoms: C_4  and  N_7 
REMARK    5  A    between atoms: C_5  and  Se_6 
REMARK    6  A    between atoms: O_15  and  C_16 
REMARK    7  A    between atoms: C_16  and  C_17 
REMARK    8  A    between atoms: C_17  and  C_18 
ROOT
HETATM    1  N           1     -27.681  -6.907 -17.519  0.00  0.00    -0.343 N 
HETATM    2  C           1     -28.660  -6.329 -18.281  0.00  0.00     0.249 C 
HETATM    3  O           1     -28.469  -5.253 -18.797  0.00  0.00    -0.271 OA
HETATM    4  H           1     -27.840  -7.807 -17.088  0.00  0.00     0.163 HD
ENDROOT
BRANCH   2   5
HETATM    5  C           1     -29.979  -7.036 -18.478  0.00  0.00     0.274 C 
BRANCH   5   6
HETATM    6  C           1     -30.802  -6.942 -17.200  0.00  0.00     0.045 C 
BRANCH   6   7
HETATM    7 Se           1     -31.423  -5.111 -16.960  0.00  0.00     0.000 Se
HETATM    8  H           1     -30.436  -4.791 -15.915  0.00  0.00     0.000 HD
ENDBRANCH   6   7
ENDBRANCH   5   6
BRANCH   5   9
HETATM    9  N           1     -29.728  -8.479 -18.804  0.00  0.00    -0.067 N 
HETATM   10  H           1     -28.700  -8.667 -18.789  0.00  0.00     0.275 HD
HETATM   11  H           1     -30.202  -9.083 -18.095  0.00  0.00     0.275 HD
HETATM   12  H           1     -30.108  -8.692 -19.754  0.00  0.00     0.275 HD
ENDBRANCH   5   9
ENDBRANCH   2   5
BRANCH   1  13
HETATM   13  C           1     -26.414  -6.226 -17.331  0.00  0.00     0.209 C 
BRANCH  13  14
HETATM   14  C           1     -25.888  -6.512 -15.930  0.00  0.00     0.200 C 
BRANCH  14  15
HETATM   15  O           1     -24.880  -5.592 -15.611  0.00  0.00    -0.398 OA
HETATM   16  H           1     -25.303  -4.764 -15.460  0.00  0.00     0.209 HD
ENDBRANCH  14  15
ENDBRANCH  13  14
BRANCH  13  17
HETATM   17  C           1     -25.420  -6.722 -18.352  0.00  0.00     0.198 C 
HETATM   18  O           1     -25.716  -6.718 -19.566  0.00  0.00    -0.646 OA
HETATM   19  O           1     -24.299  -7.136 -17.983  0.00  0.00    -0.646 OA
ENDBRANCH  13  17
ENDBRANCH   1  13
TORSDOF 8
ENDMDL
MODEL 6
REMARK VINA RESULT:      -4.9      1.932      2.356
REMARK  8 active torsions:
REMARK  status: ('A' for Active; 'I' for Inactive)
REMARK    1  A    between atoms: N_2  and  C_17 
REMARK       I    between atoms: N_2  and  C_3 
REMARK    2  A    between atoms: C_3  and  C_4 
REMARK    3  A    between atoms: C_4  and  C_5 
REMARK    4  A    between atoms: C_4  and  N_7 
REMARK    5  A    between atoms: C_5  and  Se_6 
REMARK    6  A    between atoms: O_15  and  C_16 
REMARK    7  A    between atoms: C_16  and  C_17 
REMARK    8  A    between atoms: C_17  and  C_18 
ROOT
HETATM    1  N           1     -35.283  -1.030 -12.686  0.00  0.00    -0.343 N 
HETATM    2  C           1     -34.666  -2.247 -12.788  0.00  0.00     0.249 C 
HETATM    3  O           1     -34.694  -2.853 -13.833  0.00  0.00    -0.271 OA
HETATM    4  H           1     -35.259  -0.522 -11.812  0.00  0.00     0.163 HD
ENDROOT
BRANCH   2   5
HETATM    5  C           1     -33.949  -2.831 -11.596  0.00  0.00     0.274 C 
BRANCH   5   6
HETATM    6  C           1     -34.834  -3.877 -10.932  0.00  0.00     0.045 C 
BRANCH   6   7
HETATM    7 Se           1     -33.947  -5.611 -10.988  0.00  0.00     0.000 Se
HETATM    8  H           1     -32.695  -5.119 -10.390  0.00  0.00     0.000 HD
ENDBRANCH   6   7
ENDBRANCH   5   6
BRANCH   5   9
HETATM    9  N           1     -33.642  -1.740 -10.613  0.00  0.00    -0.067 N 
HETATM   10  H           1     -34.455  -1.611  -9.970  0.00  0.00     0.275 HD
HETATM   11  H           1     -32.796  -2.001 -10.057  0.00  0.00     0.275 HD
HETATM   12  H           1     -33.459  -0.849 -11.128  0.00  0.00     0.275 HD
ENDBRANCH   5   9
ENDBRANCH   2   5
BRANCH   1  13
HETATM   13  C           1     -35.972  -0.469 -13.832  0.00  0.00     0.209 C 
BRANCH  13  14
HETATM   14  C           1     -37.408  -0.133 -13.447  0.00  0.00     0.200 C 
BRANCH  14  15
HETATM   15  O           1     -38.046   0.498 -14.523  0.00  0.00    -0.398 OA
HETATM   16  H           1     -38.964   0.537 -14.313  0.00  0.00     0.209 HD
ENDBRANCH  14  15
ENDBRANCH  13  14
BRANCH  13  17
HETATM   17  C           1     -35.265   0.787 -14.280  0.00  0.00     0.198 C 
HETATM   18  O           1     -35.544   1.303 -15.383  0.00  0.00    -0.646 OA
HETATM   19  O           1     -34.399   1.311 -13.545  0.00  0.00    -0.646 OA
ENDBRANCH  13  17
ENDBRANCH   1  13
TORSDOF 8
ENDMDL
MODEL 7
REMARK VINA RESULT:      -4.9     10.727     11.849
REMARK  8 active torsions:
REMARK  status: ('A' for Active; 'I' for Inactive)
REMARK    1  A    between atoms: N_2  and  C_17 
REMARK       I    between atoms: N_2  and  C_3 
REMARK    2  A    between atoms: C_3  and  C_4 
REMARK    3  A    between atoms: C_4  and  C_5 
REMARK    4  A    between atoms: C_4  and  N_7 
REMARK    5  A    between atoms: C_5  and  Se_6 
REMARK    6  A    between atoms: O_15  and  C_16 
REMARK    7  A    between atoms: C_16  and  C_17 
REMARK    8  A    between atoms: C_17  and  C_18 
ROOT
HETATM    1  N           1     -27.409  -7.252 -19.431  0.00  0.00    -0.343 N 
HETATM    2  C           1     -28.313  -6.394 -18.867  0.00  0.00     0.249 C 
HETATM    3  O           1     -28.094  -5.206 -18.856  0.00  0.00    -0.271 OA
HETATM    4  H           1     -27.593  -8.246 -19.442  0.00  0.00     0.163 HD
ENDROOT
BRANCH   2   5
HETATM    5  C           1     -29.585  -6.931 -18.259  0.00  0.00     0.274 C 
BRANCH   5   6
HETATM    6  C           1     -29.700  -6.456 -16.816  0.00  0.00     0.045 C 
BRANCH   6   7
HETATM    7 Se           1     -28.118  -7.009 -15.822  0.00  0.00     0.000 Se
HETATM    8  H           1     -28.836  -7.179 -14.548  0.00  0.00     0.000 HD
ENDBRANCH   6   7
ENDBRANCH   5   6
BRANCH   5   9
HETATM    9  N           1     -29.559  -8.431 -18.290  0.00  0.00    -0.067 N 
HETATM   10  H           1     -29.867  -8.766 -19.230  0.00  0.00     0.275 HD
HETATM   11  H           1     -28.587  -8.765 -18.102  0.00  0.00     0.275 HD
HETATM   12  H           1     -30.203  -8.805 -17.557  0.00  0.00     0.275 HD
ENDBRANCH   5   9
ENDBRANCH   2   5
BRANCH   1  13
HETATM   13  C           1     -26.187  -6.734 -20.016  0.00  0.00     0.209 C 
BRANCH  13  14
HETATM   14  C           1     -25.095  -6.694 -18.954  0.00  0.00     0.200 C 
BRANCH  14  15
HETATM   15  O           1     -24.239  -7.792 -19.120  0.00  0.00    -0.398 OA
HETATM   16  H           1     -24.753  -8.486 -19.497  0.00  0.00     0.209 HD
ENDBRANCH  14  15
ENDBRANCH  13  14
BRANCH  13  17
HETATM   17  C           1     -25.752  -7.630 -21.150  0.00  0.00     0.198 C 
HETATM   18  O           1     -24.735  -7.346 -21.817  0.00  0.00    -0.646 OA
HETATM   19  O           1     -26.412  -8.657 -21.422  0.00  0.00    -0.646 OA
ENDBRANCH  13  17
ENDBRANCH   1  13
TORSDOF 8
ENDMDL
MODEL 8
REMARK VINA RESULT:      -4.9      3.192      5.234
REMARK  8 active torsions:
REMARK  status: ('A' for Active; 'I' for Inactive)
REMARK    1  A    between atoms: N_2  and  C_17 
REMARK       I    between atoms: N_2  and  C_3 
REMARK    2  A    between atoms: C_3  and  C_4 
REMARK    3  A    between atoms: C_4  and  C_5 
REMARK    4  A    between atoms: C_4  and  N_7 
REMARK    5  A    between atoms: C_5  and  Se_6 
REMARK    6  A    between atoms: O_15  and  C_16 
REMARK    7  A    between atoms: C_16  and  C_17 
REMARK    8  A    between atoms: C_17  and  C_18 
ROOT
HETATM    1  N           1     -34.540  -2.157 -12.132  0.00  0.00    -0.343 N 
HETATM    2  C           1     -35.032  -1.372 -13.139  0.00  0.00     0.249 C 
HETATM    3  O           1     -35.062  -1.790 -14.272  0.00  0.00    -0.271 OA
HETATM    4  H           1     -34.516  -1.806 -11.183  0.00  0.00     0.163 HD
ENDROOT
BRANCH   2   5
HETATM    5  C           1     -35.538   0.017 -12.835  0.00  0.00     0.274 C 
BRANCH   5   6
HETATM    6  C           1     -37.060   0.004 -12.782  0.00  0.00     0.045 C 
BRANCH   6   7
HETATM    7 Se           1     -37.645  -0.240 -10.939  0.00  0.00     0.000 Se
HETATM    8  H           1     -37.899   1.192 -10.709  0.00  0.00     0.000 HD
ENDBRANCH   6   7
ENDBRANCH   5   6
BRANCH   5   9
HETATM    9  N           1     -35.084   0.961 -13.909  0.00  0.00    -0.067 N 
HETATM   10  H           1     -35.330   0.568 -14.845  0.00  0.00     0.275 HD
HETATM   11  H           1     -35.558   1.884 -13.783  0.00  0.00     0.275 HD
HETATM   12  H           1     -34.049   1.089 -13.845  0.00  0.00     0.275 HD
ENDBRANCH   5   9
ENDBRANCH   2   5
BRANCH   1  13
HETATM   13  C           1     -34.054  -3.491 -12.425  0.00  0.00     0.209 C 
BRANCH  13  14
HETATM   14  C           1     -32.720  -3.710 -11.724  0.00  0.00     0.200 C 
BRANCH  14  15
HETATM   15  O           1     -32.134  -4.895 -12.191  0.00  0.00    -0.398 OA
HETATM   16  H           1     -32.697  -5.231 -12.867  0.00  0.00     0.209 HD
ENDBRANCH  14  15
ENDBRANCH  13  14
BRANCH  13  17
HETATM   17  C           1     -35.054  -4.510 -11.935  0.00  0.00     0.198 C 
HETATM   18  O           1     -35.836  -4.221 -11.004  0.00  0.00    -0.646 OA
HETATM   19  O           1     -35.099  -5.644 -12.460  0.00  0.00    -0.646 OA
ENDBRANCH  13  17
ENDBRANCH   1  13
TORSDOF 8
ENDMDL
MODEL 9
REMARK VINA RESULT:      -4.6     13.312     14.417
REMARK  8 active torsions:
REMARK  status: ('A' for Active; 'I' for Inactive)
REMARK    1  A    between atoms: N_2  and  C_17 
REMARK       I    between atoms: N_2  and  C_3 
REMARK    2  A    between atoms: C_3  and  C_4 
REMARK    3  A    between atoms: C_4  and  C_5 
REMARK    4  A    between atoms: C_4  and  N_7 
REMARK    5  A    between atoms: C_5  and  Se_6 
REMARK    6  A    between atoms: O_15  and  C_16 
REMARK    7  A    between atoms: C_16  and  C_17 
REMARK    8  A    between atoms: C_17  and  C_18 
ROOT
HETATM    1  N           1     -22.720  -4.085  -9.412  0.00  0.00    -0.343 N 
HETATM    2  C           1     -21.779  -4.453  -8.489  0.00  0.00     0.249 C 
HETATM    3  O           1     -20.753  -4.980  -8.848  0.00  0.00    -0.271 OA
HETATM    4  H           1     -23.578  -3.643  -9.111  0.00  0.00     0.163 HD
ENDROOT
BRANCH   2   5
HETATM    5  C           1     -22.022  -4.198  -7.021  0.00  0.00     0.274 C 
BRANCH   5   6
HETATM    6  C           1     -21.040  -5.016  -6.193  0.00  0.00     0.045 C 
BRANCH   6   7
HETATM    7 Se           1     -22.008  -6.389  -5.206  0.00  0.00     0.000 Se
HETATM    8  H           1     -22.805  -5.429  -4.425  0.00  0.00     0.000 HD
ENDBRANCH   6   7
ENDBRANCH   5   6
BRANCH   5   9
HETATM    9  N           1     -23.425  -4.598  -6.671  0.00  0.00    -0.067 N 
HETATM   10  H           1     -23.412  -5.210  -5.824  0.00  0.00     0.275 HD
HETATM   11  H           1     -23.991  -3.742  -6.473  0.00  0.00     0.275 HD
HETATM   12  H           1     -23.849  -5.119  -7.471  0.00  0.00     0.275 HD
ENDBRANCH   5   9
ENDBRANCH   2   5
BRANCH   1  13
HETATM   13  C           1     -22.485  -4.330 -10.822  0.00  0.00     0.209 C 
BRANCH  13  14
HETATM   14  C           1     -23.775  -4.813 -11.474  0.00  0.00     0.200 C 
BRANCH  14  15
HETATM   15  O           1     -23.645  -4.752 -12.869  0.00  0.00    -0.398 OA
HETATM   16  H           1     -23.453  -5.625 -13.164  0.00  0.00     0.209 HD
ENDBRANCH  14  15
ENDBRANCH  13  14
BRANCH  13  17
HETATM   17  C           1     -22.033  -3.053 -11.486  0.00  0.00     0.198 C 
HETATM   18  O           1     -22.869  -2.301 -12.032  0.00  0.00    -0.646 OA
HETATM   19  O           1     -20.821  -2.746 -11.490  0.00  0.00    -0.646 OA
ENDBRANCH  13  17
ENDBRANCH   1  13
TORSDOF 8
ENDMDL
