MODEL 1
REMARK VINA RESULT:      -5.5      0.000      0.000
REMARK  9 active torsions:
REMARK  status: ('A' for Active; 'I' for Inactive)
REMARK    1  A    between atoms: C_1  and  C_2 
REMARK    2  A    between atoms: C_1  and  S_16 
REMARK    3  A    between atoms: C_2  and  C_3 
REMARK    4  A    between atoms: C_2  and  N_15 
REMARK       I    between atoms: C_3  and  N_18 
REMARK    5  A    between atoms: C_4  and  C_5 
REMARK    6  A    between atoms: C_4  and  C_7 
REMARK    7  A    between atoms: C_4  and  N_18 
REMARK    8  A    between atoms: C_5  and  C_8 
REMARK    9  A    between atoms: C_8  and  Se_9 
ROOT
HETATM    1  C           1     -21.694  -4.605  -7.611  0.00  0.00     0.249 C 
HETATM    2  H           1     -22.130  -5.828  -9.222  0.00  0.00     0.163 HD
HETATM    3  O           1     -21.731  -3.473  -7.188  0.00  0.00    -0.271 OA
HETATM    4  N           1     -22.160  -4.880  -8.868  0.00  0.00    -0.345 N 
ENDROOT
BRANCH   1   5
HETATM    5  C           1     -21.133  -5.713  -6.753  0.00  0.00     0.283 C 
BRANCH   5   6
HETATM    6  C           1     -20.752  -5.155  -5.388  0.00  0.00     0.113 C 
BRANCH   6   7
HETATM    7  S           1     -21.411  -6.235  -4.087  0.00  0.00    -0.180 SA
HETATM    8  H           1     -20.254  -6.870  -3.832  0.00  0.00     0.101 HD
ENDBRANCH   6   7
ENDBRANCH   5   6
BRANCH   5   9
HETATM    9  N           1     -19.917  -6.289  -7.415  0.00  0.00    -0.066 N 
HETATM   10  H           1     -19.624  -5.670  -8.204  0.00  0.00     0.275 HD
HETATM   11  H           1     -19.141  -6.359  -6.718  0.00  0.00     0.275 HD
HETATM   12  H           1     -20.140  -7.241  -7.785  0.00  0.00     0.275 HD
ENDBRANCH   5   9
ENDBRANCH   1   5
BRANCH   4  13
HETATM   13  C           1     -22.699  -3.815  -9.693  0.00  0.00     0.185 C 
BRANCH  13  14
HETATM   14  C           1     -22.229  -4.000 -11.130  0.00  0.00     0.036 C 
BRANCH  14  15
HETATM   15  C           1     -22.382  -2.688 -11.886  0.00  0.00     0.003 C 
BRANCH  15  16
HETATM   16 Se           1     -23.943  -2.787 -13.050  0.00  0.00     0.000 Se
HETATM   17  C           1     -22.922  -2.652 -14.705  0.00  0.00     0.000 C 
ENDBRANCH  15  16
ENDBRANCH  14  15
ENDBRANCH  13  14
BRANCH  13  18
HETATM   18  C           1     -24.206  -3.858  -9.646  0.00  0.00     0.196 C 
HETATM   19  O           1     -24.807  -4.940  -9.832  0.00  0.00    -0.646 OA
HETATM   20  O           1     -24.855  -2.815  -9.423  0.00  0.00    -0.646 OA
ENDBRANCH  13  18
ENDBRANCH   4  13
TORSDOF 9
ENDMDL
MODEL 2
REMARK VINA RESULT:      -4.8      2.234      7.074
REMARK  9 active torsions:
REMARK  status: ('A' for Active; 'I' for Inactive)
REMARK    1  A    between atoms: C_1  and  C_2 
REMARK    2  A    between atoms: C_1  and  S_16 
REMARK    3  A    between atoms: C_2  and  C_3 
REMARK    4  A    between atoms: C_2  and  N_15 
REMARK       I    between atoms: C_3  and  N_18 
REMARK    5  A    between atoms: C_4  and  C_5 
REMARK    6  A    between atoms: C_4  and  C_7 
REMARK    7  A    between atoms: C_4  and  N_18 
REMARK    8  A    between atoms: C_5  and  C_8 
REMARK    9  A    between atoms: C_8  and  Se_9 
ROOT
HETATM    1  C           1     -22.419  -4.188  -8.047  0.00  0.00     0.249 C 
HETATM    2  H           1     -22.694  -6.194  -7.617  0.00  0.00     0.163 HD
HETATM    3  O           1     -21.853  -3.173  -7.715  0.00  0.00    -0.271 OA
HETATM    4  N           1     -22.221  -5.343  -7.339  0.00  0.00    -0.345 N 
ENDROOT
BRANCH   1   5
HETATM    5  C           1     -23.341  -4.183  -9.241  0.00  0.00     0.283 C 
BRANCH   5   6
HETATM    6  C           1     -22.605  -3.617 -10.449  0.00  0.00     0.113 C 
BRANCH   6   7
HETATM    7  S           1     -23.805  -3.166 -11.734  0.00  0.00    -0.180 SA
HETATM    8  H           1     -24.192  -4.423 -12.012  0.00  0.00     0.101 HD
ENDBRANCH   6   7
ENDBRANCH   5   6
BRANCH   5   9
HETATM    9  N           1     -24.539  -3.331  -8.942  0.00  0.00    -0.066 N 
HETATM   10  H           1     -25.363  -3.944  -8.751  0.00  0.00     0.275 HD
HETATM   11  H           1     -24.344  -2.736  -8.105  0.00  0.00     0.275 HD
HETATM   12  H           1     -24.745  -2.718  -9.764  0.00  0.00     0.275 HD
ENDBRANCH   5   9
ENDBRANCH   1   5
BRANCH   4  13
HETATM   13  C           1     -21.335  -5.348  -6.191  0.00  0.00     0.185 C 
BRANCH  13  14
HETATM   14  C           1     -21.830  -6.368  -5.174  0.00  0.00     0.036 C 
BRANCH  14  15
HETATM   15  C           1     -21.269  -6.027  -3.800  0.00  0.00     0.003 C 
BRANCH  15  16
HETATM   16 Se           1     -21.307  -7.615  -2.669  0.00  0.00     0.000 Se
HETATM   17  C           1     -22.282  -6.757  -1.216  0.00  0.00     0.000 C 
ENDBRANCH  15  16
ENDBRANCH  14  15
ENDBRANCH  13  14
BRANCH  13  18
HETATM   18  C           1     -19.941  -5.717  -6.636  0.00  0.00     0.196 C 
HETATM   19  O           1     -19.093  -4.821  -6.841  0.00  0.00    -0.646 OA
HETATM   20  O           1     -19.633  -6.916  -6.799  0.00  0.00    -0.646 OA
ENDBRANCH  13  18
ENDBRANCH   4  13
TORSDOF 9
ENDMDL
MODEL 3
REMARK VINA RESULT:      -4.7      3.445      4.794
REMARK  9 active torsions:
REMARK  status: ('A' for Active; 'I' for Inactive)
REMARK    1  A    between atoms: C_1  and  C_2 
REMARK    2  A    between atoms: C_1  and  S_16 
REMARK    3  A    between atoms: C_2  and  C_3 
REMARK    4  A    between atoms: C_2  and  N_15 
REMARK       I    between atoms: C_3  and  N_18 
REMARK    5  A    between atoms: C_4  and  C_5 
REMARK    6  A    between atoms: C_4  and  C_7 
REMARK    7  A    between atoms: C_4  and  N_18 
REMARK    8  A    between atoms: C_5  and  C_8 
REMARK    9  A    between atoms: C_8  and  Se_9 
ROOT
HETATM    1  C           1     -21.513  -6.567  -4.275  0.00  0.00     0.249 C 
HETATM    2  H           1     -20.618  -4.720  -4.543  0.00  0.00     0.163 HD
HETATM    3  O           1     -22.056  -7.495  -4.829  0.00  0.00    -0.271 OA
HETATM    4  N           1     -21.072  -5.497  -5.007  0.00  0.00    -0.345 N 
ENDROOT
BRANCH   1   5
HETATM    5  C           1     -21.323  -6.589  -2.778  0.00  0.00     0.283 C 
BRANCH   5   6
HETATM    6  C           1     -21.380  -8.028  -2.280  0.00  0.00     0.113 C 
BRANCH   6   7
HETATM    7  S           1     -22.013  -8.055  -0.580  0.00  0.00    -0.180 SA
HETATM    8  H           1     -20.876  -8.495  -0.013  0.00  0.00     0.101 HD
ENDBRANCH   6   7
ENDBRANCH   5   6
BRANCH   5   9
HETATM    9  N           1     -22.411  -5.791  -2.126  0.00  0.00    -0.066 N 
HETATM   10  H           1     -23.274  -5.830  -2.715  0.00  0.00     0.275 HD
HETATM   11  H           1     -22.616  -6.188  -1.180  0.00  0.00     0.275 HD
HETATM   12  H           1     -22.103  -4.797  -2.026  0.00  0.00     0.275 HD
ENDBRANCH   5   9
ENDBRANCH   1   5
BRANCH   4  13
HETATM   13  C           1     -21.255  -5.476  -6.445  0.00  0.00     0.185 C 
BRANCH  13  14
HETATM   14  C           1     -21.767  -4.106  -6.871  0.00  0.00     0.036 C 
BRANCH  14  15
HETATM   15  C           1     -22.947  -4.277  -7.818  0.00  0.00     0.003 C 
BRANCH  15  16
HETATM   16 Se           1     -22.387  -3.854  -9.637  0.00  0.00     0.000 Se
HETATM   17  C           1     -23.760  -4.944 -10.488  0.00  0.00     0.000 C 
ENDBRANCH  15  16
ENDBRANCH  14  15
ENDBRANCH  13  14
BRANCH  13  18
HETATM   18  C           1     -19.936  -5.754  -7.123  0.00  0.00     0.196 C 
HETATM   19  O           1     -19.366  -4.852  -7.775  0.00  0.00    -0.646 OA
HETATM   20  O           1     -19.413  -6.884  -7.033  0.00  0.00    -0.646 OA
ENDBRANCH  13  18
ENDBRANCH   4  13
TORSDOF 9
ENDMDL
MODEL 4
REMARK VINA RESULT:      -4.6      9.311     11.568
REMARK  9 active torsions:
REMARK  status: ('A' for Active; 'I' for Inactive)
REMARK    1  A    between atoms: C_1  and  C_2 
REMARK    2  A    between atoms: C_1  and  S_16 
REMARK    3  A    between atoms: C_2  and  C_3 
REMARK    4  A    between atoms: C_2  and  N_15 
REMARK       I    between atoms: C_3  and  N_18 
REMARK    5  A    between atoms: C_4  and  C_5 
REMARK    6  A    between atoms: C_4  and  C_7 
REMARK    7  A    between atoms: C_4  and  N_18 
REMARK    8  A    between atoms: C_5  and  C_8 
REMARK    9  A    between atoms: C_8  and  Se_9 
ROOT
HETATM    1  C           1     -27.056  -6.151 -19.298  0.00  0.00     0.249 C 
HETATM    2  H           1     -25.572  -7.230 -18.341  0.00  0.00     0.163 HD
HETATM    3  O           1     -28.020  -5.437 -19.143  0.00  0.00    -0.271 OA
HETATM    4  N           1     -26.380  -6.633 -18.210  0.00  0.00    -0.345 N 
ENDROOT
BRANCH   1   5
HETATM    5  C           1     -26.598  -6.507 -20.692  0.00  0.00     0.283 C 
BRANCH   5   6
HETATM    6  C           1     -26.157  -7.965 -20.724  0.00  0.00     0.113 C 
BRANCH   6   7
HETATM    7  S           1     -24.430  -8.063 -21.274  0.00  0.00    -0.180 SA
HETATM    8  H           1     -24.467  -9.361 -21.622  0.00  0.00     0.101 HD
ENDBRANCH   6   7
ENDBRANCH   5   6
BRANCH   5   9
HETATM    9  N           1     -25.447  -5.628 -21.079  0.00  0.00    -0.066 N 
HETATM   10  H           1     -25.672  -5.131 -21.970  0.00  0.00     0.275 HD
HETATM   11  H           1     -25.274  -4.927 -20.323  0.00  0.00     0.275 HD
HETATM   12  H           1     -24.591  -6.213 -21.213  0.00  0.00     0.275 HD
ENDBRANCH   5   9
ENDBRANCH   1   5
BRANCH   4  13
HETATM   13  C           1     -26.820  -6.290 -16.872  0.00  0.00     0.185 C 
BRANCH  13  14
HETATM   14  C           1     -27.966  -7.207 -16.464  0.00  0.00     0.036 C 
BRANCH  14  15
HETATM   15  C           1     -29.146  -6.367 -15.997  0.00  0.00     0.003 C 
BRANCH  15  16
HETATM   16 Se           1     -30.638  -6.596 -17.232  0.00  0.00     0.000 Se
HETATM   17  C           1     -31.460  -4.879 -16.816  0.00  0.00     0.000 C 
ENDBRANCH  15  16
ENDBRANCH  14  15
ENDBRANCH  13  14
BRANCH  13  18
HETATM   18  C           1     -25.672  -6.461 -15.907  0.00  0.00     0.196 C 
HETATM   19  O           1     -25.022  -5.463 -15.526  0.00  0.00    -0.646 OA
HETATM   20  O           1     -25.369  -7.599 -15.490  0.00  0.00    -0.646 OA
ENDBRANCH  13  18
ENDBRANCH   4  13
TORSDOF 9
ENDMDL
MODEL 5
REMARK VINA RESULT:      -4.6      3.488      7.603
REMARK  9 active torsions:
REMARK  status: ('A' for Active; 'I' for Inactive)
REMARK    1  A    between atoms: C_1  and  C_2 
REMARK    2  A    between atoms: C_1  and  S_16 
REMARK    3  A    between atoms: C_2  and  C_3 
REMARK    4  A    between atoms: C_2  and  N_15 
REMARK       I    between atoms: C_3  and  N_18 
REMARK    5  A    between atoms: C_4  and  C_5 
REMARK    6  A    between atoms: C_4  and  C_7 
REMARK    7  A    between atoms: C_4  and  N_18 
REMARK    8  A    between atoms: C_5  and  C_8 
REMARK    9  A    between atoms: C_8  and  Se_9 
ROOT
HETATM    1  C           1     -21.000  -5.251  -6.897  0.00  0.00     0.249 C 
HETATM    2  H           1     -21.523  -7.234  -7.174  0.00  0.00     0.163 HD
HETATM    3  O           1     -20.534  -4.448  -6.123  0.00  0.00    -0.271 OA
HETATM    4  N           1     -21.133  -6.561  -6.525  0.00  0.00    -0.345 N 
ENDROOT
BRANCH   1   5
HETATM    5  C           1     -21.435  -4.808  -8.273  0.00  0.00     0.283 C 
BRANCH   5   6
HETATM    6  C           1     -20.210  -4.418  -9.092  0.00  0.00     0.113 C 
BRANCH   6   7
HETATM    7  S           1     -20.687  -4.208 -10.830  0.00  0.00    -0.180 SA
HETATM    8  H           1     -21.632  -5.164 -10.833  0.00  0.00     0.101 HD
ENDBRANCH   6   7
ENDBRANCH   5   6
BRANCH   5   9
HETATM    9  N           1     -22.350  -3.626  -8.150  0.00  0.00    -0.066 N 
HETATM   10  H           1     -23.343  -3.948  -8.204  0.00  0.00     0.275 HD
HETATM   11  H           1     -22.186  -3.152  -7.233  0.00  0.00     0.275 HD
HETATM   12  H           1     -22.159  -2.955  -8.928  0.00  0.00     0.275 HD
ENDBRANCH   5   9
ENDBRANCH   1   5
BRANCH   4  13
HETATM   13  C           1     -20.715  -6.987  -5.203  0.00  0.00     0.185 C 
BRANCH  13  14
HETATM   14  C           1     -21.900  -6.911  -4.249  0.00  0.00     0.036 C 
BRANCH  14  15
HETATM   15  C           1     -21.441  -6.335  -2.916  0.00  0.00     0.003 C 
BRANCH  15  16
HETATM   16 Se           1     -21.071  -7.789  -1.671  0.00  0.00     0.000 Se
HETATM   17  C           1     -22.514  -7.325  -0.446  0.00  0.00     0.000 C 
ENDBRANCH  15  16
ENDBRANCH  14  15
ENDBRANCH  13  14
BRANCH  13  18
HETATM   18  C           1     -20.212  -8.408  -5.270  0.00  0.00     0.196 C 
HETATM   19  O           1     -19.100  -8.701  -4.777  0.00  0.00    -0.646 OA
HETATM   20  O           1     -20.905  -9.292  -5.816  0.00  0.00    -0.646 OA
ENDBRANCH  13  18
ENDBRANCH   4  13
TORSDOF 9
ENDMDL
MODEL 6
REMARK VINA RESULT:      -4.6      2.474      3.064
REMARK  9 active torsions:
REMARK  status: ('A' for Active; 'I' for Inactive)
REMARK    1  A    between atoms: C_1  and  C_2 
REMARK    2  A    between atoms: C_1  and  S_16 
REMARK    3  A    between atoms: C_2  and  C_3 
REMARK    4  A    between atoms: C_2  and  N_15 
REMARK       I    between atoms: C_3  and  N_18 
REMARK    5  A    between atoms: C_4  and  C_5 
REMARK    6  A    between atoms: C_4  and  C_7 
REMARK    7  A    between atoms: C_4  and  N_18 
REMARK    8  A    between atoms: C_5  and  C_8 
REMARK    9  A    between atoms: C_8  and  Se_9 
ROOT
HETATM    1  C           1     -21.265  -5.984  -6.456  0.00  0.00     0.249 C 
HETATM    2  H           1     -22.255  -4.173  -6.619  0.00  0.00     0.163 HD
HETATM    3  O           1     -20.717  -6.872  -7.067  0.00  0.00    -0.271 OA
HETATM    4  N           1     -21.797  -4.917  -7.130  0.00  0.00    -0.345 N 
ENDROOT
BRANCH   1   5
HETATM    5  C           1     -21.363  -6.051  -4.952  0.00  0.00     0.283 C 
BRANCH   5   6
HETATM    6  C           1     -20.613  -7.278  -4.448  0.00  0.00     0.113 C 
BRANCH   6   7
HETATM    7  S           1     -21.257  -7.756  -2.820  0.00  0.00    -0.180 SA
HETATM    8  H           1     -22.240  -8.546  -3.284  0.00  0.00     0.101 HD
ENDBRANCH   6   7
ENDBRANCH   5   6
BRANCH   5   9
HETATM    9  N           1     -22.805  -6.147  -4.550  0.00  0.00    -0.066 N 
HETATM   10  H           1     -23.405  -5.748  -5.307  0.00  0.00     0.275 HD
HETATM   11  H           1     -23.058  -7.150  -4.395  0.00  0.00     0.275 HD
HETATM   12  H           1     -22.957  -5.610  -3.666  0.00  0.00     0.275 HD
ENDBRANCH   5   9
ENDBRANCH   1   5
BRANCH   4  13
HETATM   13  C           1     -21.702  -4.852  -8.576  0.00  0.00     0.185 C 
BRANCH  13  14
HETATM   14  C           1     -22.750  -3.883  -9.109  0.00  0.00     0.036 C 
BRANCH  14  15
HETATM   15  C           1     -23.268  -4.383 -10.450  0.00  0.00     0.003 C 
BRANCH  15  16
HETATM   16 Se           1     -22.581  -3.246 -11.878  0.00  0.00     0.000 Se
HETATM   17  C           1     -24.324  -2.937 -12.693  0.00  0.00     0.000 C 
ENDBRANCH  15  16
ENDBRANCH  14  15
ENDBRANCH  13  14
BRANCH  13  18
HETATM   18  C           1     -20.327  -4.373  -8.968  0.00  0.00     0.196 C 
HETATM   19  O           1     -19.809  -4.764 -10.037  0.00  0.00    -0.646 OA
HETATM   20  O           1     -19.703  -3.585  -8.225  0.00  0.00    -0.646 OA
ENDBRANCH  13  18
ENDBRANCH   4  13
TORSDOF 9
ENDMDL
MODEL 7
REMARK VINA RESULT:      -4.5     18.118     19.445
REMARK  9 active torsions:
REMARK  status: ('A' for Active; 'I' for Inactive)
REMARK    1  A    between atoms: C_1  and  C_2 
REMARK    2  A    between atoms: C_1  and  S_16 
REMARK    3  A    between atoms: C_2  and  C_3 
REMARK    4  A    between atoms: C_2  and  N_15 
REMARK       I    between atoms: C_3  and  N_18 
REMARK    5  A    between atoms: C_4  and  C_5 
REMARK    6  A    between atoms: C_4  and  C_7 
REMARK    7  A    between atoms: C_4  and  N_18 
REMARK    8  A    between atoms: C_5  and  C_8 
REMARK    9  A    between atoms: C_8  and  Se_9 
ROOT
HETATM    1  C           1     -11.836   4.363 -22.014  0.00  0.00     0.249 C 
HETATM    2  H           1     -11.750   6.410 -21.722  0.00  0.00     0.163 HD
HETATM    3  O           1     -11.316   3.303 -21.754  0.00  0.00    -0.271 OA
HETATM    4  N           1     -11.315   5.522 -21.505  0.00  0.00    -0.345 N 
ENDROOT
BRANCH   1   5
HETATM    5  C           1     -13.057   4.408 -22.899  0.00  0.00     0.283 C 
BRANCH   5   6
HETATM    6  C           1     -13.993   5.510 -22.418  0.00  0.00     0.113 C 
BRANCH   6   7
HETATM    7  S           1     -14.799   4.990 -20.878  0.00  0.00    -0.180 SA
HETATM    8  H           1     -15.158   6.224 -20.484  0.00  0.00     0.101 HD
ENDBRANCH   6   7
ENDBRANCH   5   6
BRANCH   5   9
HETATM    9  N           1     -13.766   3.088 -22.837  0.00  0.00    -0.066 N 
HETATM   10  H           1     -13.164   2.348 -23.265  0.00  0.00     0.275 HD
HETATM   11  H           1     -13.963   2.844 -21.840  0.00  0.00     0.275 HD
HETATM   12  H           1     -14.667   3.151 -23.364  0.00  0.00     0.275 HD
ENDBRANCH   5   9
ENDBRANCH   1   5
BRANCH   4  13
HETATM   13  C           1     -10.141   5.479 -20.654  0.00  0.00     0.185 C 
BRANCH  13  14
HETATM   14  C           1      -9.270   6.698 -20.930  0.00  0.00     0.036 C 
BRANCH  14  15
HETATM   15  C           1     -10.155   7.878 -21.308  0.00  0.00     0.003 C 
BRANCH  15  16
HETATM   16 Se           1     -10.283   9.105 -19.799  0.00  0.00     0.000 Se
HETATM   17  C           1     -12.203   8.873 -19.562  0.00  0.00     0.000 C 
ENDBRANCH  15  16
ENDBRANCH  14  15
ENDBRANCH  13  14
BRANCH  13  18
HETATM   18  C           1     -10.569   5.483 -19.208  0.00  0.00     0.196 C 
HETATM   19  O           1      -9.736   5.735 -18.310  0.00  0.00    -0.646 OA
HETATM   20  O           1     -11.756   5.235 -18.906  0.00  0.00    -0.646 OA
ENDBRANCH  13  18
ENDBRANCH   4  13
TORSDOF 9
ENDMDL
MODEL 8
REMARK VINA RESULT:      -4.3      3.906      7.733
REMARK  9 active torsions:
REMARK  status: ('A' for Active; 'I' for Inactive)
REMARK    1  A    between atoms: C_1  and  C_2 
REMARK    2  A    between atoms: C_1  and  S_16 
REMARK    3  A    between atoms: C_2  and  C_3 
REMARK    4  A    between atoms: C_2  and  N_15 
REMARK       I    between atoms: C_3  and  N_18 
REMARK    5  A    between atoms: C_4  and  C_5 
REMARK    6  A    between atoms: C_4  and  C_7 
REMARK    7  A    between atoms: C_4  and  N_18 
REMARK    8  A    between atoms: C_5  and  C_8 
REMARK    9  A    between atoms: C_8  and  Se_9 
ROOT
HETATM    1  C           1     -21.396  -5.634  -5.680  0.00  0.00     0.249 C 
HETATM    2  H           1     -19.783  -6.571  -4.784  0.00  0.00     0.163 HD
HETATM    3  O           1     -22.603  -5.581  -5.740  0.00  0.00    -0.271 OA
HETATM    4  N           1     -20.793  -6.526  -4.835  0.00  0.00    -0.345 N 
ENDROOT
BRANCH   1   5
HETATM    5  C           1     -20.557  -4.718  -6.535  0.00  0.00     0.283 C 
BRANCH   5   6
HETATM    6  C           1     -21.464  -3.750  -7.285  0.00  0.00     0.113 C 
BRANCH   6   7
HETATM    7  S           1     -21.613  -4.278  -9.015  0.00  0.00    -0.180 SA
HETATM    8  H           1     -20.507  -3.649  -9.450  0.00  0.00     0.101 HD
ENDBRANCH   6   7
ENDBRANCH   5   6
BRANCH   5   9
HETATM    9  N           1     -19.773  -5.533  -7.520  0.00  0.00    -0.066 N 
HETATM   10  H           1     -19.766  -5.050  -8.446  0.00  0.00     0.275 HD
HETATM   11  H           1     -18.792  -5.646  -7.177  0.00  0.00     0.275 HD
HETATM   12  H           1     -20.215  -6.475  -7.623  0.00  0.00     0.275 HD
ENDBRANCH   5   9
ENDBRANCH   1   5
BRANCH   4  13
HETATM   13  C           1     -21.600  -7.407  -4.013  0.00  0.00     0.185 C 
BRANCH  13  14
HETATM   14  C           1     -20.999  -8.807  -4.028  0.00  0.00     0.036 C 
BRANCH  14  15
HETATM   15  C           1     -19.641  -8.768  -4.716  0.00  0.00     0.003 C 
BRANCH  15  16
HETATM   16 Se           1     -18.279  -9.460  -3.505  0.00  0.00     0.000 Se
HETATM   17  C           1     -19.505 -10.613  -2.522  0.00  0.00     0.000 C 
ENDBRANCH  15  16
ENDBRANCH  14  15
ENDBRANCH  13  14
BRANCH  13  18
HETATM   18  C           1     -21.628  -6.887  -2.597  0.00  0.00     0.196 C 
HETATM   19  O           1     -20.894  -7.403  -1.726  0.00  0.00    -0.646 OA
HETATM   20  O           1     -22.384  -5.939  -2.293  0.00  0.00    -0.646 OA
ENDBRANCH  13  18
ENDBRANCH   4  13
TORSDOF 9
ENDMDL
MODEL 9
REMARK VINA RESULT:      -4.3     18.030     19.703
REMARK  9 active torsions:
REMARK  status: ('A' for Active; 'I' for Inactive)
REMARK    1  A    between atoms: C_1  and  C_2 
REMARK    2  A    between atoms: C_1  and  S_16 
REMARK    3  A    between atoms: C_2  and  C_3 
REMARK    4  A    between atoms: C_2  and  N_15 
REMARK       I    between atoms: C_3  and  N_18 
REMARK    5  A    between atoms: C_4  and  C_5 
REMARK    6  A    between atoms: C_4  and  C_7 
REMARK    7  A    between atoms: C_4  and  N_18 
REMARK    8  A    between atoms: C_5  and  C_8 
REMARK    9  A    between atoms: C_8  and  Se_9 
ROOT
HETATM    1  C           1     -12.169   6.631 -20.826  0.00  0.00     0.249 C 
HETATM    2  H           1     -12.689   7.168 -18.895  0.00  0.00     0.163 HD
HETATM    3  O           1     -11.735   7.029 -21.882  0.00  0.00    -0.271 OA
HETATM    4  N           1     -12.326   7.501 -19.780  0.00  0.00    -0.345 N 
ENDROOT
BRANCH   1   5
HETATM    5  C           1     -12.535   5.177 -20.660  0.00  0.00     0.283 C 
BRANCH   5   6
HETATM    6  C           1     -14.040   5.052 -20.453  0.00  0.00     0.113 C 
BRANCH   6   7
HETATM    7  S           1     -14.877   5.082 -22.062  0.00  0.00    -0.180 SA
HETATM    8  H           1     -14.082   6.012 -22.618  0.00  0.00     0.101 HD
ENDBRANCH   6   7
ENDBRANCH   5   6
BRANCH   5   9
HETATM    9  N           1     -11.818   4.614 -19.469  0.00  0.00    -0.066 N 
HETATM   10  H           1     -12.033   5.194 -18.627  0.00  0.00     0.275 HD
HETATM   11  H           1     -12.133   3.630 -19.305  0.00  0.00     0.275 HD
HETATM   12  H           1     -10.788   4.625 -19.645  0.00  0.00     0.275 HD
ENDBRANCH   5   9
ENDBRANCH   1   5
BRANCH   4  13
HETATM   13  C           1     -11.974   8.899 -19.939  0.00  0.00     0.185 C 
BRANCH  13  14
HETATM   14  C           1     -12.888   9.753 -19.070  0.00  0.00     0.036 C 
BRANCH  14  15
HETATM   15  C           1     -13.446  10.903 -19.898  0.00  0.00     0.003 C 
BRANCH  15  16
HETATM   16 Se           1     -15.023  11.634 -19.016  0.00  0.00     0.000 Se
HETATM   17  C           1     -14.801  10.584 -17.389  0.00  0.00     0.000 C 
ENDBRANCH  15  16
ENDBRANCH  14  15
ENDBRANCH  13  14
BRANCH  13  18
HETATM   18  C           1     -10.540   9.106 -19.518  0.00  0.00     0.196 C 
HETATM   19  O           1     -10.169   8.764 -18.373  0.00  0.00    -0.646 OA
HETATM   20  O           1      -9.723   9.618 -20.312  0.00  0.00    -0.646 OA
ENDBRANCH  13  18
ENDBRANCH   4  13
TORSDOF 9
ENDMDL
