MODEL 1
REMARK VINA RESULT:      -6.3      0.000      0.000
REMARK  8 active torsions:
REMARK  status: ('A' for Active; 'I' for Inactive)
REMARK    1  A    between atoms: C_4  and  S_11 
REMARK    2  A    between atoms: C_4  and  C_5 
REMARK    3  A    between atoms: C_5  and  C_13 
REMARK    4  A    between atoms: C_5  and  N_23 
REMARK    5  A    between atoms: N_8  and  C_22 
REMARK    6  A    between atoms: C_12  and  C_14 
REMARK    7  A    between atoms: C_14  and  C_22 
REMARK    8  A    between atoms: C_22  and  C_24 
REMARK       I    between atoms: N_23  and  C_24 
ROOT
HETATM    1  C           1     -34.125  -4.102 -12.493  0.00  0.00     0.280 C 
ENDROOT
BRANCH   1   2
HETATM    2  N           1     -33.666  -4.186 -13.919  0.00  0.00    -0.066 N 
HETATM    3  H           1     -32.988  -3.415 -14.113  0.00  0.00     0.275 HD
HETATM    4  H           1     -33.200  -5.108 -14.080  0.00  0.00     0.275 HD
HETATM    5  H           1     -34.490  -4.095 -14.556  0.00  0.00     0.275 HD
ENDBRANCH   1   2
BRANCH   1   6
HETATM    6  C           1     -33.118  -4.806 -11.594  0.00  0.00     0.101 C 
BRANCH   6   7
HETATM    7  C           1     -33.795  -5.928 -10.869  0.00  0.00     0.028 A 
HETATM    8  N           1     -33.332  -7.218 -10.824  0.00  0.00    -0.355 N 
HETATM    9  C           1     -34.207  -7.874 -10.095  0.00  0.00     0.180 A 
ATOM     10  HN          1     -32.489  -7.589 -11.261  1.00  0.00     0.166 HD
HETATM   11  N           1     -35.215  -7.058  -9.669  0.00  0.00    -0.360 N 
HETATM   12  C           1     -34.964  -5.805 -10.157  0.00  0.00     0.114 A 
HETATM   13  H           1     -36.033  -7.340  -9.074  0.00  0.00     0.166 HD
ENDBRANCH   6   7
ENDBRANCH   1   6
BRANCH   1  14
HETATM   14  C           1     -34.236  -2.653 -12.086  0.00  0.00     0.249 C 
HETATM   15  O           1     -33.749  -2.278 -11.047  0.00  0.00    -0.271 OA
HETATM   16  N           1     -34.891  -1.763 -12.896  0.00  0.00    -0.344 N 
HETATM   17  H           1     -35.300  -2.077 -13.766  0.00  0.00     0.163 HD
BRANCH  16  18
HETATM   18  C           1     -34.998  -0.370 -12.504  0.00  0.00     0.194 C 
BRANCH  18  19
HETATM   19  C           1     -35.028   0.507 -13.749  0.00  0.00     0.106 C 
BRANCH  19  20
HETATM   20  S           1     -35.605  -0.471 -15.165  0.00  0.00    -0.180 SA
HETATM   21  H           1     -34.827  -1.541 -14.923  0.00  0.00     0.101 HD
ENDBRANCH  19  20
ENDBRANCH  18  19
BRANCH  18  22
HETATM   22  C           1     -36.269  -0.168 -11.716  0.00  0.00     0.197 C 
HETATM   23  O           1     -37.339  -0.681 -12.111  0.00  0.00    -0.646 OA
HETATM   24  O           1     -36.252   0.513 -10.668  0.00  0.00    -0.646 OA
ENDBRANCH  18  22
ENDBRANCH  16  18
ENDBRANCH   1  14
TORSDOF 8
ENDMDL
MODEL 2
REMARK VINA RESULT:      -6.0      2.197      2.614
REMARK  8 active torsions:
REMARK  status: ('A' for Active; 'I' for Inactive)
REMARK    1  A    between atoms: C_4  and  S_11 
REMARK    2  A    between atoms: C_4  and  C_5 
REMARK    3  A    between atoms: C_5  and  C_13 
REMARK    4  A    between atoms: C_5  and  N_23 
REMARK    5  A    between atoms: N_8  and  C_22 
REMARK    6  A    between atoms: C_12  and  C_14 
REMARK    7  A    between atoms: C_14  and  C_22 
REMARK    8  A    between atoms: C_22  and  C_24 
REMARK       I    between atoms: N_23  and  C_24 
ROOT
HETATM    1  C           1     -34.035  -2.800 -11.553  0.00  0.00     0.280 C 
ENDROOT
BRANCH   1   2
HETATM    2  N           1     -33.553  -1.694 -10.660  0.00  0.00    -0.066 N 
HETATM    3  H           1     -33.815  -0.772 -11.076  0.00  0.00     0.275 HD
HETATM    4  H           1     -33.997  -1.790  -9.719  0.00  0.00     0.275 HD
HETATM    5  H           1     -32.514  -1.752 -10.564  0.00  0.00     0.275 HD
ENDBRANCH   1   2
BRANCH   1   6
HETATM    6  C           1     -35.016  -3.678 -10.788  0.00  0.00     0.101 C 
BRANCH   6   7
HETATM    7  C           1     -34.499  -5.082 -10.742  0.00  0.00     0.028 A 
HETATM    8  N           1     -35.137  -6.128 -10.126  0.00  0.00    -0.355 N 
HETATM    9  C           1     -34.359  -7.169 -10.317  0.00  0.00     0.180 A 
ATOM     10  HN          1     -36.026  -6.103  -9.626  1.00  0.00     0.166 HD
HETATM   11  N           1     -33.245  -6.836 -11.033  0.00  0.00    -0.360 N 
HETATM   12  C           1     -33.321  -5.499 -11.313  0.00  0.00     0.114 A 
HETATM   13  H           1     -32.471  -7.487 -11.317  0.00  0.00     0.166 HD
ENDBRANCH   6   7
ENDBRANCH   1   6
BRANCH   1  14
HETATM   14  C           1     -34.723  -2.208 -12.759  0.00  0.00     0.249 C 
HETATM   15  O           1     -34.650  -2.764 -13.828  0.00  0.00    -0.271 OA
HETATM   16  N           1     -35.429  -1.041 -12.640  0.00  0.00    -0.344 N 
HETATM   17  H           1     -35.489  -0.575 -11.743  0.00  0.00     0.163 HD
BRANCH  16  18
HETATM   18  C           1     -36.089  -0.472 -13.799  0.00  0.00     0.194 C 
BRANCH  18  19
HETATM   19  C           1     -37.518  -0.090 -13.434  0.00  0.00     0.106 C 
BRANCH  19  20
HETATM   20  S           1     -37.721  -0.160 -11.632  0.00  0.00    -0.180 SA
HETATM   21  H           1     -37.818  -1.499 -11.554  0.00  0.00     0.101 HD
ENDBRANCH  19  20
ENDBRANCH  18  19
BRANCH  18  22
HETATM   22  C           1     -35.339   0.757 -14.250  0.00  0.00     0.197 C 
HETATM   23  O           1     -35.600   1.279 -15.356  0.00  0.00    -0.646 OA
HETATM   24  O           1     -34.457   1.256 -13.517  0.00  0.00    -0.646 OA
ENDBRANCH  18  22
ENDBRANCH  16  18
ENDBRANCH   1  14
TORSDOF 8
ENDMDL
MODEL 3
REMARK VINA RESULT:      -5.9      2.393      3.219
REMARK  8 active torsions:
REMARK  status: ('A' for Active; 'I' for Inactive)
REMARK    1  A    between atoms: C_4  and  S_11 
REMARK    2  A    between atoms: C_4  and  C_5 
REMARK    3  A    between atoms: C_5  and  C_13 
REMARK    4  A    between atoms: C_5  and  N_23 
REMARK    5  A    between atoms: N_8  and  C_22 
REMARK    6  A    between atoms: C_12  and  C_14 
REMARK    7  A    between atoms: C_14  and  C_22 
REMARK    8  A    between atoms: C_22  and  C_24 
REMARK       I    between atoms: N_23  and  C_24 
ROOT
HETATM    1  C           1     -34.526  -2.333 -11.929  0.00  0.00     0.280 C 
ENDROOT
BRANCH   1   2
HETATM    2  N           1     -33.858  -1.337 -11.027  0.00  0.00    -0.066 N 
HETATM    3  H           1     -33.142  -0.802 -11.569  0.00  0.00     0.275 HD
HETATM    4  H           1     -34.573  -0.677 -10.649  0.00  0.00     0.275 HD
HETATM    5  H           1     -33.393  -1.840 -10.237  0.00  0.00     0.275 HD
ENDBRANCH   1   2
BRANCH   1   6
HETATM    6  C           1     -35.310  -3.331 -11.088  0.00  0.00     0.101 C 
BRANCH   6   7
HETATM    7  C           1     -34.567  -4.629 -11.030  0.00  0.00     0.028 A 
HETATM    8  N           1     -35.039  -5.774 -10.440  0.00  0.00    -0.355 N 
HETATM    9  C           1     -34.092  -6.667 -10.609  0.00  0.00     0.180 A 
ATOM     10  HN          1     -35.936  -5.903  -9.972  1.00  0.00     0.166 HD
HETATM   11  N           1     -33.026  -6.144 -11.284  0.00  0.00    -0.360 N 
HETATM   12  C           1     -33.316  -4.837 -11.562  0.00  0.00     0.114 A 
HETATM   13  H           1     -32.145  -6.654 -11.544  0.00  0.00     0.166 HD
ENDBRANCH   6   7
ENDBRANCH   1   6
BRANCH   1  14
HETATM   14  C           1     -35.466  -1.613 -12.863  0.00  0.00     0.249 C 
HETATM   15  O           1     -36.604  -1.392 -12.523  0.00  0.00    -0.271 OA
HETATM   16  N           1     -35.030  -1.210 -14.098  0.00  0.00    -0.344 N 
HETATM   17  H           1     -34.077  -1.397 -14.382  0.00  0.00     0.163 HD
BRANCH  16  18
HETATM   18  C           1     -35.934  -0.519 -14.996  0.00  0.00     0.194 C 
BRANCH  18  19
HETATM   19  C           1     -35.614   0.971 -14.992  0.00  0.00     0.106 C 
BRANCH  19  20
HETATM   20  S           1     -34.448   1.335 -13.650  0.00  0.00    -0.180 SA
HETATM   21  H           1     -34.504   0.118 -13.081  0.00  0.00     0.101 HD
ENDBRANCH  19  20
ENDBRANCH  18  19
BRANCH  18  22
HETATM   22  C           1     -35.768  -1.064 -16.392  0.00  0.00     0.197 C 
HETATM   23  O           1     -36.603  -0.780 -17.279  0.00  0.00    -0.646 OA
HETATM   24  O           1     -34.795  -1.800 -16.664  0.00  0.00    -0.646 OA
ENDBRANCH  18  22
ENDBRANCH  16  18
ENDBRANCH   1  14
TORSDOF 8
ENDMDL
MODEL 4
REMARK VINA RESULT:      -5.8     12.675     13.970
REMARK  8 active torsions:
REMARK  status: ('A' for Active; 'I' for Inactive)
REMARK    1  A    between atoms: C_4  and  S_11 
REMARK    2  A    between atoms: C_4  and  C_5 
REMARK    3  A    between atoms: C_5  and  C_13 
REMARK    4  A    between atoms: C_5  and  N_23 
REMARK    5  A    between atoms: N_8  and  C_22 
REMARK    6  A    between atoms: C_12  and  C_14 
REMARK    7  A    between atoms: C_14  and  C_22 
REMARK    8  A    between atoms: C_22  and  C_24 
REMARK       I    between atoms: N_23  and  C_24 
ROOT
HETATM    1  C           1     -21.130  -5.649  -6.830  0.00  0.00     0.280 C 
ENDROOT
BRANCH   1   2
HETATM    2  N           1     -19.934  -6.211  -7.540  0.00  0.00    -0.066 N 
HETATM    3  H           1     -19.679  -5.589  -8.340  0.00  0.00     0.275 HD
HETATM    4  H           1     -19.130  -6.269  -6.874  0.00  0.00     0.275 HD
HETATM    5  H           1     -20.159  -7.167  -7.899  0.00  0.00     0.275 HD
ENDBRANCH   1   2
BRANCH   1   6
HETATM    6  C           1     -20.710  -5.136  -5.459  0.00  0.00     0.101 C 
BRANCH   6   7
HETATM    7  C           1     -21.114  -6.126  -4.410  0.00  0.00     0.028 A 
HETATM    8  N           1     -21.499  -5.798  -3.136  0.00  0.00    -0.355 N 
HETATM    9  C           1     -21.766  -6.943  -2.549  0.00  0.00     0.180 A 
ATOM     10  HN          1     -21.565  -4.865  -2.729  1.00  0.00     0.166 HD
HETATM   11  N           1     -21.568  -7.996  -3.396  0.00  0.00    -0.360 N 
HETATM   12  C           1     -21.150  -7.487  -4.594  0.00  0.00     0.114 A 
HETATM   13  H           1     -21.712  -9.012  -3.168  0.00  0.00     0.166 HD
ENDBRANCH   6   7
ENDBRANCH   1   6
BRANCH   1  14
HETATM   14  C           1     -21.706  -4.512  -7.638  0.00  0.00     0.249 C 
HETATM   15  O           1     -21.670  -3.385  -7.207  0.00  0.00    -0.271 OA
HETATM   16  N           1     -22.270  -4.760  -8.862  0.00  0.00    -0.344 N 
HETATM   17  H           1     -22.300  -5.705  -9.223  0.00  0.00     0.163 HD
BRANCH  16  18
HETATM   18  C           1     -22.824  -3.667  -9.638  0.00  0.00     0.194 C 
BRANCH  18  19
HETATM   19  C           1     -22.276  -3.725 -11.059  0.00  0.00     0.106 C 
BRANCH  19  20
HETATM   20  S           1     -20.477  -3.955 -11.004  0.00  0.00    -0.180 SA
HETATM   21  H           1     -20.364  -3.866  -9.667  0.00  0.00     0.101 HD
ENDBRANCH  19  20
ENDBRANCH  18  19
BRANCH  18  22
HETATM   22  C           1     -24.327  -3.790  -9.674  0.00  0.00     0.197 C 
HETATM   23  O           1     -25.042  -2.777  -9.507  0.00  0.00    -0.646 OA
HETATM   24  O           1     -24.859  -4.904  -9.872  0.00  0.00    -0.646 OA
ENDBRANCH  18  22
ENDBRANCH  16  18
ENDBRANCH   1  14
TORSDOF 8
ENDMDL
MODEL 5
REMARK VINA RESULT:      -5.7     12.217     14.181
REMARK  8 active torsions:
REMARK  status: ('A' for Active; 'I' for Inactive)
REMARK    1  A    between atoms: C_4  and  S_11 
REMARK    2  A    between atoms: C_4  and  C_5 
REMARK    3  A    between atoms: C_5  and  C_13 
REMARK    4  A    between atoms: C_5  and  N_23 
REMARK    5  A    between atoms: N_8  and  C_22 
REMARK    6  A    between atoms: C_12  and  C_14 
REMARK    7  A    between atoms: C_14  and  C_22 
REMARK    8  A    between atoms: C_22  and  C_24 
REMARK       I    between atoms: N_23  and  C_24 
ROOT
HETATM    1  C           1     -23.744  -4.402  -9.763  0.00  0.00     0.280 C 
ENDROOT
BRANCH   1   2
HETATM    2  N           1     -25.191  -4.770  -9.614  0.00  0.00    -0.066 N 
HETATM    3  H           1     -25.722  -3.950  -9.242  0.00  0.00     0.275 HD
HETATM    4  H           1     -25.578  -5.042 -10.545  0.00  0.00     0.275 HD
HETATM    5  H           1     -25.279  -5.573  -8.950  0.00  0.00     0.275 HD
ENDBRANCH   1   2
BRANCH   1   6
HETATM    6  C           1     -23.635  -2.974 -10.279  0.00  0.00     0.101 C 
BRANCH   6   7
HETATM    7  C           1     -23.250  -2.994 -11.726  0.00  0.00     0.028 A 
HETATM    8  N           1     -23.991  -2.439 -12.738  0.00  0.00    -0.355 N 
HETATM    9  C           1     -23.310  -2.673 -13.835  0.00  0.00     0.180 A 
ATOM     10  HN          1     -24.881  -1.948 -12.655  1.00  0.00     0.166 HD
HETATM   11  N           1     -22.158  -3.357 -13.572  0.00  0.00    -0.360 N 
HETATM   12  C           1     -22.105  -3.570 -12.222  0.00  0.00     0.114 A 
HETATM   13  H           1     -21.442  -3.664 -14.277  0.00  0.00     0.166 HD
ENDBRANCH   6   7
ENDBRANCH   1   6
BRANCH   1  14
HETATM   14  C           1     -23.058  -4.507  -8.422  0.00  0.00     0.249 C 
HETATM   15  O           1     -23.655  -4.213  -7.414  0.00  0.00    -0.271 OA
HETATM   16  N           1     -21.759  -4.935  -8.349  0.00  0.00    -0.344 N 
HETATM   17  H           1     -21.260  -5.180  -9.194  0.00  0.00     0.163 HD
BRANCH  16  18
HETATM   18  C           1     -21.101  -5.034  -7.061  0.00  0.00     0.194 C 
BRANCH  18  19
HETATM   19  C           1     -21.054  -6.493  -6.626  0.00  0.00     0.106 C 
BRANCH  19  20
HETATM   20  S           1     -21.738  -6.648  -4.953  0.00  0.00    -0.180 SA
HETATM   21  H           1     -21.565  -5.359  -4.610  0.00  0.00     0.101 HD
ENDBRANCH  19  20
ENDBRANCH  18  19
BRANCH  18  22
HETATM   22  C           1     -19.695  -4.498  -7.174  0.00  0.00     0.197 C 
HETATM   23  O           1     -19.314  -3.959  -8.236  0.00  0.00    -0.646 OA
HETATM   24  O           1     -18.910  -4.593  -6.205  0.00  0.00    -0.646 OA
ENDBRANCH  18  22
ENDBRANCH  16  18
ENDBRANCH   1  14
TORSDOF 8
ENDMDL
MODEL 6
REMARK VINA RESULT:      -5.7      3.079      6.482
REMARK  8 active torsions:
REMARK  status: ('A' for Active; 'I' for Inactive)
REMARK    1  A    between atoms: C_4  and  S_11 
REMARK    2  A    between atoms: C_4  and  C_5 
REMARK    3  A    between atoms: C_5  and  C_13 
REMARK    4  A    between atoms: C_5  and  N_23 
REMARK    5  A    between atoms: N_8  and  C_22 
REMARK    6  A    between atoms: C_12  and  C_14 
REMARK    7  A    between atoms: C_14  and  C_22 
REMARK    8  A    between atoms: C_22  and  C_24 
REMARK       I    between atoms: N_23  and  C_24 
ROOT
HETATM    1  C           1     -36.128  -0.302 -11.678  0.00  0.00     0.280 C 
ENDROOT
BRANCH   1   2
HETATM    2  N           1     -36.367   0.644 -10.539  0.00  0.00    -0.066 N 
HETATM    3  H           1     -37.117   0.262  -9.920  0.00  0.00     0.275 HD
HETATM    4  H           1     -35.486   0.756  -9.989  0.00  0.00     0.275 HD
HETATM    5  H           1     -36.665   1.573 -10.914  0.00  0.00     0.275 HD
ENDBRANCH   1   2
BRANCH   1   6
HETATM    6  C           1     -35.383   0.423 -12.791  0.00  0.00     0.101 C 
BRANCH   6   7
HETATM    7  C           1     -36.162   0.317 -14.065  0.00  0.00     0.028 A 
HETATM    8  N           1     -37.528   0.219 -14.138  0.00  0.00    -0.355 N 
HETATM    9  C           1     -37.802   0.149 -15.420  0.00  0.00     0.180 A 
ATOM     10  HN          1     -38.189   0.204 -13.362  1.00  0.00     0.166 HD
HETATM   11  N           1     -36.667   0.199 -16.178  0.00  0.00    -0.360 N 
HETATM   12  C           1     -35.606   0.308 -15.322  0.00  0.00     0.114 A 
HETATM   13  H           1     -36.618   0.161 -17.227  0.00  0.00     0.166 HD
ENDBRANCH   6   7
ENDBRANCH   1   6
BRANCH   1  14
HETATM   14  C           1     -35.302  -1.470 -11.197  0.00  0.00     0.249 C 
HETATM   15  O           1     -34.746  -1.416 -10.126  0.00  0.00    -0.271 OA
HETATM   16  N           1     -35.183  -2.591 -11.975  0.00  0.00    -0.344 N 
HETATM   17  H           1     -35.649  -2.635 -12.872  0.00  0.00     0.163 HD
BRANCH  16  18
HETATM   18  C           1     -34.389  -3.713 -11.512  0.00  0.00     0.194 C 
BRANCH  18  19
HETATM   19  C           1     -35.285  -4.932 -11.336  0.00  0.00     0.106 C 
BRANCH  19  20
HETATM   20  S           1     -34.360  -6.248 -10.498  0.00  0.00    -0.180 SA
HETATM   21  H           1     -33.324  -6.260 -11.356  0.00  0.00     0.101 HD
ENDBRANCH  19  20
ENDBRANCH  18  19
BRANCH  18  22
HETATM   22  C           1     -33.316  -4.020 -12.527  0.00  0.00     0.197 C 
HETATM   23  O           1     -32.169  -4.343 -12.147  0.00  0.00    -0.646 OA
HETATM   24  O           1     -33.573  -3.952 -13.749  0.00  0.00    -0.646 OA
ENDBRANCH  18  22
ENDBRANCH  16  18
ENDBRANCH   1  14
TORSDOF 8
ENDMDL
MODEL 7
REMARK VINA RESULT:      -5.6     11.118     12.732
REMARK  8 active torsions:
REMARK  status: ('A' for Active; 'I' for Inactive)
REMARK    1  A    between atoms: C_4  and  S_11 
REMARK    2  A    between atoms: C_4  and  C_5 
REMARK    3  A    between atoms: C_5  and  C_13 
REMARK    4  A    between atoms: C_5  and  N_23 
REMARK    5  A    between atoms: N_8  and  C_22 
REMARK    6  A    between atoms: C_12  and  C_14 
REMARK    7  A    between atoms: C_14  and  C_22 
REMARK    8  A    between atoms: C_22  and  C_24 
REMARK       I    between atoms: N_23  and  C_24 
ROOT
HETATM    1  C           1     -25.363  -6.805 -19.724  0.00  0.00     0.280 C 
ENDROOT
BRANCH   1   2
HETATM    2  N           1     -24.466  -7.376 -18.666  0.00  0.00    -0.066 N 
HETATM    3  H           1     -25.046  -7.743 -17.878  0.00  0.00     0.275 HD
HETATM    4  H           1     -23.899  -8.153 -19.073  0.00  0.00     0.275 HD
HETATM    5  H           1     -23.828  -6.627 -18.310  0.00  0.00     0.275 HD
ENDBRANCH   1   2
BRANCH   1   6
HETATM    6  C           1     -25.544  -7.826 -20.839  0.00  0.00     0.101 C 
BRANCH   6   7
HETATM    7  C           1     -24.221  -8.106 -21.480  0.00  0.00     0.028 A 
HETATM    8  N           1     -23.229  -8.870 -20.920  0.00  0.00    -0.355 N 
HETATM    9  C           1     -22.250  -8.864 -21.795  0.00  0.00     0.180 A 
ATOM     10  HN          1     -23.248  -9.343 -20.016  1.00  0.00     0.166 HD
HETATM   11  N           1     -22.572  -8.126 -22.899  0.00  0.00    -0.360 N 
HETATM   12  C           1     -23.834  -7.634 -22.711  0.00  0.00     0.114 A 
HETATM   13  H           1     -21.961  -7.967 -23.739  0.00  0.00     0.166 HD
ENDBRANCH   6   7
ENDBRANCH   1   6
BRANCH   1  14
HETATM   14  C           1     -26.706  -6.475 -19.120  0.00  0.00     0.249 C 
HETATM   15  O           1     -27.571  -5.981 -19.802  0.00  0.00    -0.271 OA
HETATM   16  N           1     -26.944  -6.736 -17.796  0.00  0.00    -0.344 N 
HETATM   17  H           1     -26.218  -7.150 -17.224  0.00  0.00     0.163 HD
BRANCH  16  18
HETATM   18  C           1     -28.234  -6.418 -17.215  0.00  0.00     0.194 C 
BRANCH  18  19
HETATM   19  C           1     -29.271  -7.424 -17.700  0.00  0.00     0.106 C 
BRANCH  19  20
HETATM   20  S           1     -30.931  -6.711 -17.530  0.00  0.00    -0.180 SA
HETATM   21  H           1     -31.598  -7.866 -17.703  0.00  0.00     0.101 HD
ENDBRANCH  19  20
ENDBRANCH  18  19
BRANCH  18  22
HETATM   22  C           1     -28.136  -6.483 -15.711  0.00  0.00     0.197 C 
HETATM   23  O           1     -28.675  -5.598 -15.011  0.00  0.00    -0.646 OA
HETATM   24  O           1     -27.517  -7.421 -15.165  0.00  0.00    -0.646 OA
ENDBRANCH  18  22
ENDBRANCH  16  18
ENDBRANCH   1  14
TORSDOF 8
ENDMDL
MODEL 8
REMARK VINA RESULT:      -5.6     12.117     13.767
REMARK  8 active torsions:
REMARK  status: ('A' for Active; 'I' for Inactive)
REMARK    1  A    between atoms: C_4  and  S_11 
REMARK    2  A    between atoms: C_4  and  C_5 
REMARK    3  A    between atoms: C_5  and  C_13 
REMARK    4  A    between atoms: C_5  and  N_23 
REMARK    5  A    between atoms: N_8  and  C_22 
REMARK    6  A    between atoms: C_12  and  C_14 
REMARK    7  A    between atoms: C_14  and  C_22 
REMARK    8  A    between atoms: C_22  and  C_24 
REMARK       I    between atoms: N_23  and  C_24 
ROOT
HETATM    1  C           1     -23.807  -4.317 -10.296  0.00  0.00     0.280 C 
ENDROOT
BRANCH   1   2
HETATM    2  N           1     -25.072  -4.480  -9.506  0.00  0.00    -0.066 N 
HETATM    3  H           1     -25.209  -3.645  -8.892  0.00  0.00     0.275 HD
HETATM    4  H           1     -25.881  -4.568 -10.161  0.00  0.00     0.275 HD
HETATM    5  H           1     -25.005  -5.340  -8.915  0.00  0.00     0.275 HD
ENDBRANCH   1   2
BRANCH   1   6
HETATM    6  C           1     -23.669  -2.866 -10.738  0.00  0.00     0.101 C 
BRANCH   6   7
HETATM    7  C           1     -23.365  -2.818 -12.203  0.00  0.00     0.028 A 
HETATM    8  N           1     -24.146  -2.191 -13.141  0.00  0.00    -0.355 N 
HETATM    9  C           1     -23.532  -2.382 -14.286  0.00  0.00     0.180 A 
ATOM     10  HN          1     -25.016  -1.684 -12.982  1.00  0.00     0.166 HD
HETATM   11  N           1     -22.386  -3.107 -14.124  0.00  0.00    -0.360 N 
HETATM   12  C           1     -22.265  -3.393 -12.793  0.00  0.00     0.114 A 
HETATM   13  H           1     -21.719  -3.392 -14.884  0.00  0.00     0.166 HD
ENDBRANCH   6   7
ENDBRANCH   1   6
BRANCH   1  14
HETATM   14  C           1     -22.625  -4.696  -9.437  0.00  0.00     0.249 C 
HETATM   15  O           1     -21.566  -4.964  -9.950  0.00  0.00    -0.271 OA
HETATM   16  N           1     -22.755  -4.737  -8.074  0.00  0.00    -0.344 N 
HETATM   17  H           1     -23.644  -4.513  -7.644  0.00  0.00     0.163 HD
BRANCH  16  18
HETATM   18  C           1     -21.620  -5.102  -7.248  0.00  0.00     0.194 C 
BRANCH  18  19
HETATM   19  C           1     -20.723  -3.887  -7.052  0.00  0.00     0.106 C 
BRANCH  19  20
HETATM   20  S           1     -19.009  -4.330  -7.448  0.00  0.00    -0.180 SA
HETATM   21  H           1     -19.167  -5.657  -7.294  0.00  0.00     0.101 HD
ENDBRANCH  19  20
ENDBRANCH  18  19
BRANCH  18  22
HETATM   22  C           1     -22.112  -5.587  -5.907  0.00  0.00     0.197 C 
HETATM   23  O           1     -23.339  -5.690  -5.689  0.00  0.00    -0.646 OA
HETATM   24  O           1     -21.292  -5.886  -5.011  0.00  0.00    -0.646 OA
ENDBRANCH  18  22
ENDBRANCH  16  18
ENDBRANCH   1  14
TORSDOF 8
ENDMDL
MODEL 9
REMARK VINA RESULT:      -5.6     13.453     15.402
REMARK  8 active torsions:
REMARK  status: ('A' for Active; 'I' for Inactive)
REMARK    1  A    between atoms: C_4  and  S_11 
REMARK    2  A    between atoms: C_4  and  C_5 
REMARK    3  A    between atoms: C_5  and  C_13 
REMARK    4  A    between atoms: C_5  and  N_23 
REMARK    5  A    between atoms: N_8  and  C_22 
REMARK    6  A    between atoms: C_12  and  C_14 
REMARK    7  A    between atoms: C_14  and  C_22 
REMARK    8  A    between atoms: C_22  and  C_24 
REMARK       I    between atoms: N_23  and  C_24 
ROOT
HETATM    1  C           1     -21.340  -4.701  -6.788  0.00  0.00     0.280 C 
ENDROOT
BRANCH   1   2
HETATM    2  N           1     -19.880  -4.561  -6.472  0.00  0.00    -0.066 N 
HETATM    3  H           1     -19.459  -5.509  -6.346  0.00  0.00     0.275 HD
HETATM    4  H           1     -19.400  -4.069  -7.259  0.00  0.00     0.275 HD
HETATM    5  H           1     -19.766  -4.009  -5.592  0.00  0.00     0.275 HD
ENDBRANCH   1   2
BRANCH   1   6
HETATM    6  C           1     -21.503  -5.248  -8.199  0.00  0.00     0.101 C 
BRANCH   6   7
HETATM    7  C           1     -22.552  -4.461  -8.922  0.00  0.00     0.028 A 
HETATM    8  N           1     -23.734  -4.042  -8.366  0.00  0.00    -0.355 N 
HETATM    9  C           1     -24.356  -3.393  -9.323  0.00  0.00     0.180 A 
ATOM     10  HN          1     -24.059  -4.199  -7.412  1.00  0.00     0.166 HD
HETATM   11  N           1     -23.623  -3.377 -10.474  0.00  0.00    -0.360 N 
HETATM   12  C           1     -22.462  -4.058 -10.232  0.00  0.00     0.114 A 
HETATM   13  H           1     -23.900  -2.923 -11.381  0.00  0.00     0.166 HD
ENDBRANCH   6   7
ENDBRANCH   1   6
BRANCH   1  14
HETATM   14  C           1     -21.978  -5.651  -5.803  0.00  0.00     0.249 C 
HETATM   15  O           1     -23.180  -5.689  -5.693  0.00  0.00    -0.271 OA
HETATM   16  N           1     -21.193  -6.468  -5.033  0.00  0.00    -0.344 N 
HETATM   17  H           1     -20.186  -6.434  -5.125  0.00  0.00     0.163 HD
BRANCH  16  18
HETATM   18  C           1     -21.807  -7.379  -4.087  0.00  0.00     0.194 C 
BRANCH  18  19
HETATM   19  C           1     -21.137  -8.744  -4.188  0.00  0.00     0.106 C 
BRANCH  19  20
HETATM   20  S           1     -19.544  -8.574  -5.041  0.00  0.00    -0.180 SA
HETATM   21  H           1     -20.060  -8.227  -6.234  0.00  0.00     0.101 HD
ENDBRANCH  19  20
ENDBRANCH  18  19
BRANCH  18  22
HETATM   22  C           1     -21.637  -6.839  -2.688  0.00  0.00     0.197 C 
HETATM   23  O           1     -22.358  -5.899  -2.289  0.00  0.00    -0.646 OA
HETATM   24  O           1     -20.775  -7.331  -1.928  0.00  0.00    -0.646 OA
ENDBRANCH  18  22
ENDBRANCH  16  18
ENDBRANCH   1  14
TORSDOF 8
ENDMDL
