MODEL 1
REMARK VINA RESULT:      -5.6      0.000      0.000
REMARK  8 active torsions:
REMARK  status: ('A' for Active; 'I' for Inactive)
REMARK    1  A    between atoms: N_1  and  C_6 
REMARK    2  A    between atoms: C_5  and  C_6 
REMARK    3  A    between atoms: C_5  and  O_12 
REMARK    4  A    between atoms: C_6  and  C_8 
REMARK    5  A    between atoms: O_7  and  C_14 
REMARK       I    between atoms: C_8  and  N_11 
REMARK    6  A    between atoms: N_11  and  C_17 
REMARK    7  A    between atoms: C_14  and  C_17 
REMARK    8  A    between atoms: C_17  and  C_18 
ROOT
HETATM    1  C           1     -35.435  -1.123 -12.890  0.00  0.00     0.251 C 
HETATM    2  N           1     -34.997  -0.515 -14.036  0.00  0.00    -0.343 N 
HETATM    3  H           1     -34.005  -0.395 -14.198  0.00  0.00     0.163 HD
HETATM    4  O           1     -36.619  -1.268 -12.698  0.00  0.00    -0.271 OA
ENDROOT
BRANCH   1   5
HETATM    5  C           1     -34.438  -1.613 -11.868  0.00  0.00     0.297 C 
BRANCH   5   6
HETATM    6  N           1     -35.059  -1.567 -10.504  0.00  0.00    -0.064 N 
HETATM    7  H           1     -35.673  -0.724 -10.429  0.00  0.00     0.275 HD
HETATM    8  H           1     -35.631  -2.428 -10.352  0.00  0.00     0.275 HD
HETATM    9  H           1     -34.306  -1.515  -9.780  0.00  0.00     0.275 HD
ENDBRANCH   5   6
BRANCH   5  10
HETATM   10  C           1     -34.039  -3.045 -12.195  0.00  0.00     0.206 C 
BRANCH  10  11
HETATM   11  O           1     -34.375  -3.333 -13.526  0.00  0.00    -0.398 OA
HETATM   12  H           1     -34.222  -4.254 -13.654  0.00  0.00     0.209 HD
ENDBRANCH  10  11
ENDBRANCH   5  10
ENDBRANCH   1   5
BRANCH   2  13
HETATM   13  C           1     -35.954  -0.044 -15.019  0.00  0.00     0.209 C 
BRANCH  13  14
HETATM   14  C           1     -35.588   1.370 -15.447  0.00  0.00     0.200 C 
BRANCH  14  15
HETATM   15  O           1     -36.671   1.950 -16.123  0.00  0.00    -0.398 OA
HETATM   16  H           1     -36.348   2.237 -16.960  0.00  0.00     0.209 HD
ENDBRANCH  14  15
ENDBRANCH  13  14
BRANCH  13  17
HETATM   17  C           1     -35.929  -0.957 -16.221  0.00  0.00     0.198 C 
HETATM   18  O           1     -35.161  -1.943 -16.240  0.00  0.00    -0.646 OA
HETATM   19  O           1     -36.676  -0.728 -17.195  0.00  0.00    -0.646 OA
ENDBRANCH  13  17
ENDBRANCH   2  13
TORSDOF 8
ENDMDL
MODEL 2
REMARK VINA RESULT:      -5.2      1.692      4.639
REMARK  8 active torsions:
REMARK  status: ('A' for Active; 'I' for Inactive)
REMARK    1  A    between atoms: N_1  and  C_6 
REMARK    2  A    between atoms: C_5  and  C_6 
REMARK    3  A    between atoms: C_5  and  O_12 
REMARK    4  A    between atoms: C_6  and  C_8 
REMARK    5  A    between atoms: O_7  and  C_14 
REMARK       I    between atoms: C_8  and  N_11 
REMARK    6  A    between atoms: N_11  and  C_17 
REMARK    7  A    between atoms: C_14  and  C_17 
REMARK    8  A    between atoms: C_17  and  C_18 
ROOT
HETATM    1  C           1     -35.536  -0.107 -14.205  0.00  0.00     0.251 C 
HETATM    2  N           1     -35.919  -1.041 -13.281  0.00  0.00    -0.343 N 
HETATM    3  H           1     -36.789  -1.544 -13.400  0.00  0.00     0.163 HD
HETATM    4  O           1     -34.496   0.493 -14.063  0.00  0.00    -0.271 OA
ENDROOT
BRANCH   1   5
HETATM    5  C           1     -36.411   0.174 -15.402  0.00  0.00     0.297 C 
BRANCH   5   6
HETATM    6  N           1     -36.171   1.576 -15.878  0.00  0.00    -0.064 N 
HETATM    7  H           1     -37.084   2.078 -15.955  0.00  0.00     0.275 HD
HETATM    8  H           1     -35.555   2.074 -15.197  0.00  0.00     0.275 HD
HETATM    9  H           1     -35.708   1.550 -16.815  0.00  0.00     0.275 HD
ENDBRANCH   5   6
BRANCH   5  10
HETATM   10  C           1     -36.073  -0.806 -16.518  0.00  0.00     0.206 C 
BRANCH  10  11
HETATM   11  O           1     -35.232  -1.811 -16.020  0.00  0.00    -0.398 OA
HETATM   12  H           1     -35.085  -1.620 -15.109  0.00  0.00     0.209 HD
ENDBRANCH  10  11
ENDBRANCH   5  10
ENDBRANCH   1   5
BRANCH   2  13
HETATM   13  C           1     -35.079  -1.311 -12.130  0.00  0.00     0.209 C 
BRANCH  13  14
HETATM   14  C           1     -35.953  -1.513 -10.899  0.00  0.00     0.200 C 
BRANCH  14  15
HETATM   15  O           1     -36.297  -2.867 -10.787  0.00  0.00    -0.398 OA
HETATM   16  H           1     -36.463  -3.032  -9.874  0.00  0.00     0.209 HD
ENDBRANCH  14  15
ENDBRANCH  13  14
BRANCH  13  17
HETATM   17  C           1     -34.268  -2.559 -12.383  0.00  0.00     0.198 C 
HETATM   18  O           1     -34.467  -3.234 -13.416  0.00  0.00    -0.646 OA
HETATM   19  O           1     -33.399  -2.917 -11.560  0.00  0.00    -0.646 OA
ENDBRANCH  13  17
ENDBRANCH   2  13
TORSDOF 8
ENDMDL
MODEL 3
REMARK VINA RESULT:      -5.0      1.712      4.976
REMARK  8 active torsions:
REMARK  status: ('A' for Active; 'I' for Inactive)
REMARK    1  A    between atoms: N_1  and  C_6 
REMARK    2  A    between atoms: C_5  and  C_6 
REMARK    3  A    between atoms: C_5  and  O_12 
REMARK    4  A    between atoms: C_6  and  C_8 
REMARK    5  A    between atoms: O_7  and  C_14 
REMARK       I    between atoms: C_8  and  N_11 
REMARK    6  A    between atoms: N_11  and  C_17 
REMARK    7  A    between atoms: C_14  and  C_17 
REMARK    8  A    between atoms: C_17  and  C_18 
ROOT
HETATM    1  C           1     -35.822  -0.850 -13.258  0.00  0.00     0.251 C 
HETATM    2  N           1     -34.705  -1.639 -13.189  0.00  0.00    -0.343 N 
HETATM    3  H           1     -33.859  -1.362 -13.670  0.00  0.00     0.163 HD
HETATM    4  O           1     -36.831  -1.180 -12.682  0.00  0.00    -0.271 OA
ENDROOT
BRANCH   1   5
HETATM    5  C           1     -35.790   0.434 -14.050  0.00  0.00     0.297 C 
BRANCH   5   6
HETATM    6  N           1     -34.397   0.680 -14.547  0.00  0.00    -0.064 N 
HETATM    7  H           1     -34.233   0.122 -15.416  0.00  0.00     0.275 HD
HETATM    8  H           1     -34.276   1.696 -14.758  0.00  0.00     0.275 HD
HETATM    9  H           1     -33.710   0.391 -13.814  0.00  0.00     0.275 HD
ENDBRANCH   5   6
BRANCH   5  10
HETATM   10  C           1     -36.739   0.321 -15.236  0.00  0.00     0.206 C 
BRANCH  10  11
HETATM   11  O           1     -36.787  -1.011 -15.672  0.00  0.00    -0.398 OA
HETATM   12  H           1     -36.746  -0.993 -16.613  0.00  0.00     0.209 HD
ENDBRANCH  10  11
ENDBRANCH   5  10
ENDBRANCH   1   5
BRANCH   2  13
HETATM   13  C           1     -34.734  -2.873 -12.428  0.00  0.00     0.209 C 
BRANCH  13  14
HETATM   14  C           1     -34.212  -4.014 -13.289  0.00  0.00     0.200 C 
BRANCH  14  15
HETATM   15  O           1     -34.946  -5.178 -13.021  0.00  0.00    -0.398 OA
HETATM   16  H           1     -35.819  -4.905 -12.798  0.00  0.00     0.209 HD
ENDBRANCH  14  15
ENDBRANCH  13  14
BRANCH  13  17
HETATM   17  C           1     -33.865  -2.727 -11.202  0.00  0.00     0.198 C 
HETATM   18  O           1     -33.581  -1.588 -10.771  0.00  0.00    -0.646 OA
HETATM   19  O           1     -33.430  -3.742 -10.620  0.00  0.00    -0.646 OA
ENDBRANCH  13  17
ENDBRANCH   2  13
TORSDOF 8
ENDMDL
MODEL 4
REMARK VINA RESULT:      -5.0     12.607     14.378
REMARK  8 active torsions:
REMARK  status: ('A' for Active; 'I' for Inactive)
REMARK    1  A    between atoms: N_1  and  C_6 
REMARK    2  A    between atoms: C_5  and  C_6 
REMARK    3  A    between atoms: C_5  and  O_12 
REMARK    4  A    between atoms: C_6  and  C_8 
REMARK    5  A    between atoms: O_7  and  C_14 
REMARK       I    between atoms: C_8  and  N_11 
REMARK    6  A    between atoms: N_11  and  C_17 
REMARK    7  A    between atoms: C_14  and  C_17 
REMARK    8  A    between atoms: C_17  and  C_18 
ROOT
HETATM    1  C           1     -21.557  -4.501  -9.067  0.00  0.00     0.251 C 
HETATM    2  N           1     -22.829  -4.347  -9.550  0.00  0.00    -0.343 N 
HETATM    3  H           1     -23.612  -4.747  -9.049  0.00  0.00     0.163 HD
HETATM    4  O           1     -20.622  -4.022  -9.664  0.00  0.00    -0.271 OA
ENDROOT
BRANCH   1   5
HETATM    5  C           1     -21.323  -5.267  -7.788  0.00  0.00     0.297 C 
BRANCH   5   6
HETATM    6  N           1     -20.009  -5.984  -7.869  0.00  0.00    -0.064 N 
HETATM    7  H           1     -20.010  -6.790  -7.204  0.00  0.00     0.275 HD
HETATM    8  H           1     -19.864  -6.337  -8.842  0.00  0.00     0.275 HD
HETATM    9  H           1     -19.237  -5.326  -7.617  0.00  0.00     0.275 HD
ENDBRANCH   5   6
BRANCH   5  10
HETATM   10  C           1     -21.301  -4.299  -6.613  0.00  0.00     0.206 C 
BRANCH  10  11
HETATM   11  O           1     -21.670  -3.020  -7.053  0.00  0.00    -0.398 OA
HETATM   12  H           1     -21.987  -2.551  -6.300  0.00  0.00     0.209 HD
ENDBRANCH  10  11
ENDBRANCH   5  10
ENDBRANCH   1   5
BRANCH   2  13
HETATM   13  C           1     -23.055  -3.611 -10.779  0.00  0.00     0.209 C 
BRANCH  13  14
HETATM   14  C           1     -22.639  -4.467 -11.967  0.00  0.00     0.200 C 
BRANCH  14  15
HETATM   15  O           1     -21.605  -3.828 -12.666  0.00  0.00    -0.398 OA
HETATM   16  H           1     -21.464  -4.320 -13.456  0.00  0.00     0.209 HD
ENDBRANCH  14  15
ENDBRANCH  13  14
BRANCH  13  17
HETATM   17  C           1     -24.519  -3.265 -10.894  0.00  0.00     0.198 C 
HETATM   18  O           1     -25.017  -3.023 -12.015  0.00  0.00    -0.646 OA
HETATM   19  O           1     -25.234  -3.219  -9.871  0.00  0.00    -0.646 OA
ENDBRANCH  13  17
ENDBRANCH   2  13
TORSDOF 8
ENDMDL
MODEL 5
REMARK VINA RESULT:      -4.9     12.787     15.070
REMARK  8 active torsions:
REMARK  status: ('A' for Active; 'I' for Inactive)
REMARK    1  A    between atoms: N_1  and  C_6 
REMARK    2  A    between atoms: C_5  and  C_6 
REMARK    3  A    between atoms: C_5  and  O_12 
REMARK    4  A    between atoms: C_6  and  C_8 
REMARK    5  A    between atoms: O_7  and  C_14 
REMARK       I    between atoms: C_8  and  N_11 
REMARK    6  A    between atoms: N_11  and  C_17 
REMARK    7  A    between atoms: C_14  and  C_17 
REMARK    8  A    between atoms: C_17  and  C_18 
ROOT
HETATM    1  C           1     -22.713  -4.066 -10.829  0.00  0.00     0.251 C 
HETATM    2  N           1     -21.680  -3.923  -9.941  0.00  0.00    -0.343 N 
HETATM    3  H           1     -20.996  -3.189 -10.074  0.00  0.00     0.163 HD
HETATM    4  O           1     -23.530  -4.941 -10.670  0.00  0.00    -0.271 OA
ENDROOT
BRANCH   1   5
HETATM    5  C           1     -22.830  -3.128 -12.006  0.00  0.00     0.297 C 
BRANCH   5   6
HETATM    6  N           1     -21.821  -3.509 -13.049  0.00  0.00    -0.064 N 
HETATM    7  H           1     -21.333  -4.385 -12.758  0.00  0.00     0.275 HD
HETATM    8  H           1     -22.307  -3.668 -13.961  0.00  0.00     0.275 HD
HETATM    9  H           1     -21.123  -2.739 -13.155  0.00  0.00     0.275 HD
ENDBRANCH   5   6
BRANCH   5  10
HETATM   10  C           1     -24.230  -3.227 -12.595  0.00  0.00     0.206 C 
BRANCH  10  11
HETATM   11  O           1     -24.225  -4.129 -13.668  0.00  0.00    -0.398 OA
HETATM   12  H           1     -24.957  -4.708 -13.542  0.00  0.00     0.209 HD
ENDBRANCH  10  11
ENDBRANCH   5  10
ENDBRANCH   1   5
BRANCH   2  13
HETATM   13  C           1     -21.567  -4.823  -8.810  0.00  0.00     0.209 C 
BRANCH  13  14
HETATM   14  C           1     -20.102  -5.172  -8.583  0.00  0.00     0.200 C 
BRANCH  14  15
HETATM   15  O           1     -20.001  -6.131  -7.565  0.00  0.00    -0.398 OA
HETATM   16  H           1     -20.625  -6.808  -7.764  0.00  0.00     0.209 HD
ENDBRANCH  14  15
ENDBRANCH  13  14
BRANCH  13  17
HETATM   17  C           1     -22.122  -4.152  -7.577  0.00  0.00     0.198 C 
HETATM   18  O           1     -21.418  -3.340  -6.938  0.00  0.00    -0.646 OA
HETATM   19  O           1     -23.284  -4.408  -7.195  0.00  0.00    -0.646 OA
ENDBRANCH  13  17
ENDBRANCH   2  13
TORSDOF 8
ENDMDL
MODEL 6
REMARK VINA RESULT:      -4.9      2.780      5.244
REMARK  8 active torsions:
REMARK  status: ('A' for Active; 'I' for Inactive)
REMARK    1  A    between atoms: N_1  and  C_6 
REMARK    2  A    between atoms: C_5  and  C_6 
REMARK    3  A    between atoms: C_5  and  O_12 
REMARK    4  A    between atoms: C_6  and  C_8 
REMARK    5  A    between atoms: O_7  and  C_14 
REMARK       I    between atoms: C_8  and  N_11 
REMARK    6  A    between atoms: N_11  and  C_17 
REMARK    7  A    between atoms: C_14  and  C_17 
REMARK    8  A    between atoms: C_17  and  C_18 
ROOT
HETATM    1  C           1     -35.085  -1.888 -10.995  0.00  0.00     0.251 C 
HETATM    2  N           1     -35.154  -3.242 -11.184  0.00  0.00    -0.343 N 
HETATM    3  H           1     -36.026  -3.669 -11.471  0.00  0.00     0.163 HD
HETATM    4  O           1     -34.044  -1.378 -10.654  0.00  0.00    -0.271 OA
ENDROOT
BRANCH   1   5
HETATM    5  C           1     -36.308  -1.032 -11.216  0.00  0.00     0.297 C 
BRANCH   5   6
HETATM    6  N           1     -36.248   0.165 -10.314  0.00  0.00    -0.064 N 
HETATM    7  H           1     -36.117   1.028 -10.889  0.00  0.00     0.275 HD
HETATM    8  H           1     -37.140   0.239  -9.773  0.00  0.00     0.275 HD
HETATM    9  H           1     -35.446   0.063  -9.652  0.00  0.00     0.275 HD
ENDBRANCH   5   6
BRANCH   5  10
HETATM   10  C           1     -36.351  -0.572 -12.666  0.00  0.00     0.206 C 
BRANCH  10  11
HETATM   11  O           1     -35.545  -1.412 -13.448  0.00  0.00    -0.398 OA
HETATM   12  H           1     -35.991  -1.533 -14.269  0.00  0.00     0.209 HD
ENDBRANCH  10  11
ENDBRANCH   5  10
ENDBRANCH   1   5
BRANCH   2  13
HETATM   13  C           1     -33.980  -4.065 -10.973  0.00  0.00     0.209 C 
BRANCH  13  14
HETATM   14  C           1     -34.409  -5.468 -10.566  0.00  0.00     0.200 C 
BRANCH  14  15
HETATM   15  O           1     -34.361  -6.315 -11.682  0.00  0.00    -0.398 OA
HETATM   16  H           1     -33.455  -6.527 -11.826  0.00  0.00     0.209 HD
ENDBRANCH  14  15
ENDBRANCH  13  14
BRANCH  13  17
HETATM   17  C           1     -33.178  -4.133 -12.250  0.00  0.00     0.198 C 
HETATM   18  O           1     -31.989  -4.517 -12.221  0.00  0.00    -0.646 OA
HETATM   19  O           1     -33.703  -3.807 -13.335  0.00  0.00    -0.646 OA
ENDBRANCH  13  17
ENDBRANCH   2  13
TORSDOF 8
ENDMDL
MODEL 7
REMARK VINA RESULT:      -4.8      2.282      4.940
REMARK  8 active torsions:
REMARK  status: ('A' for Active; 'I' for Inactive)
REMARK    1  A    between atoms: N_1  and  C_6 
REMARK    2  A    between atoms: C_5  and  C_6 
REMARK    3  A    between atoms: C_5  and  O_12 
REMARK    4  A    between atoms: C_6  and  C_8 
REMARK    5  A    between atoms: O_7  and  C_14 
REMARK       I    between atoms: C_8  and  N_11 
REMARK    6  A    between atoms: N_11  and  C_17 
REMARK    7  A    between atoms: C_14  and  C_17 
REMARK    8  A    between atoms: C_17  and  C_18 
ROOT
HETATM    1  C           1     -36.033   0.007 -13.924  0.00  0.00     0.251 C 
HETATM    2  N           1     -36.660  -0.348 -12.760  0.00  0.00    -0.343 N 
HETATM    3  H           1     -37.605  -0.708 -12.783  0.00  0.00     0.163 HD
HETATM    4  O           1     -34.904   0.437 -13.896  0.00  0.00    -0.271 OA
ENDROOT
BRANCH   1   5
HETATM    5  C           1     -36.753  -0.139 -15.243  0.00  0.00     0.297 C 
BRANCH   5   6
HETATM    6  N           1     -37.166   1.214 -15.739  0.00  0.00    -0.064 N 
HETATM    7  H           1     -36.691   1.411 -16.649  0.00  0.00     0.275 HD
HETATM    8  H           1     -38.201   1.234 -15.876  0.00  0.00     0.275 HD
HETATM    9  H           1     -36.892   1.940 -15.039  0.00  0.00     0.275 HD
ENDBRANCH   5   6
BRANCH   5  10
HETATM   10  C           1     -35.823  -0.790 -16.258  0.00  0.00     0.206 C 
BRANCH  10  11
HETATM   11  O           1     -36.433  -0.788 -17.520  0.00  0.00    -0.398 OA
HETATM   12  H           1     -35.748  -0.910 -18.156  0.00  0.00     0.209 HD
ENDBRANCH  10  11
ENDBRANCH   5  10
ENDBRANCH   1   5
BRANCH   2  13
HETATM   13  C           1     -35.969  -0.207 -11.492  0.00  0.00     0.209 C 
BRANCH  13  14
HETATM   14  C           1     -36.940   0.311 -10.440  0.00  0.00     0.200 C 
BRANCH  14  15
HETATM   15  O           1     -36.494  -0.067  -9.165  0.00  0.00    -0.398 OA
HETATM   16  H           1     -36.658   0.662  -8.592  0.00  0.00     0.209 HD
ENDBRANCH  14  15
ENDBRANCH  13  14
BRANCH  13  17
HETATM   17  C           1     -35.429  -1.549 -11.064  0.00  0.00     0.198 C 
HETATM   18  O           1     -34.242  -1.653 -10.685  0.00  0.00    -0.646 OA
HETATM   19  O           1     -36.167  -2.557 -11.088  0.00  0.00    -0.646 OA
ENDBRANCH  13  17
ENDBRANCH   2  13
TORSDOF 8
ENDMDL
MODEL 8
REMARK VINA RESULT:      -4.6     12.986     14.763
REMARK  8 active torsions:
REMARK  status: ('A' for Active; 'I' for Inactive)
REMARK    1  A    between atoms: N_1  and  C_6 
REMARK    2  A    between atoms: C_5  and  C_6 
REMARK    3  A    between atoms: C_5  and  O_12 
REMARK    4  A    between atoms: C_6  and  C_8 
REMARK    5  A    between atoms: O_7  and  C_14 
REMARK       I    between atoms: C_8  and  N_11 
REMARK    6  A    between atoms: N_11  and  C_17 
REMARK    7  A    between atoms: C_14  and  C_17 
REMARK    8  A    between atoms: C_17  and  C_18 
ROOT
HETATM    1  C           1     -21.567  -4.386  -7.615  0.00  0.00     0.251 C 
HETATM    2  N           1     -21.926  -4.819  -8.863  0.00  0.00    -0.343 N 
HETATM    3  H           1     -21.975  -5.810  -9.060  0.00  0.00     0.163 HD
HETATM    4  O           1     -21.510  -3.202  -7.379  0.00  0.00    -0.271 OA
ENDROOT
BRANCH   1   5
HETATM    5  C           1     -21.243  -5.387  -6.533  0.00  0.00     0.297 C 
BRANCH   5   6
HETATM    6  N           1     -20.303  -4.765  -5.543  0.00  0.00    -0.064 N 
HETATM    7  H           1     -19.370  -4.622  -5.991  0.00  0.00     0.275 HD
HETATM    8  H           1     -20.685  -3.844  -5.231  0.00  0.00     0.275 HD
HETATM    9  H           1     -20.200  -5.398  -4.717  0.00  0.00     0.275 HD
ENDBRANCH   5   6
BRANCH   5  10
HETATM   10  C           1     -22.525  -5.801  -5.824  0.00  0.00     0.206 C 
BRANCH  10  11
HETATM   11  O           1     -23.595  -5.033  -6.306  0.00  0.00    -0.398 OA
HETATM   12  H           1     -23.230  -4.387  -6.886  0.00  0.00     0.209 HD
ENDBRANCH  10  11
ENDBRANCH   5  10
ENDBRANCH   1   5
BRANCH   2  13
HETATM   13  C           1     -22.238  -3.858  -9.903  0.00  0.00     0.209 C 
BRANCH  13  14
HETATM   14  C           1     -21.376  -4.136 -11.127  0.00  0.00     0.200 C 
BRANCH  14  15
HETATM   15  O           1     -22.199  -4.431 -12.222  0.00  0.00    -0.398 OA
HETATM   16  H           1     -22.456  -5.332 -12.136  0.00  0.00     0.209 HD
ENDBRANCH  14  15
ENDBRANCH  13  14
BRANCH  13  17
HETATM   17  C           1     -23.695  -3.976 -10.275  0.00  0.00     0.198 C 
HETATM   18  O           1     -24.278  -5.078 -10.174  0.00  0.00    -0.646 OA
HETATM   19  O           1     -24.320  -2.975 -10.685  0.00  0.00    -0.646 OA
ENDBRANCH  13  17
ENDBRANCH   2  13
TORSDOF 8
ENDMDL
MODEL 9
REMARK VINA RESULT:      -4.6     24.641     25.414
REMARK  8 active torsions:
REMARK  status: ('A' for Active; 'I' for Inactive)
REMARK    1  A    between atoms: N_1  and  C_6 
REMARK    2  A    between atoms: C_5  and  C_6 
REMARK    3  A    between atoms: C_5  and  O_12 
REMARK    4  A    between atoms: C_6  and  C_8 
REMARK    5  A    between atoms: O_7  and  C_14 
REMARK       I    between atoms: C_8  and  N_11 
REMARK    6  A    between atoms: N_11  and  C_17 
REMARK    7  A    between atoms: C_14  and  C_17 
REMARK    8  A    between atoms: C_17  and  C_18 
ROOT
HETATM    1  C           1     -12.940   4.761 -20.829  0.00  0.00     0.251 C 
HETATM    2  N           1     -11.781   5.490 -20.863  0.00  0.00    -0.343 N 
HETATM    3  H           1     -11.301   5.636 -21.742  0.00  0.00     0.163 HD
HETATM    4  O           1     -13.514   4.588 -19.781  0.00  0.00    -0.271 OA
ENDROOT
BRANCH   1   5
HETATM    5  C           1     -13.501   4.177 -22.103  0.00  0.00     0.297 C 
BRANCH   5   6
HETATM    6  N           1     -13.705   2.701 -21.927  0.00  0.00    -0.064 N 
HETATM    7  H           1     -14.413   2.535 -21.177  0.00  0.00     0.275 HD
HETATM    8  H           1     -14.044   2.287 -22.824  0.00  0.00     0.275 HD
HETATM    9  H           1     -12.799   2.255 -21.656  0.00  0.00     0.275 HD
ENDBRANCH   5   6
BRANCH   5  10
HETATM   10  C           1     -14.835   4.839 -22.420  0.00  0.00     0.206 C 
BRANCH  10  11
HETATM   11  O           1     -14.819   6.165 -21.967  0.00  0.00    -0.398 OA
HETATM   12  H           1     -14.281   6.654 -22.568  0.00  0.00     0.209 HD
ENDBRANCH  10  11
ENDBRANCH   5  10
ENDBRANCH   1   5
BRANCH   2  13
HETATM   13  C           1     -11.242   6.052 -19.640  0.00  0.00     0.209 C 
BRANCH  13  14
HETATM   14  C           1      -9.981   5.295 -19.246  0.00  0.00     0.200 C 
BRANCH  14  15
HETATM   15  O           1      -9.534   5.746 -17.996  0.00  0.00    -0.398 OA
HETATM   16  H           1     -10.178   5.478 -17.364  0.00  0.00     0.209 HD
ENDBRANCH  14  15
ENDBRANCH  13  14
BRANCH  13  17
HETATM   17  C           1     -10.908   7.507 -19.861  0.00  0.00     0.198 C 
HETATM   18  O           1     -11.131   8.037 -20.972  0.00  0.00    -0.646 OA
HETATM   19  O           1     -10.409   8.182 -18.936  0.00  0.00    -0.646 OA
ENDBRANCH  13  17
ENDBRANCH   2  13
TORSDOF 8
ENDMDL
