MODEL 1
REMARK VINA RESULT:      -6.9      0.000      0.000
REMARK  7 active torsions:
REMARK  status: ('A' for Active; 'I' for Inactive)
REMARK    1  A    between atoms: N_1  and  C_11 
REMARK    2  A    between atoms: N_4  and  C_19 
REMARK       I    between atoms: N_4  and  C_5 
REMARK    3  A    between atoms: C_5  and  C_11 
REMARK    4  A    between atoms: C_11  and  C_21 
REMARK    5  A    between atoms: C_14  and  C_21 
REMARK    6  A    between atoms: C_15  and  C_19 
REMARK    7  A    between atoms: C_18  and  C_19 
ROOT
HETATM    1  C           1     -21.086  -5.693  -6.777  0.00  0.00     0.280 C 
ENDROOT
BRANCH   1   2
HETATM    2  N           1     -19.880  -6.294  -7.434  0.00  0.00    -0.066 N 
HETATM    3  H           1     -19.400  -6.935  -6.761  0.00  0.00     0.275 HD
HETATM    4  H           1     -20.176  -6.835  -8.278  0.00  0.00     0.275 HD
HETATM    5  H           1     -19.223  -5.533  -7.719  0.00  0.00     0.275 HD
ENDBRANCH   1   2
BRANCH   1   6
HETATM    6  C           1     -21.617  -4.571  -7.636  0.00  0.00     0.249 C 
HETATM    7  O           1     -21.588  -3.433  -7.230  0.00  0.00    -0.271 OA
HETATM    8  N           1     -22.133  -4.842  -8.875  0.00  0.00    -0.344 N 
HETATM    9  H           1     -22.158  -5.794  -9.215  0.00  0.00     0.163 HD
BRANCH   8  10
HETATM   10  C           1     -22.644  -3.764  -9.700  0.00  0.00     0.189 C 
BRANCH  10  11
HETATM   11  C           1     -22.094  -3.901 -11.113  0.00  0.00     0.010 C 
HETATM   12  C           1     -20.574  -3.990 -11.061  0.00  0.00     0.012 C 
HETATM   13  C           1     -22.502  -2.687 -11.936  0.00  0.00     0.012 C 
ENDBRANCH  10  11
BRANCH  10  14
HETATM   14  C           1     -24.151  -3.832  -9.738  0.00  0.00     0.197 C 
HETATM   15  O           1     -24.721  -4.905 -10.029  0.00  0.00    -0.646 OA
HETATM   16  O           1     -24.829  -2.814  -9.481  0.00  0.00    -0.646 OA
ENDBRANCH  10  14
ENDBRANCH   8  10
ENDBRANCH   1   6
BRANCH   1  17
HETATM   17  C           1     -20.700  -5.146  -5.409  0.00  0.00     0.101 C 
BRANCH  17  18
HETATM   18  C           1     -21.100  -6.124  -4.349  0.00  0.00     0.028 A 
HETATM   19  C           1     -21.132  -7.488  -4.516  0.00  0.00     0.114 A 
HETATM   20  N           1     -21.549  -7.983  -3.311  0.00  0.00    -0.360 N 
HETATM   21  H           1     -21.689  -8.996  -3.072  0.00  0.00     0.166 HD
HETATM   22  C           1     -21.751  -6.920  -2.479  0.00  0.00     0.180 A 
HETATM   23  N           1     -21.487  -5.782  -3.079  0.00  0.00    -0.355 N 
ATOM     24  HN          1     -21.557  -4.843  -2.685  1.00  0.00     0.166 HD
ENDBRANCH  17  18
ENDBRANCH   1  17
TORSDOF 7
ENDMDL
MODEL 2
REMARK VINA RESULT:      -6.9     13.079     14.702
REMARK  7 active torsions:
REMARK  status: ('A' for Active; 'I' for Inactive)
REMARK    1  A    between atoms: N_1  and  C_11 
REMARK    2  A    between atoms: N_4  and  C_19 
REMARK       I    between atoms: N_4  and  C_5 
REMARK    3  A    between atoms: C_5  and  C_11 
REMARK    4  A    between atoms: C_11  and  C_21 
REMARK    5  A    between atoms: C_14  and  C_21 
REMARK    6  A    between atoms: C_15  and  C_19 
REMARK    7  A    between atoms: C_18  and  C_19 
ROOT
HETATM    1  C           1     -34.527  -2.448 -11.894  0.00  0.00     0.280 C 
ENDROOT
BRANCH   1   2
HETATM    2  N           1     -33.868  -1.544 -10.896  0.00  0.00    -0.066 N 
HETATM    3  H           1     -33.338  -2.119 -10.201  0.00  0.00     0.275 HD
HETATM    4  H           1     -33.207  -0.902 -11.391  0.00  0.00     0.275 HD
HETATM    5  H           1     -34.596  -0.981 -10.401  0.00  0.00     0.275 HD
ENDBRANCH   1   2
BRANCH   1   6
HETATM    6  C           1     -35.371  -1.624 -12.836  0.00  0.00     0.249 C 
HETATM    7  O           1     -36.496  -1.313 -12.526  0.00  0.00    -0.271 OA
HETATM    8  N           1     -34.861  -1.230 -14.045  0.00  0.00    -0.344 N 
HETATM    9  H           1     -33.919  -1.490 -14.305  0.00  0.00     0.163 HD
BRANCH   8  10
HETATM   10  C           1     -35.671  -0.438 -14.950  0.00  0.00     0.189 C 
BRANCH  10  11
HETATM   11  C           1     -35.052   0.943 -15.111  0.00  0.00     0.010 C 
HETATM   12  C           1     -34.610   1.464 -13.750  0.00  0.00     0.012 C 
HETATM   13  C           1     -36.081   1.894 -15.708  0.00  0.00     0.012 C 
ENDBRANCH  10  11
BRANCH  10  14
HETATM   14  C           1     -35.734  -1.121 -16.295  0.00  0.00     0.197 C 
HETATM   15  O           1     -34.792  -1.852 -16.669  0.00  0.00    -0.646 OA
HETATM   16  O           1     -36.727  -0.953 -17.035  0.00  0.00    -0.646 OA
ENDBRANCH  10  14
ENDBRANCH   8  10
ENDBRANCH   1   6
BRANCH   1  17
HETATM   17  C           1     -35.413  -3.449 -11.164  0.00  0.00     0.101 C 
BRANCH  17  18
HETATM   18  C           1     -34.687  -4.752 -11.028  0.00  0.00     0.028 A 
HETATM   19  C           1     -33.443  -5.012 -11.552  0.00  0.00     0.114 A 
HETATM   20  N           1     -33.170  -6.303 -11.194  0.00  0.00    -0.360 N 
HETATM   21  H           1     -32.298  -6.840 -11.426  0.00  0.00     0.166 HD
HETATM   22  C           1     -34.239  -6.765 -10.481  0.00  0.00     0.180 A 
HETATM   23  N           1     -35.173  -5.849 -10.364  0.00  0.00    -0.355 N 
ATOM     24  HN          1     -36.068  -5.935  -9.883  1.00  0.00     0.166 HD
ENDBRANCH  17  18
ENDBRANCH   1  17
TORSDOF 7
ENDMDL
MODEL 3
REMARK VINA RESULT:      -6.5     12.334     14.221
REMARK  7 active torsions:
REMARK  status: ('A' for Active; 'I' for Inactive)
REMARK    1  A    between atoms: N_1  and  C_11 
REMARK    2  A    between atoms: N_4  and  C_19 
REMARK       I    between atoms: N_4  and  C_5 
REMARK    3  A    between atoms: C_5  and  C_11 
REMARK    4  A    between atoms: C_11  and  C_21 
REMARK    5  A    between atoms: C_14  and  C_21 
REMARK    6  A    between atoms: C_15  and  C_19 
REMARK    7  A    between atoms: C_18  and  C_19 
ROOT
HETATM    1  C           1     -32.866  -4.586 -16.612  0.00  0.00     0.280 C 
ENDROOT
BRANCH   1   2
HETATM    2  N           1     -32.949  -3.331 -17.427  0.00  0.00    -0.066 N 
HETATM    3  H           1     -32.644  -3.531 -18.407  0.00  0.00     0.275 HD
HETATM    4  H           1     -33.935  -2.984 -17.434  0.00  0.00     0.275 HD
HETATM    5  H           1     -32.325  -2.603 -17.011  0.00  0.00     0.275 HD
ENDBRANCH   1   2
BRANCH   1   6
HETATM    6  C           1     -33.799  -4.478 -15.430  0.00  0.00     0.249 C 
HETATM    7  O           1     -34.961  -4.788 -15.546  0.00  0.00    -0.271 OA
HETATM    8  N           1     -33.328  -4.028 -14.225  0.00  0.00    -0.344 N 
HETATM    9  H           1     -32.355  -3.768 -14.128  0.00  0.00     0.163 HD
BRANCH   8  10
HETATM   10  C           1     -34.224  -3.924 -13.090  0.00  0.00     0.189 C 
BRANCH  10  11
HETATM   11  C           1     -33.512  -4.412 -11.834  0.00  0.00     0.010 C 
HETATM   12  C           1     -32.047  -4.681 -12.153  0.00  0.00     0.012 C 
HETATM   13  C           1     -34.168  -5.695 -11.345  0.00  0.00     0.012 C 
ENDBRANCH  10  11
BRANCH  10  14
HETATM   14  C           1     -34.637  -2.484 -12.906  0.00  0.00     0.197 C 
HETATM   15  O           1     -35.108  -1.842 -13.868  0.00  0.00    -0.646 OA
HETATM   16  O           1     -34.507  -1.935 -11.791  0.00  0.00    -0.646 OA
ENDBRANCH  10  14
ENDBRANCH   8  10
ENDBRANCH   1   6
BRANCH   1  17
HETATM   17  C           1     -31.439  -4.777 -16.117  0.00  0.00     0.101 C 
BRANCH  17  18
HETATM   18  C           1     -30.810  -5.930 -16.837  0.00  0.00     0.028 A 
HETATM   19  C           1     -29.508  -6.339 -16.670  0.00  0.00     0.114 A 
HETATM   20  N           1     -29.362  -7.408 -17.510  0.00  0.00    -0.360 N 
HETATM   21  H           1     -28.490  -7.976 -17.645  0.00  0.00     0.166 HD
HETATM   22  C           1     -30.558  -7.599 -18.141  0.00  0.00     0.180 A 
HETATM   23  N           1     -31.453  -6.720 -17.754  0.00  0.00    -0.355 N 
ATOM     24  HN          1     -32.421  -6.641 -18.068  1.00  0.00     0.166 HD
ENDBRANCH  17  18
ENDBRANCH   1  17
TORSDOF 7
ENDMDL
MODEL 4
REMARK VINA RESULT:      -6.3      2.682      6.816
REMARK  7 active torsions:
REMARK  status: ('A' for Active; 'I' for Inactive)
REMARK    1  A    between atoms: N_1  and  C_11 
REMARK    2  A    between atoms: N_4  and  C_19 
REMARK       I    between atoms: N_4  and  C_5 
REMARK    3  A    between atoms: C_5  and  C_11 
REMARK    4  A    between atoms: C_11  and  C_21 
REMARK    5  A    between atoms: C_14  and  C_21 
REMARK    6  A    between atoms: C_15  and  C_19 
REMARK    7  A    between atoms: C_18  and  C_19 
ROOT
HETATM    1  C           1     -21.969  -4.442  -7.104  0.00  0.00     0.280 C 
ENDROOT
BRANCH   1   2
HETATM    2  N           1     -21.497  -3.020  -7.050  0.00  0.00    -0.066 N 
HETATM    3  H           1     -20.983  -2.857  -6.155  0.00  0.00     0.275 HD
HETATM    4  H           1     -20.858  -2.834  -7.856  0.00  0.00     0.275 HD
HETATM    5  H           1     -22.319  -2.377  -7.102  0.00  0.00     0.275 HD
ENDBRANCH   1   2
BRANCH   1   6
HETATM    6  C           1     -21.055  -5.306  -6.270  0.00  0.00     0.249 C 
HETATM    7  O           1     -19.857  -5.198  -6.378  0.00  0.00    -0.271 OA
HETATM    8  N           1     -21.584  -6.213  -5.391  0.00  0.00    -0.344 N 
HETATM    9  H           1     -22.587  -6.303  -5.301  0.00  0.00     0.163 HD
BRANCH   8  10
HETATM   10  C           1     -20.706  -7.043  -4.590  0.00  0.00     0.189 C 
BRANCH  10  11
HETATM   11  C           1     -21.411  -7.428  -3.296  0.00  0.00     0.010 C 
HETATM   12  C           1     -21.859  -6.168  -2.567  0.00  0.00     0.012 C 
HETATM   13  C           1     -20.453  -8.213  -2.411  0.00  0.00     0.012 C 
ENDBRANCH  10  11
BRANCH  10  14
HETATM   14  C           1     -20.353  -8.292  -5.361  0.00  0.00     0.197 C 
HETATM   15  O           1     -21.253  -9.083  -5.713  0.00  0.00    -0.646 OA
HETATM   16  O           1     -19.161  -8.534  -5.646  0.00  0.00    -0.646 OA
ENDBRANCH  10  14
ENDBRANCH   8  10
ENDBRANCH   1   6
BRANCH   1  17
HETATM   17  C           1     -21.951  -4.928  -8.548  0.00  0.00     0.101 C 
BRANCH  17  18
HETATM   18  C           1     -23.117  -4.347  -9.286  0.00  0.00     0.028 A 
HETATM   19  C           1     -23.275  -4.386 -10.651  0.00  0.00     0.114 A 
HETATM   20  N           1     -24.461  -3.747 -10.888  0.00  0.00    -0.360 N 
HETATM   21  H           1     -24.903  -3.588 -11.827  0.00  0.00     0.166 HD
HETATM   22  C           1     -24.963  -3.354  -9.681  0.00  0.00     0.180 A 
HETATM   23  N           1     -24.172  -3.703  -8.693  0.00  0.00    -0.355 N 
ATOM     24  HN          1     -24.311  -3.531  -7.697  1.00  0.00     0.166 HD
ENDBRANCH  17  18
ENDBRANCH   1  17
TORSDOF 7
ENDMDL
MODEL 5
REMARK VINA RESULT:      -5.8      4.596      8.135
REMARK  7 active torsions:
REMARK  status: ('A' for Active; 'I' for Inactive)
REMARK    1  A    between atoms: N_1  and  C_11 
REMARK    2  A    between atoms: N_4  and  C_19 
REMARK       I    between atoms: N_4  and  C_5 
REMARK    3  A    between atoms: C_5  and  C_11 
REMARK    4  A    between atoms: C_11  and  C_21 
REMARK    5  A    between atoms: C_14  and  C_21 
REMARK    6  A    between atoms: C_15  and  C_19 
REMARK    7  A    between atoms: C_18  and  C_19 
ROOT
HETATM    1  C           1     -20.341  -8.174  -4.734  0.00  0.00     0.280 C 
ENDROOT
BRANCH   1   2
HETATM    2  N           1     -20.750  -9.306  -5.628  0.00  0.00    -0.066 N 
HETATM    3  H           1     -21.367  -8.943  -6.391  0.00  0.00     0.275 HD
HETATM    4  H           1     -19.898  -9.743  -6.048  0.00  0.00     0.275 HD
HETATM    5  H           1     -21.270 -10.021  -5.070  0.00  0.00     0.275 HD
ENDBRANCH   1   2
BRANCH   1   6
HETATM    6  C           1     -20.393  -8.627  -3.295  0.00  0.00     0.249 C 
HETATM    7  O           1     -19.382  -8.979  -2.735  0.00  0.00    -0.271 OA
HETATM    8  N           1     -21.586  -8.641  -2.624  0.00  0.00    -0.344 N 
HETATM    9  H           1     -22.433  -8.346  -3.093  0.00  0.00     0.163 HD
BRANCH   8  10
HETATM   10  C           1     -21.636  -9.076  -1.242  0.00  0.00     0.189 C 
BRANCH  10  11
HETATM   11  C           1     -22.439  -8.074  -0.422  0.00  0.00     0.010 C 
HETATM   12  C           1     -22.321  -6.693  -1.051  0.00  0.00     0.012 C 
HETATM   13  C           1     -21.896  -8.032   1.000  0.00  0.00     0.012 C 
ENDBRANCH  10  11
BRANCH  10  14
HETATM   14  C           1     -22.296 -10.431  -1.166  0.00  0.00     0.197 C 
HETATM   15  O           1     -21.623 -11.465  -1.364  0.00  0.00    -0.646 OA
HETATM   16  O           1     -23.515 -10.519  -0.906  0.00  0.00    -0.646 OA
ENDBRANCH  10  14
ENDBRANCH   8  10
ENDBRANCH   1   6
BRANCH   1  17
HETATM   17  C           1     -21.293  -7.002  -4.932  0.00  0.00     0.101 C 
BRANCH  17  18
HETATM   18  C           1     -20.749  -6.089  -5.987  0.00  0.00     0.028 A 
HETATM   19  C           1     -20.134  -4.885  -5.737  0.00  0.00     0.114 A 
HETATM   20  N           1     -19.801  -4.395  -6.969  0.00  0.00    -0.360 N 
HETATM   21  H           1     -19.313  -3.486  -7.165  0.00  0.00     0.166 HD
HETATM   22  C           1     -20.221  -5.303  -7.899  0.00  0.00     0.180 A 
HETATM   23  N           1     -20.799  -6.338  -7.334  0.00  0.00    -0.355 N 
ATOM     24  HN          1     -21.200  -7.154  -7.798  1.00  0.00     0.166 HD
ENDBRANCH  17  18
ENDBRANCH   1  17
TORSDOF 7
ENDMDL
MODEL 6
REMARK VINA RESULT:      -5.7      4.490      8.684
REMARK  7 active torsions:
REMARK  status: ('A' for Active; 'I' for Inactive)
REMARK    1  A    between atoms: N_1  and  C_11 
REMARK    2  A    between atoms: N_4  and  C_19 
REMARK       I    between atoms: N_4  and  C_5 
REMARK    3  A    between atoms: C_5  and  C_11 
REMARK    4  A    between atoms: C_11  and  C_21 
REMARK    5  A    between atoms: C_14  and  C_21 
REMARK    6  A    between atoms: C_15  and  C_19 
REMARK    7  A    between atoms: C_18  and  C_19 
ROOT
HETATM    1  C           1     -20.871  -7.138  -3.352  0.00  0.00     0.280 C 
ENDROOT
BRANCH   1   2
HETATM    2  N           1     -20.100  -8.291  -3.920  0.00  0.00    -0.066 N 
HETATM    3  H           1     -19.176  -7.953  -4.275  0.00  0.00     0.275 HD
HETATM    4  H           1     -19.943  -9.007  -3.173  0.00  0.00     0.275 HD
HETATM    5  H           1     -20.640  -8.719  -4.705  0.00  0.00     0.275 HD
ENDBRANCH   1   2
BRANCH   1   6
HETATM    6  C           1     -21.639  -7.598  -2.137  0.00  0.00     0.249 C 
HETATM    7  O           1     -22.326  -6.815  -1.525  0.00  0.00    -0.271 OA
HETATM    8  N           1     -21.556  -8.901  -1.728  0.00  0.00    -0.344 N 
HETATM    9  H           1     -20.981  -9.557  -2.240  0.00  0.00     0.163 HD
BRANCH   8  10
HETATM   10  C           1     -22.294  -9.343  -0.560  0.00  0.00     0.189 C 
BRANCH  10  11
HETATM   11  C           1     -22.799 -10.763  -0.784  0.00  0.00     0.010 C 
HETATM   12  C           1     -22.955 -11.017  -2.277  0.00  0.00     0.012 C 
HETATM   13  C           1     -24.145 -10.937  -0.096  0.00  0.00     0.012 C 
ENDBRANCH  10  11
BRANCH  10  14
HETATM   14  C           1     -21.388  -9.317   0.646  0.00  0.00     0.197 C 
HETATM   15  O           1     -21.332  -8.295   1.363  0.00  0.00    -0.646 OA
HETATM   16  O           1     -20.692 -10.316   0.927  0.00  0.00    -0.646 OA
ENDBRANCH  10  14
ENDBRANCH   8  10
ENDBRANCH   1   6
BRANCH   1  17
HETATM   17  C           1     -21.845  -6.614  -4.400  0.00  0.00     0.101 C 
BRANCH  17  18
HETATM   18  C           1     -21.079  -6.016  -5.539  0.00  0.00     0.028 A 
HETATM   19  C           1     -20.350  -4.853  -5.466  0.00  0.00     0.114 A 
HETATM   20  N           1     -19.825  -4.684  -6.717  0.00  0.00    -0.360 N 
HETATM   21  H           1     -19.210  -3.893  -7.030  0.00  0.00     0.166 HD
HETATM   22  C           1     -20.250  -5.730  -7.484  0.00  0.00     0.180 A 
HETATM   23  N           1     -21.010  -6.553  -6.799  0.00  0.00    -0.355 N 
ATOM     24  HN          1     -21.455  -7.409  -7.132  1.00  0.00     0.166 HD
ENDBRANCH  17  18
ENDBRANCH   1  17
TORSDOF 7
ENDMDL
MODEL 7
REMARK VINA RESULT:      -5.6     11.104     13.480
REMARK  7 active torsions:
REMARK  status: ('A' for Active; 'I' for Inactive)
REMARK    1  A    between atoms: N_1  and  C_11 
REMARK    2  A    between atoms: N_4  and  C_19 
REMARK       I    between atoms: N_4  and  C_5 
REMARK    3  A    between atoms: C_5  and  C_11 
REMARK    4  A    between atoms: C_11  and  C_21 
REMARK    5  A    between atoms: C_14  and  C_21 
REMARK    6  A    between atoms: C_15  and  C_19 
REMARK    7  A    between atoms: C_18  and  C_19 
ROOT
HETATM    1  C           1     -30.703  -6.258 -17.600  0.00  0.00     0.280 C 
ENDROOT
BRANCH   1   2
HETATM    2  N           1     -31.792  -7.277 -17.450  0.00  0.00    -0.066 N 
HETATM    3  H           1     -32.574  -7.051 -18.107  0.00  0.00     0.275 HD
HETATM    4  H           1     -31.415  -8.226 -17.672  0.00  0.00     0.275 HD
HETATM    5  H           1     -32.149  -7.263 -16.467  0.00  0.00     0.275 HD
ENDBRANCH   1   2
BRANCH   1   6
HETATM    6  C           1     -29.361  -6.946 -17.541  0.00  0.00     0.249 C 
HETATM    7  O           1     -29.298  -8.131 -17.311  0.00  0.00    -0.271 OA
HETATM    8  N           1     -28.213  -6.228 -17.747  0.00  0.00    -0.344 N 
HETATM    9  H           1     -28.265  -5.237 -17.940  0.00  0.00     0.163 HD
BRANCH   8  10
HETATM   10  C           1     -26.924  -6.889 -17.691  0.00  0.00     0.189 C 
BRANCH  10  11
HETATM   11  C           1     -26.030  -6.357 -18.803  0.00  0.00     0.010 C 
HETATM   12  C           1     -26.727  -6.537 -20.145  0.00  0.00     0.012 C 
HETATM   13  C           1     -24.715  -7.125 -18.807  0.00  0.00     0.012 C 
ENDBRANCH  10  11
BRANCH  10  14
HETATM   14  C           1     -26.279  -6.618 -16.353  0.00  0.00     0.197 C 
HETATM   15  O           1     -25.558  -5.609 -16.201  0.00  0.00    -0.646 OA
HETATM   16  O           1     -26.465  -7.403 -15.399  0.00  0.00    -0.646 OA
ENDBRANCH  10  14
ENDBRANCH   8  10
ENDBRANCH   1   6
BRANCH   1  17
HETATM   17  C           1     -30.801  -5.239 -16.472  0.00  0.00     0.101 C 
BRANCH  17  18
HETATM   18  C           1     -32.051  -4.431 -16.636  0.00  0.00     0.028 A 
HETATM   19  C           1     -32.272  -3.532 -17.652  0.00  0.00     0.114 A 
HETATM   20  N           1     -33.521  -3.030 -17.415  0.00  0.00    -0.360 N 
HETATM   21  H           1     -34.022  -2.312 -17.995  0.00  0.00     0.166 HD
HETATM   22  C           1     -33.998  -3.632 -16.286  0.00  0.00     0.180 A 
HETATM   23  N           1     -33.130  -4.485 -15.792  0.00  0.00    -0.355 N 
ATOM     24  HN          1     -33.235  -5.064 -14.959  1.00  0.00     0.166 HD
ENDBRANCH  17  18
ENDBRANCH   1  17
TORSDOF 7
ENDMDL
MODEL 8
REMARK VINA RESULT:      -5.6      3.469      7.215
REMARK  7 active torsions:
REMARK  status: ('A' for Active; 'I' for Inactive)
REMARK    1  A    between atoms: N_1  and  C_11 
REMARK    2  A    between atoms: N_4  and  C_19 
REMARK       I    between atoms: N_4  and  C_5 
REMARK    3  A    between atoms: C_5  and  C_11 
REMARK    4  A    between atoms: C_11  and  C_21 
REMARK    5  A    between atoms: C_14  and  C_21 
REMARK    6  A    between atoms: C_15  and  C_19 
REMARK    7  A    between atoms: C_18  and  C_19 
ROOT
HETATM    1  C           1     -21.505  -6.224  -5.596  0.00  0.00     0.280 C 
ENDROOT
BRANCH   1   2
HETATM    2  N           1     -22.020  -6.041  -4.200  0.00  0.00    -0.066 N 
HETATM    3  H           1     -21.253  -6.239  -3.516  0.00  0.00     0.275 HD
HETATM    4  H           1     -22.348  -5.056  -4.076  0.00  0.00     0.275 HD
HETATM    5  H           1     -22.814  -6.698  -4.032  0.00  0.00     0.275 HD
ENDBRANCH   1   2
BRANCH   1   6
HETATM    6  C           1     -20.429  -7.283  -5.599  0.00  0.00     0.249 C 
HETATM    7  O           1     -19.568  -7.268  -6.447  0.00  0.00    -0.271 OA
HETATM    8  N           1     -20.428  -8.261  -4.640  0.00  0.00    -0.344 N 
HETATM    9  H           1     -21.148  -8.273  -3.930  0.00  0.00     0.163 HD
BRANCH   8  10
HETATM   10  C           1     -19.394  -9.277  -4.643  0.00  0.00     0.189 C 
BRANCH  10  11
HETATM   11  C           1     -19.004  -9.610  -3.209  0.00  0.00     0.010 C 
HETATM   12  C           1     -19.744  -8.684  -2.253  0.00  0.00     0.012 C 
HETATM   13  C           1     -17.503  -9.422  -3.035  0.00  0.00     0.012 C 
ENDBRANCH  10  11
BRANCH  10  14
HETATM   14  C           1     -19.914 -10.521  -5.323  0.00  0.00     0.197 C 
HETATM   15  O           1     -20.779 -11.225  -4.760  0.00  0.00    -0.646 OA
HETATM   16  O           1     -19.478 -10.845  -6.449  0.00  0.00    -0.646 OA
ENDBRANCH  10  14
ENDBRANCH   8  10
ENDBRANCH   1   6
BRANCH   1  17
HETATM   17  C           1     -20.925  -4.909  -6.100  0.00  0.00     0.101 C 
BRANCH  17  18
HETATM   18  C           1     -21.586  -4.533  -7.390  0.00  0.00     0.028 A 
HETATM   19  C           1     -20.958  -4.511  -8.612  0.00  0.00     0.114 A 
HETATM   20  N           1     -21.921  -4.116  -9.498  0.00  0.00    -0.360 N 
HETATM   21  H           1     -21.797  -3.989 -10.533  0.00  0.00     0.166 HD
HETATM   22  C           1     -23.073  -3.918  -8.791  0.00  0.00     0.180 A 
HETATM   23  N           1     -22.900  -4.162  -7.512  0.00  0.00    -0.355 N 
ATOM     24  HN          1     -23.595  -4.091  -6.769  1.00  0.00     0.166 HD
ENDBRANCH  17  18
ENDBRANCH   1  17
TORSDOF 7
ENDMDL
MODEL 9
REMARK VINA RESULT:      -5.5      2.962      7.063
REMARK  7 active torsions:
REMARK  status: ('A' for Active; 'I' for Inactive)
REMARK    1  A    between atoms: N_1  and  C_11 
REMARK    2  A    between atoms: N_4  and  C_19 
REMARK       I    between atoms: N_4  and  C_5 
REMARK    3  A    between atoms: C_5  and  C_11 
REMARK    4  A    between atoms: C_11  and  C_21 
REMARK    5  A    between atoms: C_14  and  C_21 
REMARK    6  A    between atoms: C_15  and  C_19 
REMARK    7  A    between atoms: C_18  and  C_19 
ROOT
HETATM    1  C           1     -20.310  -5.920  -5.749  0.00  0.00     0.280 C 
ENDROOT
BRANCH   1   2
HETATM    2  N           1     -20.379  -6.594  -7.087  0.00  0.00    -0.066 N 
HETATM    3  H           1     -20.391  -5.870  -7.842  0.00  0.00     0.275 HD
HETATM    4  H           1     -19.544  -7.210  -7.210  0.00  0.00     0.275 HD
HETATM    5  H           1     -21.250  -7.169  -7.142  0.00  0.00     0.275 HD
ENDBRANCH   1   2
BRANCH   1   6
HETATM    6  C           1     -21.287  -6.576  -4.805  0.00  0.00     0.249 C 
HETATM    7  O           1     -22.471  -6.361  -4.915  0.00  0.00    -0.271 OA
HETATM    8  N           1     -20.833  -7.416  -3.823  0.00  0.00    -0.344 N 
HETATM    9  H           1     -19.842  -7.596  -3.731  0.00  0.00     0.163 HD
BRANCH   8  10
HETATM   10  C           1     -21.772  -8.046  -2.916  0.00  0.00     0.189 C 
BRANCH  10  11
HETATM   11  C           1     -21.336  -9.481  -2.649  0.00  0.00     0.010 C 
HETATM   12  C           1     -19.917  -9.684  -3.162  0.00  0.00     0.012 C 
HETATM   13  C           1     -22.277 -10.439  -3.365  0.00  0.00     0.012 C 
ENDBRANCH  10  11
BRANCH  10  14
HETATM   14  C           1     -21.807  -7.280  -1.616  0.00  0.00     0.197 C 
HETATM   15  O           1     -22.447  -6.211  -1.538  0.00  0.00    -0.646 OA
HETATM   16  O           1     -21.193  -7.716  -0.618  0.00  0.00    -0.646 OA
ENDBRANCH  10  14
ENDBRANCH   8  10
ENDBRANCH   1   6
BRANCH   1  17
HETATM   17  C           1     -20.664  -4.446  -5.904  0.00  0.00     0.101 C 
BRANCH  17  18
HETATM   18  C           1     -21.448  -4.251  -7.164  0.00  0.00     0.028 A 
HETATM   19  C           1     -20.898  -3.954  -8.388  0.00  0.00     0.114 A 
HETATM   20  N           1     -21.961  -3.864  -9.243  0.00  0.00    -0.360 N 
HETATM   21  H           1     -21.916  -3.649 -10.269  0.00  0.00     0.166 HD
HETATM   22  C           1     -23.093  -4.104  -8.516  0.00  0.00     0.180 A 
HETATM   23  N           1     -22.813  -4.341  -7.255  0.00  0.00    -0.355 N 
ATOM     24  HN          1     -23.471  -4.547  -6.502  1.00  0.00     0.166 HD
ENDBRANCH  17  18
ENDBRANCH   1  17
TORSDOF 7
ENDMDL
