MODEL 1
REMARK VINA RESULT:      -6.9      0.000      0.000
REMARK  9 active torsions:
REMARK  status: ('A' for Active; 'I' for Inactive)
REMARK       I    between atoms: N_2  and  C_3 
REMARK    1  A    between atoms: C_3  and  C_4 
REMARK    2  A    between atoms: C_4  and  C_5 
REMARK    3  A    between atoms: C_5  and  C_6 
REMARK    4  A    between atoms: C_6  and  C_7 
REMARK    5  A    between atoms: C_6  and  N_18 
REMARK       I    between atoms: C_7  and  N_24 
REMARK    6  A    between atoms: C_9  and  C_16 
REMARK    7  A    between atoms: C_9  and  C_22 
REMARK    8  A    between atoms: C_9  and  N_24 
REMARK    9  A    between atoms: O_10  and  C_16 
ROOT
HETATM    1  C           1     -34.400  -2.424 -11.876  0.00  0.00     0.275 C 
ENDROOT
BRANCH   1   2
HETATM    2  C           1     -35.077  -3.544 -11.100  0.00  0.00     0.052 C 
BRANCH   2   3
HETATM    3  C           1     -34.028  -4.542 -10.627  0.00  0.00     0.105 C 
BRANCH   3   4
HETATM    4  C           1     -34.368  -5.915 -11.152  0.00  0.00     0.215 C 
HETATM    5  O           1     -34.234  -6.884 -10.444  0.00  0.00    -0.274 OA
HETATM    6  N           1     -34.830  -6.062 -12.434  0.00  0.00    -0.370 N 
HETATM    7  H           1     -35.059  -6.983 -12.785  0.00  0.00     0.159 HD
HETATM    8  H           1     -34.943  -5.251 -13.027  0.00  0.00     0.159 HD
ENDBRANCH   3   4
ENDBRANCH   2   3
ENDBRANCH   1   2
BRANCH   1   9
HETATM    9  C           1     -35.426  -1.698 -12.712  0.00  0.00     0.249 C 
HETATM   10  N           1     -35.091  -1.231 -13.955  0.00  0.00    -0.343 N 
HETATM   11  H           1     -34.155  -1.372 -14.313  0.00  0.00     0.163 HD
HETATM   12  O           1     -36.542  -1.529 -12.284  0.00  0.00    -0.271 OA
BRANCH  10  13
HETATM   13  C           1     -36.077  -0.534 -14.758  0.00  0.00     0.214 C 
BRANCH  13  14
HETATM   14  C           1     -35.883   0.969 -14.608  0.00  0.00     0.147 C 
HETATM   15  C           1     -34.515   1.244 -13.999  0.00  0.00     0.042 C 
BRANCH  14  16
HETATM   16  O           1     -35.966   1.578 -15.869  0.00  0.00    -0.393 OA
HETATM   17  H           1     -35.122   1.958 -16.045  0.00  0.00     0.210 HD
ENDBRANCH  14  16
ENDBRANCH  13  14
BRANCH  13  18
HETATM   18  C           1     -35.909  -0.922 -16.206  0.00  0.00     0.199 C 
HETATM   19  O           1     -36.859  -0.784 -17.006  0.00  0.00    -0.646 OA
HETATM   20  O           1     -34.817  -1.381 -16.607  0.00  0.00    -0.646 OA
ENDBRANCH  13  18
ENDBRANCH  10  13
ENDBRANCH   1   9
BRANCH   1  21
HETATM   21  N           1     -33.768  -1.460 -10.915  0.00  0.00    -0.066 N 
HETATM   22  H           1     -34.085  -0.490 -11.136  0.00  0.00     0.275 HD
HETATM   23  H           1     -34.051  -1.706  -9.939  0.00  0.00     0.275 HD
HETATM   24  H           1     -32.728  -1.515 -10.999  0.00  0.00     0.275 HD
ENDBRANCH   1  21
TORSDOF 9
ENDMDL
MODEL 2
REMARK VINA RESULT:      -6.5     12.927     14.705
REMARK  9 active torsions:
REMARK  status: ('A' for Active; 'I' for Inactive)
REMARK       I    between atoms: N_2  and  C_3 
REMARK    1  A    between atoms: C_3  and  C_4 
REMARK    2  A    between atoms: C_4  and  C_5 
REMARK    3  A    between atoms: C_5  and  C_6 
REMARK    4  A    between atoms: C_6  and  C_7 
REMARK    5  A    between atoms: C_6  and  N_18 
REMARK       I    between atoms: C_7  and  N_24 
REMARK    6  A    between atoms: C_9  and  C_16 
REMARK    7  A    between atoms: C_9  and  C_22 
REMARK    8  A    between atoms: C_9  and  N_24 
REMARK    9  A    between atoms: O_10  and  C_16 
ROOT
HETATM    1  C           1     -21.242  -5.823  -7.025  0.00  0.00     0.275 C 
ENDROOT
BRANCH   1   2
HETATM    2  C           1     -21.268  -5.464  -5.546  0.00  0.00     0.052 C 
BRANCH   2   3
HETATM    3  C           1     -22.213  -6.405  -4.810  0.00  0.00     0.105 C 
BRANCH   3   4
HETATM    4  C           1     -21.746  -6.574  -3.386  0.00  0.00     0.215 C 
HETATM    5  O           1     -20.809  -7.294  -3.138  0.00  0.00    -0.274 OA
HETATM    6  N           1     -22.385  -5.910  -2.372  0.00  0.00    -0.370 N 
HETATM    7  H           1     -22.071  -6.022  -1.417  0.00  0.00     0.159 HD
HETATM    8  H           1     -23.170  -5.306  -2.580  0.00  0.00     0.159 HD
ENDBRANCH   3   4
ENDBRANCH   2   3
ENDBRANCH   1   2
BRANCH   1   9
HETATM    9  C           1     -21.720  -4.644  -7.838  0.00  0.00     0.249 C 
HETATM   10  N           1     -22.140  -4.827  -9.127  0.00  0.00    -0.343 N 
HETATM   11  H           1     -22.131  -5.754  -9.536  0.00  0.00     0.163 HD
HETATM   12  O           1     -21.730  -3.539  -7.350  0.00  0.00    -0.271 OA
BRANCH  10  13
HETATM   13  C           1     -22.600  -3.695  -9.909  0.00  0.00     0.214 C 
BRANCH  13  14
HETATM   14  C           1     -21.820  -3.629 -11.214  0.00  0.00     0.147 C 
HETATM   15  C           1     -20.400  -4.127 -10.981  0.00  0.00     0.042 C 
BRANCH  14  16
HETATM   16  O           1     -22.447  -4.437 -12.174  0.00  0.00    -0.393 OA
HETATM   17  H           1     -22.339  -4.008 -13.006  0.00  0.00     0.210 HD
ENDBRANCH  14  16
ENDBRANCH  13  14
BRANCH  13  18
HETATM   18  C           1     -24.070  -3.856 -10.207  0.00  0.00     0.199 C 
HETATM   19  O           1     -24.658  -4.917  -9.906  0.00  0.00    -0.646 OA
HETATM   20  O           1     -24.702  -2.926 -10.755  0.00  0.00    -0.646 OA
ENDBRANCH  13  18
ENDBRANCH  10  13
ENDBRANCH   1   9
BRANCH   1  21
HETATM   21  N           1     -19.840  -6.172  -7.429  0.00  0.00    -0.066 N 
HETATM   22  H           1     -19.864  -6.912  -8.166  0.00  0.00     0.275 HD
HETATM   23  H           1     -19.363  -5.322  -7.806  0.00  0.00     0.275 HD
HETATM   24  H           1     -19.315  -6.525  -6.597  0.00  0.00     0.275 HD
ENDBRANCH   1  21
TORSDOF 9
ENDMDL
MODEL 3
REMARK VINA RESULT:      -6.3     12.154     14.715
REMARK  9 active torsions:
REMARK  status: ('A' for Active; 'I' for Inactive)
REMARK       I    between atoms: N_2  and  C_3 
REMARK    1  A    between atoms: C_3  and  C_4 
REMARK    2  A    between atoms: C_4  and  C_5 
REMARK    3  A    between atoms: C_5  and  C_6 
REMARK    4  A    between atoms: C_6  and  C_7 
REMARK    5  A    between atoms: C_6  and  N_18 
REMARK       I    between atoms: C_7  and  N_24 
REMARK    6  A    between atoms: C_9  and  C_16 
REMARK    7  A    between atoms: C_9  and  C_22 
REMARK    8  A    between atoms: C_9  and  N_24 
REMARK    9  A    between atoms: O_10  and  C_16 
ROOT
HETATM    1  C           1     -24.082  -3.945 -10.168  0.00  0.00     0.275 C 
ENDROOT
BRANCH   1   2
HETATM    2  C           1     -23.768  -2.874 -11.203  0.00  0.00     0.052 C 
BRANCH   2   3
HETATM    3  C           1     -24.374  -3.268 -12.544  0.00  0.00     0.105 C 
BRANCH   3   4
HETATM    4  C           1     -23.307  -3.230 -13.609  0.00  0.00     0.215 C 
HETATM    5  O           1     -23.603  -2.994 -14.755  0.00  0.00    -0.274 OA
HETATM    6  N           1     -21.998  -3.463 -13.274  0.00  0.00    -0.370 N 
HETATM    7  H           1     -21.282  -3.436 -13.989  0.00  0.00     0.159 HD
HETATM    8  H           1     -21.749  -3.660 -12.314  0.00  0.00     0.159 HD
ENDBRANCH   3   4
ENDBRANCH   2   3
ENDBRANCH   1   2
BRANCH   1   9
HETATM    9  C           1     -22.795  -4.478  -9.588  0.00  0.00     0.249 C 
HETATM   10  N           1     -22.677  -4.662  -8.236  0.00  0.00    -0.343 N 
HETATM   11  H           1     -23.454  -4.441  -7.626  0.00  0.00     0.163 HD
HETATM   12  O           1     -21.868  -4.741 -10.316  0.00  0.00    -0.271 OA
BRANCH  10  13
HETATM   13  C           1     -21.440  -5.174  -7.679  0.00  0.00     0.214 C 
BRANCH  13  14
HETATM   14  C           1     -20.598  -4.015  -7.164  0.00  0.00     0.147 C 
HETATM   15  C           1     -19.422  -3.787  -8.104  0.00  0.00     0.042 C 
BRANCH  14  16
HETATM   16  O           1     -21.384  -2.855  -7.107  0.00  0.00    -0.393 OA
HETATM   17  H           1     -22.278  -3.124  -7.233  0.00  0.00     0.210 HD
ENDBRANCH  14  16
ENDBRANCH  13  14
BRANCH  13  18
HETATM   18  C           1     -21.754  -6.114  -6.540  0.00  0.00     0.199 C 
HETATM   19  O           1     -22.561  -5.770  -5.650  0.00  0.00    -0.646 OA
HETATM   20  O           1     -21.208  -7.237  -6.489  0.00  0.00    -0.646 OA
ENDBRANCH  13  18
ENDBRANCH  10  13
ENDBRANCH   1   9
BRANCH   1  21
HETATM   21  N           1     -24.916  -3.351  -9.071  0.00  0.00    -0.066 N 
HETATM   22  H           1     -25.021  -2.325  -9.232  0.00  0.00     0.275 HD
HETATM   23  H           1     -25.859  -3.802  -9.067  0.00  0.00     0.275 HD
HETATM   24  H           1     -24.448  -3.515  -8.151  0.00  0.00     0.275 HD
ENDBRANCH   1  21
TORSDOF 9
ENDMDL
MODEL 4
REMARK VINA RESULT:      -6.2     12.618     15.125
REMARK  9 active torsions:
REMARK  status: ('A' for Active; 'I' for Inactive)
REMARK       I    between atoms: N_2  and  C_3 
REMARK    1  A    between atoms: C_3  and  C_4 
REMARK    2  A    between atoms: C_4  and  C_5 
REMARK    3  A    between atoms: C_5  and  C_6 
REMARK    4  A    between atoms: C_6  and  C_7 
REMARK    5  A    between atoms: C_6  and  N_18 
REMARK       I    between atoms: C_7  and  N_24 
REMARK    6  A    between atoms: C_9  and  C_16 
REMARK    7  A    between atoms: C_9  and  C_22 
REMARK    8  A    between atoms: C_9  and  N_24 
REMARK    9  A    between atoms: O_10  and  C_16 
ROOT
HETATM    1  C           1     -21.897  -3.051 -11.364  0.00  0.00     0.275 C 
ENDROOT
BRANCH   1   2
HETATM    2  C           1     -22.594  -3.591 -12.605  0.00  0.00     0.052 C 
BRANCH   2   3
HETATM    3  C           1     -23.753  -2.675 -12.976  0.00  0.00     0.105 C 
BRANCH   3   4
HETATM    4  C           1     -23.488  -2.052 -14.325  0.00  0.00     0.215 C 
HETATM    5  O           1     -22.776  -2.614 -15.121  0.00  0.00    -0.274 OA
HETATM    6  N           1     -24.058  -0.848 -14.646  0.00  0.00    -0.370 N 
HETATM    7  H           1     -23.881  -0.430 -15.551  0.00  0.00     0.159 HD
HETATM    8  H           1     -24.655  -0.377 -13.979  0.00  0.00     0.159 HD
ENDBRANCH   3   4
ENDBRANCH   2   3
ENDBRANCH   1   2
BRANCH   1   9
HETATM    9  C           1     -22.144  -3.982 -10.202  0.00  0.00     0.249 C 
HETATM   10  N           1     -21.158  -4.204  -9.280  0.00  0.00    -0.343 N 
HETATM   11  H           1     -20.261  -3.743  -9.377  0.00  0.00     0.163 HD
HETATM   12  O           1     -23.214  -4.532 -10.087  0.00  0.00    -0.271 OA
BRANCH  10  13
HETATM   13  C           1     -21.396  -5.098  -8.162  0.00  0.00     0.214 C 
BRANCH  13  14
HETATM   14  C           1     -20.068  -5.645  -7.659  0.00  0.00     0.147 C 
HETATM   15  C           1     -18.999  -4.566  -7.774  0.00  0.00     0.042 C 
BRANCH  14  16
HETATM   16  O           1     -20.200  -6.031  -6.317  0.00  0.00    -0.393 OA
HETATM   17  H           1     -19.553  -6.697  -6.159  0.00  0.00     0.210 HD
ENDBRANCH  14  16
ENDBRANCH  13  14
BRANCH  13  18
HETATM   18  C           1     -22.083  -4.341  -7.052  0.00  0.00     0.199 C 
HETATM   19  O           1     -23.091  -4.826  -6.496  0.00  0.00    -0.646 OA
HETATM   20  O           1     -21.642  -3.229  -6.689  0.00  0.00    -0.646 OA
ENDBRANCH  13  18
ENDBRANCH  10  13
ENDBRANCH   1   9
BRANCH   1  21
HETATM   21  N           1     -20.421  -2.956 -11.621  0.00  0.00    -0.066 N 
HETATM   22  H           1     -19.981  -2.345 -10.898  0.00  0.00     0.275 HD
HETATM   23  H           1     -19.997  -3.910 -11.576  0.00  0.00     0.275 HD
HETATM   24  H           1     -20.259  -2.548 -12.570  0.00  0.00     0.275 HD
ENDBRANCH   1  21
TORSDOF 9
ENDMDL
MODEL 5
REMARK VINA RESULT:      -6.1      4.328      5.538
REMARK  9 active torsions:
REMARK  status: ('A' for Active; 'I' for Inactive)
REMARK       I    between atoms: N_2  and  C_3 
REMARK    1  A    between atoms: C_3  and  C_4 
REMARK    2  A    between atoms: C_4  and  C_5 
REMARK    3  A    between atoms: C_5  and  C_6 
REMARK    4  A    between atoms: C_6  and  C_7 
REMARK    5  A    between atoms: C_6  and  N_18 
REMARK       I    between atoms: C_7  and  N_24 
REMARK    6  A    between atoms: C_9  and  C_16 
REMARK    7  A    between atoms: C_9  and  C_22 
REMARK    8  A    between atoms: C_9  and  N_24 
REMARK    9  A    between atoms: O_10  and  C_16 
ROOT
HETATM    1  C           1     -36.726   0.027  -8.711  0.00  0.00     0.275 C 
ENDROOT
BRANCH   1   2
HETATM    2  C           1     -38.075   0.046  -8.006  0.00  0.00     0.052 C 
BRANCH   2   3
HETATM    3  C           1     -37.956  -0.657  -6.660  0.00  0.00     0.105 C 
BRANCH   3   4
HETATM    4  C           1     -37.631   0.356  -5.591  0.00  0.00     0.215 C 
HETATM    5  O           1     -37.174   1.431  -5.895  0.00  0.00    -0.274 OA
HETATM    6  N           1     -37.856   0.055  -4.273  0.00  0.00    -0.370 N 
HETATM    7  H           1     -37.639   0.735  -3.555  0.00  0.00     0.159 HD
HETATM    8  H           1     -38.239  -0.846  -4.018  0.00  0.00     0.159 HD
ENDBRANCH   3   4
ENDBRANCH   2   3
ENDBRANCH   1   2
BRANCH   1   9
HETATM    9  C           1     -36.883  -0.584 -10.083  0.00  0.00     0.249 C 
HETATM   10  N           1     -35.797  -0.706 -10.906  0.00  0.00    -0.343 N 
HETATM   11  H           1     -34.888  -0.387 -10.595  0.00  0.00     0.163 HD
HETATM   12  O           1     -37.968  -0.963 -10.453  0.00  0.00    -0.271 OA
BRANCH  10  13
HETATM   13  C           1     -35.948  -1.293 -12.224  0.00  0.00     0.214 C 
BRANCH  13  14
HETATM   14  C           1     -36.072  -0.186 -13.261  0.00  0.00     0.147 C 
HETATM   15  C           1     -34.793   0.641 -13.274  0.00  0.00     0.042 C 
BRANCH  14  16
HETATM   16  O           1     -36.274  -0.753 -14.528  0.00  0.00    -0.393 OA
HETATM   17  H           1     -36.874  -0.190 -14.987  0.00  0.00     0.210 HD
ENDBRANCH  14  16
ENDBRANCH  13  14
BRANCH  13  18
HETATM   18  C           1     -34.740  -2.143 -12.535  0.00  0.00     0.199 C 
HETATM   19  O           1     -33.833  -2.277 -11.686  0.00  0.00    -0.646 OA
HETATM   20  O           1     -34.648  -2.715 -13.644  0.00  0.00    -0.646 OA
ENDBRANCH  13  18
ENDBRANCH  10  13
ENDBRANCH   1   9
BRANCH   1  21
HETATM   21  N           1     -36.213   1.431  -8.846  0.00  0.00    -0.066 N 
HETATM   22  H           1     -36.587   2.015  -8.065  0.00  0.00     0.275 HD
HETATM   23  H           1     -35.169   1.426  -8.808  0.00  0.00     0.275 HD
HETATM   24  H           1     -36.525   1.830  -9.760  0.00  0.00     0.275 HD
ENDBRANCH   1  21
TORSDOF 9
ENDMDL
MODEL 6
REMARK VINA RESULT:      -6.0     12.506     15.055
REMARK  9 active torsions:
REMARK  status: ('A' for Active; 'I' for Inactive)
REMARK       I    between atoms: N_2  and  C_3 
REMARK    1  A    between atoms: C_3  and  C_4 
REMARK    2  A    between atoms: C_4  and  C_5 
REMARK    3  A    between atoms: C_5  and  C_6 
REMARK    4  A    between atoms: C_6  and  C_7 
REMARK    5  A    between atoms: C_6  and  N_18 
REMARK       I    between atoms: C_7  and  N_24 
REMARK    6  A    between atoms: C_9  and  C_16 
REMARK    7  A    between atoms: C_9  and  C_22 
REMARK    8  A    between atoms: C_9  and  N_24 
REMARK    9  A    between atoms: O_10  and  C_16 
ROOT
HETATM    1  C           1     -23.878  -4.809  -9.934  0.00  0.00     0.275 C 
ENDROOT
BRANCH   1   2
HETATM    2  C           1     -23.403  -4.496 -11.346  0.00  0.00     0.052 C 
BRANCH   2   3
HETATM    3  C           1     -24.171  -3.297 -11.888  0.00  0.00     0.105 C 
BRANCH   3   4
HETATM    4  C           1     -23.554  -2.852 -13.191  0.00  0.00     0.215 C 
HETATM    5  O           1     -24.166  -2.121 -13.931  0.00  0.00    -0.274 OA
HETATM    6  N           1     -22.298  -3.279 -13.534  0.00  0.00    -0.370 N 
HETATM    7  H           1     -21.884  -2.980 -14.408  0.00  0.00     0.159 HD
HETATM    8  H           1     -21.785  -3.891 -12.914  0.00  0.00     0.159 HD
ENDBRANCH   3   4
ENDBRANCH   2   3
ENDBRANCH   1   2
BRANCH   1   9
HETATM    9  C           1     -22.873  -4.286  -8.937  0.00  0.00     0.249 C 
HETATM   10  N           1     -21.957  -5.136  -8.379  0.00  0.00    -0.343 N 
HETATM   11  H           1     -21.952  -6.115  -8.636  0.00  0.00     0.163 HD
HETATM   12  O           1     -22.880  -3.118  -8.630  0.00  0.00    -0.271 OA
BRANCH  10  13
HETATM   13  C           1     -20.991  -4.633  -7.420  0.00  0.00     0.214 C 
BRANCH  13  14
HETATM   14  C           1     -20.789  -5.663  -6.317  0.00  0.00     0.147 C 
HETATM   15  C           1     -22.129  -5.972  -5.661  0.00  0.00     0.042 C 
BRANCH  14  16
HETATM   16  O           1     -20.255  -6.838  -6.866  0.00  0.00    -0.393 OA
HETATM   17  H           1     -20.974  -7.314  -7.244  0.00  0.00     0.210 HD
ENDBRANCH  14  16
ENDBRANCH  13  14
BRANCH  13  18
HETATM   18  C           1     -19.678  -4.378  -8.118  0.00  0.00     0.199 C 
HETATM   19  O           1     -18.610  -4.401  -7.469  0.00  0.00    -0.646 OA
HETATM   20  O           1     -19.658  -4.145  -9.346  0.00  0.00    -0.646 OA
ENDBRANCH  13  18
ENDBRANCH  10  13
ENDBRANCH   1   9
BRANCH   1  21
HETATM   21  N           1     -25.206  -4.151  -9.697  0.00  0.00    -0.066 N 
HETATM   22  H           1     -25.513  -4.333  -8.715  0.00  0.00     0.275 HD
HETATM   23  H           1     -25.117  -3.121  -9.849  0.00  0.00     0.275 HD
HETATM   24  H           1     -25.912  -4.542 -10.362  0.00  0.00     0.275 HD
ENDBRANCH   1  21
TORSDOF 9
ENDMDL
MODEL 7
REMARK VINA RESULT:      -5.7     14.277     16.669
REMARK  9 active torsions:
REMARK  status: ('A' for Active; 'I' for Inactive)
REMARK       I    between atoms: N_2  and  C_3 
REMARK    1  A    between atoms: C_3  and  C_4 
REMARK    2  A    between atoms: C_4  and  C_5 
REMARK    3  A    between atoms: C_5  and  C_6 
REMARK    4  A    between atoms: C_6  and  C_7 
REMARK    5  A    between atoms: C_6  and  N_18 
REMARK       I    between atoms: C_7  and  N_24 
REMARK    6  A    between atoms: C_9  and  C_16 
REMARK    7  A    between atoms: C_9  and  C_22 
REMARK    8  A    between atoms: C_9  and  N_24 
REMARK    9  A    between atoms: O_10  and  C_16 
ROOT
HETATM    1  C           1     -21.996  -7.538  -4.030  0.00  0.00     0.275 C 
ENDROOT
BRANCH   1   2
HETATM    2  C           1     -21.235  -6.746  -2.976  0.00  0.00     0.052 C 
BRANCH   2   3
HETATM    3  C           1     -22.205  -6.255  -1.909  0.00  0.00     0.105 C 
BRANCH   3   4
HETATM    4  C           1     -22.249  -7.247  -0.774  0.00  0.00     0.215 C 
HETATM    5  O           1     -23.247  -7.356  -0.104  0.00  0.00    -0.274 OA
HETATM    6  N           1     -21.155  -8.027  -0.504  0.00  0.00    -0.370 N 
HETATM    7  H           1     -21.185  -8.693   0.257  0.00  0.00     0.159 HD
HETATM    8  H           1     -20.319  -7.936  -1.066  0.00  0.00     0.159 HD
ENDBRANCH   3   4
ENDBRANCH   2   3
ENDBRANCH   1   2
BRANCH   1   9
HETATM    9  C           1     -21.656  -7.008  -5.401  0.00  0.00     0.249 C 
HETATM   10  N           1     -21.927  -5.705  -5.719  0.00  0.00    -0.343 N 
HETATM   11  H           1     -22.356  -5.096  -5.033  0.00  0.00     0.163 HD
HETATM   12  O           1     -21.145  -7.735  -6.220  0.00  0.00    -0.271 OA
BRANCH  10  13
HETATM   13  C           1     -21.600  -5.195  -7.037  0.00  0.00     0.214 C 
BRANCH  13  14
HETATM   14  C           1     -22.667  -4.201  -7.475  0.00  0.00     0.147 C 
HETATM   15  C           1     -22.944  -4.379  -8.962  0.00  0.00     0.042 C 
BRANCH  14  16
HETATM   16  O           1     -23.844  -4.429  -6.748  0.00  0.00    -0.393 OA
HETATM   17  H           1     -23.918  -5.361  -6.631  0.00  0.00     0.210 HD
ENDBRANCH  14  16
ENDBRANCH  13  14
BRANCH  13  18
HETATM   18  C           1     -20.258  -4.507  -6.989  0.00  0.00     0.199 C 
HETATM   19  O           1     -19.815  -3.931  -8.005  0.00  0.00    -0.646 OA
HETATM   20  O           1     -19.591  -4.512  -5.932  0.00  0.00    -0.646 OA
ENDBRANCH  13  18
ENDBRANCH  10  13
ENDBRANCH   1   9
BRANCH   1  21
HETATM   21  N           1     -21.608  -8.985  -3.944  0.00  0.00    -0.066 N 
HETATM   22  H           1     -22.349  -9.514  -3.433  0.00  0.00     0.275 HD
HETATM   23  H           1     -21.503  -9.376  -4.907  0.00  0.00     0.275 HD
HETATM   24  H           1     -20.701  -9.073  -3.432  0.00  0.00     0.275 HD
ENDBRANCH   1  21
TORSDOF 9
ENDMDL
MODEL 8
REMARK VINA RESULT:      -5.5     13.028     14.650
REMARK  9 active torsions:
REMARK  status: ('A' for Active; 'I' for Inactive)
REMARK       I    between atoms: N_2  and  C_3 
REMARK    1  A    between atoms: C_3  and  C_4 
REMARK    2  A    between atoms: C_4  and  C_5 
REMARK    3  A    between atoms: C_5  and  C_6 
REMARK    4  A    between atoms: C_6  and  C_7 
REMARK    5  A    between atoms: C_6  and  N_18 
REMARK       I    between atoms: C_7  and  N_24 
REMARK    6  A    between atoms: C_9  and  C_16 
REMARK    7  A    between atoms: C_9  and  C_22 
REMARK    8  A    between atoms: C_9  and  N_24 
REMARK    9  A    between atoms: O_10  and  C_16 
ROOT
HETATM    1  C           1     -22.023  -4.192  -6.976  0.00  0.00     0.275 C 
ENDROOT
BRANCH   1   2
HETATM    2  C           1     -21.065  -4.889  -6.021  0.00  0.00     0.052 C 
BRANCH   2   3
HETATM    3  C           1     -21.766  -6.076  -5.373  0.00  0.00     0.105 C 
BRANCH   3   4
HETATM    4  C           1     -20.800  -7.230  -5.261  0.00  0.00     0.215 C 
HETATM    5  O           1     -20.025  -7.459  -6.158  0.00  0.00    -0.274 OA
HETATM    6  N           1     -20.802  -8.017  -4.140  0.00  0.00    -0.370 N 
HETATM    7  H           1     -20.153  -8.790  -4.064  0.00  0.00     0.159 HD
HETATM    8  H           1     -21.451  -7.825  -3.388  0.00  0.00     0.159 HD
ENDBRANCH   3   4
ENDBRANCH   2   3
ENDBRANCH   1   2
BRANCH   1   9
HETATM    9  C           1     -21.696  -4.587  -8.396  0.00  0.00     0.249 C 
HETATM   10  N           1     -22.488  -4.157  -9.426  0.00  0.00    -0.343 N 
HETATM   11  H           1     -23.292  -3.573  -9.236  0.00  0.00     0.163 HD
HETATM   12  O           1     -20.736  -5.285  -8.622  0.00  0.00    -0.271 OA
BRANCH  10  13
HETATM   13  C           1     -22.173  -4.537 -10.790  0.00  0.00     0.214 C 
BRANCH  13  14
HETATM   14  C           1     -23.432  -4.453 -11.643  0.00  0.00     0.147 C 
HETATM   15  C           1     -24.400  -3.457 -11.019  0.00  0.00     0.042 C 
BRANCH  14  16
HETATM   16  O           1     -23.092  -4.029 -12.936  0.00  0.00    -0.393 OA
HETATM   17  H           1     -22.949  -3.099 -12.890  0.00  0.00     0.210 HD
ENDBRANCH  14  16
ENDBRANCH  13  14
BRANCH  13  18
HETATM   18  C           1     -21.126  -3.602 -11.343  0.00  0.00     0.199 C 
HETATM   19  O           1     -19.971  -4.019 -11.569  0.00  0.00    -0.646 OA
HETATM   20  O           1     -21.416  -2.408 -11.575  0.00  0.00    -0.646 OA
ENDBRANCH  13  18
ENDBRANCH  10  13
ENDBRANCH   1   9
BRANCH   1  21
HETATM   21  N           1     -23.431  -4.598  -6.657  0.00  0.00    -0.066 N 
HETATM   22  H           1     -24.052  -3.759  -6.689  0.00  0.00     0.275 HD
HETATM   23  H           1     -23.759  -5.300  -7.358  0.00  0.00     0.275 HD
HETATM   24  H           1     -23.464  -5.020  -5.701  0.00  0.00     0.275 HD
ENDBRANCH   1  21
TORSDOF 9
ENDMDL
MODEL 9
REMARK VINA RESULT:      -5.5     24.605     26.048
REMARK  9 active torsions:
REMARK  status: ('A' for Active; 'I' for Inactive)
REMARK       I    between atoms: N_2  and  C_3 
REMARK    1  A    between atoms: C_3  and  C_4 
REMARK    2  A    between atoms: C_4  and  C_5 
REMARK    3  A    between atoms: C_5  and  C_6 
REMARK    4  A    between atoms: C_6  and  C_7 
REMARK    5  A    between atoms: C_6  and  N_18 
REMARK       I    between atoms: C_7  and  N_24 
REMARK    6  A    between atoms: C_9  and  C_16 
REMARK    7  A    between atoms: C_9  and  C_22 
REMARK    8  A    between atoms: C_9  and  N_24 
REMARK    9  A    between atoms: O_10  and  C_16 
ROOT
HETATM    1  C           1     -14.049   5.508 -21.350  0.00  0.00     0.275 C 
ENDROOT
BRANCH   1   2
HETATM    2  C           1     -13.878   4.269 -20.482  0.00  0.00     0.052 C 
BRANCH   2   3
HETATM    3  C           1     -13.205   3.168 -21.291  0.00  0.00     0.105 C 
BRANCH   3   4
HETATM    4  C           1     -11.715   3.214 -21.058  0.00  0.00     0.215 C 
HETATM    5  O           1     -11.267   2.993 -19.959  0.00  0.00    -0.274 OA
HETATM    6  N           1     -10.869   3.505 -22.096  0.00  0.00    -0.370 N 
HETATM    7  H           1      -9.869   3.535 -21.940  0.00  0.00     0.159 HD
HETATM    8  H           1     -11.244   3.690 -23.017  0.00  0.00     0.159 HD
ENDBRANCH   3   4
ENDBRANCH   2   3
ENDBRANCH   1   2
BRANCH   1   9
HETATM    9  C           1     -12.741   6.259 -21.419  0.00  0.00     0.249 C 
HETATM   10  N           1     -12.201   6.798 -20.283  0.00  0.00    -0.343 N 
HETATM   11  H           1     -12.678   6.693 -19.396  0.00  0.00     0.163 HD
HETATM   12  O           1     -12.173   6.385 -22.477  0.00  0.00    -0.271 OA
BRANCH  10  13
HETATM   13  C           1     -10.944   7.520 -20.349  0.00  0.00     0.214 C 
BRANCH  13  14
HETATM   14  C           1     -11.039   8.781 -19.502  0.00  0.00     0.147 C 
HETATM   15  C           1     -12.496   9.044 -19.146  0.00  0.00     0.042 C 
BRANCH  14  16
HETATM   16  O           1     -10.293   8.611 -18.326  0.00  0.00    -0.393 OA
HETATM   17  H           1      -9.447   8.287 -18.583  0.00  0.00     0.210 HD
ENDBRANCH  14  16
ENDBRANCH  13  14
BRANCH  13  18
HETATM   18  C           1      -9.834   6.643 -19.825  0.00  0.00     0.199 C 
HETATM   19  O           1     -10.008   5.964 -18.791  0.00  0.00    -0.646 OA
HETATM   20  O           1      -8.739   6.594 -20.428  0.00  0.00    -0.646 OA
ENDBRANCH  13  18
ENDBRANCH  10  13
ENDBRANCH   1   9
BRANCH   1  21
HETATM   21  N           1     -14.460   5.095 -22.733  0.00  0.00    -0.066 N 
HETATM   22  H           1     -13.915   5.642 -23.436  0.00  0.00     0.275 HD
HETATM   23  H           1     -14.273   4.076 -22.864  0.00  0.00     0.275 HD
HETATM   24  H           1     -15.481   5.280 -22.862  0.00  0.00     0.275 HD
ENDBRANCH   1  21
TORSDOF 9
ENDMDL
