MODEL 1
REMARK VINA RESULT:      -5.6      0.000      0.000
REMARK  9 active torsions:
REMARK  status: ('A' for Active; 'I' for Inactive)
REMARK    1  A    between atoms: C_2  and  C_8 
REMARK    2  A    between atoms: S_4  and  C_18 
REMARK    3  A    between atoms: N_7  and  C_10 
REMARK       I    between atoms: N_7  and  C_20 
REMARK    4  A    between atoms: C_8  and  C_10 
REMARK    5  A    between atoms: C_10  and  C_15 
REMARK    6  A    between atoms: N_16  and  C_21 
REMARK    7  A    between atoms: C_17  and  C_21 
REMARK    8  A    between atoms: C_17  and  C_18 
REMARK    9  A    between atoms: C_20  and  C_21 
ROOT
HETATM    1  O           1     -21.213  -3.703  -7.834  0.00  0.00    -0.271 OA
HETATM    2  H           1     -22.674  -6.147  -9.150  0.00  0.00     0.163 HD
HETATM    3  N           1     -22.386  -5.186  -9.023  0.00  0.00    -0.345 N 
HETATM    4  C           1     -21.556  -4.851  -7.986  0.00  0.00     0.249 C 
ENDROOT
BRANCH   4   5
HETATM    5  C           1     -21.071  -5.916  -7.034  0.00  0.00     0.275 C 
BRANCH   5   6
HETATM    6  N           1     -19.621  -6.196  -7.295  0.00  0.00    -0.066 N 
HETATM    7  H           1     -19.390  -7.165  -6.976  0.00  0.00     0.275 HD
HETATM    8  H           1     -19.033  -5.509  -6.770  0.00  0.00     0.275 HD
HETATM    9  H           1     -19.428  -6.110  -8.319  0.00  0.00     0.275 HD
ENDBRANCH   5   6
BRANCH   5  10
HETATM   10  C           1     -21.245  -5.434  -5.600  0.00  0.00     0.053 C 
BRANCH  10  11
HETATM   11  C           1     -22.058  -6.457  -4.816  0.00  0.00     0.076 C 
BRANCH  11  12
HETATM   12  S           1     -21.564  -6.411  -3.069  0.00  0.00    -0.173 SA
HETATM   13  C           1     -20.803  -8.059  -3.036  0.00  0.00     0.089 C 
ENDBRANCH  11  12
ENDBRANCH  10  11
ENDBRANCH   5  10
ENDBRANCH   4   5
BRANCH   3  14
HETATM   14  C           1     -22.852  -4.162  -9.937  0.00  0.00     0.185 C 
BRANCH  14  15
HETATM   15  C           1     -22.653  -4.635 -11.372  0.00  0.00     0.040 C 
BRANCH  15  16
HETATM   16  C           1     -21.931  -3.556 -12.168  0.00  0.00    -0.020 C 
HETATM   17  C           1     -22.937  -2.512 -12.634  0.00  0.00     0.009 C 
HETATM   18  C           1     -20.880  -2.894 -11.288  0.00  0.00     0.009 C 
ENDBRANCH  15  16
ENDBRANCH  14  15
BRANCH  14  19
HETATM   19  C           1     -24.316  -3.897  -9.692  0.00  0.00     0.196 C 
HETATM   20  O           1     -25.134  -4.842  -9.712  0.00  0.00    -0.646 OA
HETATM   21  O           1     -24.712  -2.733  -9.467  0.00  0.00    -0.646 OA
ENDBRANCH  14  19
ENDBRANCH   3  14
TORSDOF 9
ENDMDL
MODEL 2
REMARK VINA RESULT:      -5.5      3.404      7.336
REMARK  9 active torsions:
REMARK  status: ('A' for Active; 'I' for Inactive)
REMARK    1  A    between atoms: C_2  and  C_8 
REMARK    2  A    between atoms: S_4  and  C_18 
REMARK    3  A    between atoms: N_7  and  C_10 
REMARK       I    between atoms: N_7  and  C_20 
REMARK    4  A    between atoms: C_8  and  C_10 
REMARK    5  A    between atoms: C_10  and  C_15 
REMARK    6  A    between atoms: N_16  and  C_21 
REMARK    7  A    between atoms: C_17  and  C_21 
REMARK    8  A    between atoms: C_17  and  C_18 
REMARK    9  A    between atoms: C_20  and  C_21 
ROOT
HETATM    1  O           1     -20.457  -4.682  -5.668  0.00  0.00    -0.271 OA
HETATM    2  H           1     -21.302  -7.399  -6.990  0.00  0.00     0.163 HD
HETATM    3  N           1     -20.944  -6.775  -6.279  0.00  0.00    -0.345 N 
HETATM    4  C           1     -20.885  -5.427  -6.518  0.00  0.00     0.249 C 
ENDROOT
BRANCH   4   5
HETATM    5  C           1     -21.354  -4.874  -7.840  0.00  0.00     0.275 C 
BRANCH   5   6
HETATM    6  N           1     -22.406  -3.832  -7.601  0.00  0.00    -0.066 N 
HETATM    7  H           1     -21.953  -2.895  -7.507  0.00  0.00     0.275 HD
HETATM    8  H           1     -22.926  -4.056  -6.723  0.00  0.00     0.275 HD
HETATM    9  H           1     -23.072  -3.819  -8.408  0.00  0.00     0.275 HD
ENDBRANCH   5   6
BRANCH   5  10
HETATM   10  C           1     -20.177  -4.248  -8.576  0.00  0.00     0.053 C 
BRANCH  10  11
HETATM   11  C           1     -20.158  -4.741 -10.017  0.00  0.00     0.076 C 
BRANCH  11  12
HETATM   12  S           1     -20.959  -3.512 -11.087  0.00  0.00    -0.173 SA
HETATM   13  C           1     -22.457  -4.483 -11.416  0.00  0.00     0.089 C 
ENDBRANCH  11  12
ENDBRANCH  10  11
ENDBRANCH   5  10
ENDBRANCH   4   5
BRANCH   3  14
HETATM   14  C           1     -20.493  -7.305  -5.007  0.00  0.00     0.185 C 
BRANCH  14  15
HETATM   15  C           1     -21.676  -7.406  -4.053  0.00  0.00     0.040 C 
BRANCH  15  16
HETATM   16  C           1     -21.211  -7.112  -2.633  0.00  0.00    -0.020 C 
HETATM   17  C           1     -22.172  -6.130  -1.977  0.00  0.00     0.009 C 
HETATM   18  C           1     -21.180  -8.406  -1.831  0.00  0.00     0.009 C 
ENDBRANCH  15  16
ENDBRANCH  14  15
BRANCH  14  19
HETATM   19  C           1     -19.896  -8.675  -5.217  0.00  0.00     0.196 C 
HETATM   20  O           1     -18.745  -8.926  -4.797  0.00  0.00    -0.646 OA
HETATM   21  O           1     -20.553  -9.558  -5.809  0.00  0.00    -0.646 OA
ENDBRANCH  14  19
ENDBRANCH   3  14
TORSDOF 9
ENDMDL
MODEL 3
REMARK VINA RESULT:      -5.4      2.468      3.377
REMARK  9 active torsions:
REMARK  status: ('A' for Active; 'I' for Inactive)
REMARK    1  A    between atoms: C_2  and  C_8 
REMARK    2  A    between atoms: S_4  and  C_18 
REMARK    3  A    between atoms: N_7  and  C_10 
REMARK       I    between atoms: N_7  and  C_20 
REMARK    4  A    between atoms: C_8  and  C_10 
REMARK    5  A    between atoms: C_10  and  C_15 
REMARK    6  A    between atoms: N_16  and  C_21 
REMARK    7  A    between atoms: C_17  and  C_21 
REMARK    8  A    between atoms: C_17  and  C_18 
REMARK    9  A    between atoms: C_20  and  C_21 
ROOT
HETATM    1  O           1     -21.040  -7.059  -6.928  0.00  0.00    -0.271 OA
HETATM    2  H           1     -21.765  -4.062  -6.350  0.00  0.00     0.163 HD
HETATM    3  N           1     -21.568  -4.889  -6.898  0.00  0.00    -0.345 N 
HETATM    4  C           1     -21.277  -6.072  -6.273  0.00  0.00     0.249 C 
ENDROOT
BRANCH   4   5
HETATM    5  C           1     -21.250  -6.142  -4.766  0.00  0.00     0.275 C 
BRANCH   5   6
HETATM    6  N           1     -22.654  -6.172  -4.242  0.00  0.00    -0.066 N 
HETATM    7  H           1     -22.690  -6.754  -3.374  0.00  0.00     0.275 HD
HETATM    8  H           1     -23.288  -6.585  -4.964  0.00  0.00     0.275 HD
HETATM    9  H           1     -22.964  -5.198  -4.022  0.00  0.00     0.275 HD
ENDBRANCH   5   6
BRANCH   5  10
HETATM   10  C           1     -20.518  -7.404  -4.329  0.00  0.00     0.053 C 
BRANCH  10  11
HETATM   11  C           1     -21.377  -8.169  -3.331  0.00  0.00     0.076 C 
BRANCH  11  12
HETATM   12  S           1     -20.661  -8.011  -1.670  0.00  0.00    -0.173 SA
HETATM   13  C           1     -22.158  -7.368  -0.869  0.00  0.00     0.089 C 
ENDBRANCH  11  12
ENDBRANCH  10  11
ENDBRANCH   5  10
ENDBRANCH   4   5
BRANCH   3  14
HETATM   14  C           1     -21.594  -4.822  -8.346  0.00  0.00     0.185 C 
BRANCH  14  15
HETATM   15  C           1     -22.552  -3.722  -8.785  0.00  0.00     0.040 C 
BRANCH  15  16
HETATM   16  C           1     -23.760  -4.345  -9.473  0.00  0.00    -0.020 C 
HETATM   17  C           1     -24.859  -3.299  -9.611  0.00  0.00     0.009 C 
HETATM   18  C           1     -23.357  -4.845 -10.853  0.00  0.00     0.009 C 
ENDBRANCH  15  16
ENDBRANCH  14  15
BRANCH  14  19
HETATM   19  C           1     -20.208  -4.519  -8.860  0.00  0.00     0.196 C 
HETATM   20  O           1     -19.902  -4.807 -10.038  0.00  0.00    -0.646 OA
HETATM   21  O           1     -19.368  -3.979  -8.110  0.00  0.00    -0.646 OA
ENDBRANCH  14  19
ENDBRANCH   3  14
TORSDOF 9
ENDMDL
MODEL 4
REMARK VINA RESULT:      -5.1      1.573      2.030
REMARK  9 active torsions:
REMARK  status: ('A' for Active; 'I' for Inactive)
REMARK    1  A    between atoms: C_2  and  C_8 
REMARK    2  A    between atoms: S_4  and  C_18 
REMARK    3  A    between atoms: N_7  and  C_10 
REMARK       I    between atoms: N_7  and  C_20 
REMARK    4  A    between atoms: C_8  and  C_10 
REMARK    5  A    between atoms: C_10  and  C_15 
REMARK    6  A    between atoms: N_16  and  C_21 
REMARK    7  A    between atoms: C_17  and  C_21 
REMARK    8  A    between atoms: C_17  and  C_18 
REMARK    9  A    between atoms: C_20  and  C_21 
ROOT
HETATM    1  O           1     -20.729  -4.580  -7.731  0.00  0.00    -0.271 OA
HETATM    2  H           1     -23.805  -4.648  -7.119  0.00  0.00     0.163 HD
HETATM    3  N           1     -22.957  -4.450  -7.633  0.00  0.00    -0.345 N 
HETATM    4  C           1     -21.742  -4.818  -7.117  0.00  0.00     0.249 C 
ENDROOT
BRANCH   4   5
HETATM    5  C           1     -21.670  -5.518  -5.783  0.00  0.00     0.275 C 
BRANCH   5   6
HETATM    6  N           1     -23.029  -6.035  -5.416  0.00  0.00    -0.066 N 
HETATM    7  H           1     -23.318  -5.631  -4.496  0.00  0.00     0.275 HD
HETATM    8  H           1     -22.998  -7.077  -5.343  0.00  0.00     0.275 HD
HETATM    9  H           1     -23.717  -5.757  -6.152  0.00  0.00     0.275 HD
ENDBRANCH   5   6
BRANCH   5  10
HETATM   10  C           1     -20.691  -6.681  -5.872  0.00  0.00     0.053 C 
BRANCH  10  11
HETATM   11  C           1     -21.345  -7.939  -5.314  0.00  0.00     0.076 C 
BRANCH  11  12
HETATM   12  S           1     -20.460  -8.468  -3.819  0.00  0.00    -0.173 SA
HETATM   13  C           1     -18.983  -9.088  -4.672  0.00  0.00     0.089 C 
ENDBRANCH  11  12
ENDBRANCH  10  11
ENDBRANCH   5  10
ENDBRANCH   4   5
BRANCH   3  14
HETATM   14  C           1     -23.025  -3.776  -8.915  0.00  0.00     0.185 C 
BRANCH  14  15
HETATM   15  C           1     -22.178  -4.534  -9.930  0.00  0.00     0.040 C 
BRANCH  15  16
HETATM   16  C           1     -21.537  -3.546 -10.896  0.00  0.00    -0.020 C 
HETATM   17  C           1     -20.109  -3.983 -11.193  0.00  0.00     0.009 C 
HETATM   18  C           1     -22.338  -3.509 -12.190  0.00  0.00     0.009 C 
ENDBRANCH  15  16
ENDBRANCH  14  15
BRANCH  14  19
HETATM   19  C           1     -24.458  -3.734  -9.385  0.00  0.00     0.196 C 
HETATM   20  O           1     -25.096  -2.659  -9.347  0.00  0.00    -0.646 OA
HETATM   21  O           1     -25.006  -4.772  -9.812  0.00  0.00    -0.646 OA
ENDBRANCH  14  19
ENDBRANCH   3  14
TORSDOF 9
ENDMDL
MODEL 5
REMARK VINA RESULT:      -5.0      4.540      8.428
REMARK  9 active torsions:
REMARK  status: ('A' for Active; 'I' for Inactive)
REMARK    1  A    between atoms: C_2  and  C_8 
REMARK    2  A    between atoms: S_4  and  C_18 
REMARK    3  A    between atoms: N_7  and  C_10 
REMARK       I    between atoms: N_7  and  C_20 
REMARK    4  A    between atoms: C_8  and  C_10 
REMARK    5  A    between atoms: C_10  and  C_15 
REMARK    6  A    between atoms: N_16  and  C_21 
REMARK    7  A    between atoms: C_17  and  C_21 
REMARK    8  A    between atoms: C_17  and  C_18 
REMARK    9  A    between atoms: C_20  and  C_21 
ROOT
HETATM    1  O           1     -19.623  -8.276  -4.649  0.00  0.00    -0.271 OA
HETATM    2  H           1     -22.525  -8.251  -3.458  0.00  0.00     0.163 HD
HETATM    3  N           1     -21.541  -8.475  -3.521  0.00  0.00    -0.345 N 
HETATM    4  C           1     -20.799  -8.008  -4.573  0.00  0.00     0.249 C 
ENDROOT
BRANCH   4   5
HETATM    5  C           1     -21.450  -7.162  -5.639  0.00  0.00     0.275 C 
BRANCH   5   6
HETATM    6  N           1     -22.489  -6.281  -5.011  0.00  0.00    -0.066 N 
HETATM    7  H           1     -22.025  -5.453  -4.572  0.00  0.00     0.275 HD
HETATM    8  H           1     -23.006  -6.818  -4.279  0.00  0.00     0.275 HD
HETATM    9  H           1     -23.159  -5.957  -5.745  0.00  0.00     0.275 HD
ENDBRANCH   5   6
BRANCH   5  10
HETATM   10  C           1     -20.395  -6.298  -6.317  0.00  0.00     0.053 C 
BRANCH  10  11
HETATM   11  C           1     -20.562  -4.850  -5.874  0.00  0.00     0.076 C 
BRANCH  11  12
HETATM   12  S           1     -21.098  -3.843  -7.287  0.00  0.00    -0.173 SA
HETATM   13  C           1     -20.007  -4.622  -8.511  0.00  0.00     0.089 C 
ENDBRANCH  11  12
ENDBRANCH  10  11
ENDBRANCH   5  10
ENDBRANCH   4   5
BRANCH   3  14
HETATM   14  C           1     -20.914  -9.289  -2.498  0.00  0.00     0.185 C 
BRANCH  14  15
HETATM   15  C           1     -20.835  -8.496  -1.199  0.00  0.00     0.040 C 
BRANCH  15  16
HETATM   16  C           1     -22.204  -7.911  -0.876  0.00  0.00    -0.020 C 
HETATM   17  C           1     -22.500  -8.101   0.605  0.00  0.00     0.009 C 
HETATM   18  C           1     -22.211  -6.425  -1.210  0.00  0.00     0.009 C 
ENDBRANCH  15  16
ENDBRANCH  14  15
BRANCH  14  19
HETATM   19  C           1     -21.731 -10.538  -2.278  0.00  0.00     0.196 C 
HETATM   20  O           1     -21.448 -11.312  -1.337  0.00  0.00    -0.646 OA
HETATM   21  O           1     -22.690 -10.798  -3.035  0.00  0.00    -0.646 OA
ENDBRANCH  14  19
ENDBRANCH   3  14
TORSDOF 9
ENDMDL
MODEL 6
REMARK VINA RESULT:      -5.0      3.442      7.259
REMARK  9 active torsions:
REMARK  status: ('A' for Active; 'I' for Inactive)
REMARK    1  A    between atoms: C_2  and  C_8 
REMARK    2  A    between atoms: S_4  and  C_18 
REMARK    3  A    between atoms: N_7  and  C_10 
REMARK       I    between atoms: N_7  and  C_20 
REMARK    4  A    between atoms: C_8  and  C_10 
REMARK    5  A    between atoms: C_10  and  C_15 
REMARK    6  A    between atoms: N_16  and  C_21 
REMARK    7  A    between atoms: C_17  and  C_21 
REMARK    8  A    between atoms: C_17  and  C_18 
REMARK    9  A    between atoms: C_20  and  C_21 
ROOT
HETATM    1  O           1     -22.743  -5.878  -5.470  0.00  0.00    -0.271 OA
HETATM    2  H           1     -19.920  -6.906  -4.566  0.00  0.00     0.163 HD
HETATM    3  N           1     -20.928  -6.821  -4.572  0.00  0.00    -0.345 N 
HETATM    4  C           1     -21.539  -5.980  -5.464  0.00  0.00     0.249 C 
ENDROOT
BRANCH   4   5
HETATM    5  C           1     -20.709  -5.180  -6.436  0.00  0.00     0.275 C 
BRANCH   5   6
HETATM    6  N           1     -19.839  -6.107  -7.231  0.00  0.00    -0.066 N 
HETATM    7  H           1     -19.804  -5.785  -8.226  0.00  0.00     0.275 HD
HETATM    8  H           1     -20.233  -7.074  -7.193  0.00  0.00     0.275 HD
HETATM    9  H           1     -18.873  -6.108  -6.830  0.00  0.00     0.275 HD
ENDBRANCH   5   6
BRANCH   5  10
HETATM   10  C           1     -21.627  -4.413  -7.378  0.00  0.00     0.053 C 
BRANCH  10  11
HETATM   11  C           1     -20.971  -4.301  -8.749  0.00  0.00     0.076 C 
BRANCH  11  12
HETATM   12  S           1     -22.222  -3.847  -9.984  0.00  0.00    -0.173 SA
HETATM   13  C           1     -23.658  -4.028  -8.887  0.00  0.00     0.089 C 
ENDBRANCH  11  12
ENDBRANCH  10  11
ENDBRANCH   5  10
ENDBRANCH   4   5
BRANCH   3  14
HETATM   14  C           1     -21.727  -7.590  -3.637  0.00  0.00     0.185 C 
BRANCH  14  15
HETATM   15  C           1     -21.159  -8.999  -3.526  0.00  0.00     0.040 C 
BRANCH  15  16
HETATM   16  C           1     -19.817  -9.065  -4.243  0.00  0.00    -0.020 C 
HETATM   17  C           1     -18.708  -9.293  -3.224  0.00  0.00     0.009 C 
HETATM   18  C           1     -19.832 -10.212  -5.244  0.00  0.00     0.009 C 
ENDBRANCH  15  16
ENDBRANCH  14  15
BRANCH  14  19
HETATM   19  C           1     -21.696  -6.925  -2.284  0.00  0.00     0.196 C 
HETATM   20  O           1     -21.103  -7.475  -1.331  0.00  0.00    -0.646 OA
HETATM   21  O           1     -22.262  -5.823  -2.116  0.00  0.00    -0.646 OA
ENDBRANCH  14  19
ENDBRANCH   3  14
TORSDOF 9
ENDMDL
MODEL 7
REMARK VINA RESULT:      -4.9      5.109      8.943
REMARK  9 active torsions:
REMARK  status: ('A' for Active; 'I' for Inactive)
REMARK    1  A    between atoms: C_2  and  C_8 
REMARK    2  A    between atoms: S_4  and  C_18 
REMARK    3  A    between atoms: N_7  and  C_10 
REMARK       I    between atoms: N_7  and  C_20 
REMARK    4  A    between atoms: C_8  and  C_10 
REMARK    5  A    between atoms: C_10  and  C_15 
REMARK    6  A    between atoms: N_16  and  C_21 
REMARK    7  A    between atoms: C_17  and  C_21 
REMARK    8  A    between atoms: C_17  and  C_18 
REMARK    9  A    between atoms: C_20  and  C_21 
ROOT
HETATM    1  O           1     -21.902  -9.211  -4.021  0.00  0.00    -0.271 OA
HETATM    2  H           1     -20.199  -7.265  -2.244  0.00  0.00     0.163 HD
HETATM    3  N           1     -20.925  -7.931  -2.472  0.00  0.00    -0.345 N 
HETATM    4  C           1     -21.034  -8.415  -3.749  0.00  0.00     0.249 C 
ENDROOT
BRANCH   4   5
HETATM    5  C           1     -20.071  -7.955  -4.815  0.00  0.00     0.275 C 
BRANCH   5   6
HETATM    6  N           1     -19.531  -9.145  -5.549  0.00  0.00    -0.066 N 
HETATM    7  H           1     -20.066  -9.999  -5.269  0.00  0.00     0.275 HD
HETATM    8  H           1     -18.522  -9.274  -5.310  0.00  0.00     0.275 HD
HETATM    9  H           1     -19.630  -8.994  -6.579  0.00  0.00     0.275 HD
ENDBRANCH   5   6
BRANCH   5  10
HETATM   10  C           1     -20.796  -7.041  -5.794  0.00  0.00     0.053 C 
BRANCH  10  11
HETATM   11  C           1     -20.765  -5.610  -5.272  0.00  0.00     0.076 C 
BRANCH  11  12
HETATM   12  S           1     -20.929  -4.454  -6.663  0.00  0.00    -0.173 SA
HETATM   13  C           1     -19.256  -4.701  -7.324  0.00  0.00     0.089 C 
ENDBRANCH  11  12
ENDBRANCH  10  11
ENDBRANCH   5  10
ENDBRANCH   4   5
BRANCH   3  14
HETATM   14  C           1     -21.851  -8.375  -1.448  0.00  0.00     0.185 C 
BRANCH  14  15
HETATM   15  C           1     -21.089  -9.144  -0.376  0.00  0.00     0.040 C 
BRANCH  15  16
HETATM   16  C           1     -21.446 -10.622  -0.460  0.00  0.00    -0.020 C 
HETATM   17  C           1     -20.909 -11.344   0.769  0.00  0.00     0.009 C 
HETATM   18  C           1     -22.960 -10.775  -0.519  0.00  0.00     0.009 C 
ENDBRANCH  15  16
ENDBRANCH  14  15
BRANCH  14  19
HETATM   19  C           1     -22.524  -7.177  -0.827  0.00  0.00     0.196 C 
HETATM   20  O           1     -22.377  -6.044  -1.334  0.00  0.00    -0.646 OA
HETATM   21  O           1     -23.230  -7.317   0.195  0.00  0.00    -0.646 OA
ENDBRANCH  14  19
ENDBRANCH   3  14
TORSDOF 9
ENDMDL
MODEL 8
REMARK VINA RESULT:      -4.9      6.835      8.765
REMARK  9 active torsions:
REMARK  status: ('A' for Active; 'I' for Inactive)
REMARK    1  A    between atoms: C_2  and  C_8 
REMARK    2  A    between atoms: S_4  and  C_18 
REMARK    3  A    between atoms: N_7  and  C_10 
REMARK       I    between atoms: N_7  and  C_20 
REMARK    4  A    between atoms: C_8  and  C_10 
REMARK    5  A    between atoms: C_10  and  C_15 
REMARK    6  A    between atoms: N_16  and  C_21 
REMARK    7  A    between atoms: C_17  and  C_21 
REMARK    8  A    between atoms: C_17  and  C_18 
REMARK    9  A    between atoms: C_20  and  C_21 
ROOT
HETATM    1  O           1     -21.830 -10.378  -3.261  0.00  0.00    -0.271 OA
HETATM    2  H           1     -19.878  -7.929  -3.439  0.00  0.00     0.163 HD
HETATM    3  N           1     -20.681  -8.466  -3.141  0.00  0.00    -0.345 N 
HETATM    4  C           1     -20.869  -9.737  -3.616  0.00  0.00     0.249 C 
ENDROOT
BRANCH   4   5
HETATM    5  C           1     -19.878 -10.334  -4.584  0.00  0.00     0.275 C 
BRANCH   5   6
HETATM    6  N           1     -20.481 -10.371  -5.957  0.00  0.00    -0.066 N 
HETATM    7  H           1     -21.430 -10.806  -5.909  0.00  0.00     0.275 HD
HETATM    8  H           1     -19.871 -10.935  -6.591  0.00  0.00     0.275 HD
HETATM    9  H           1     -20.561  -9.396  -6.327  0.00  0.00     0.275 HD
ENDBRANCH   5   6
BRANCH   5  10
HETATM   10  C           1     -18.614  -9.486  -4.606  0.00  0.00     0.053 C 
BRANCH  10  11
HETATM   11  C           1     -17.844  -9.756  -5.893  0.00  0.00     0.076 C 
BRANCH  11  12
HETATM   12  S           1     -16.137 -10.227  -5.489  0.00  0.00    -0.173 SA
HETATM   13  C           1     -16.186  -9.681  -3.758  0.00  0.00     0.089 C 
ENDBRANCH  11  12
ENDBRANCH  10  11
ENDBRANCH   5  10
ENDBRANCH   4   5
BRANCH   3  14
HETATM   14  C           1     -21.634  -7.892  -2.211  0.00  0.00     0.185 C 
BRANCH  14  15
HETATM   15  C           1     -21.016  -7.842  -0.820  0.00  0.00     0.040 C 
BRANCH  15  16
HETATM   16  C           1     -21.799  -8.753   0.118  0.00  0.00    -0.020 C 
HETATM   17  C           1     -21.016  -8.944   1.410  0.00  0.00     0.009 C 
HETATM   18  C           1     -23.149  -8.121   0.428  0.00  0.00     0.009 C 
ENDBRANCH  15  16
ENDBRANCH  14  15
BRANCH  14  19
HETATM   19  C           1     -21.991  -6.495  -2.655  0.00  0.00     0.196 C 
HETATM   20  O           1     -22.336  -5.640  -1.810  0.00  0.00    -0.646 OA
HETATM   21  O           1     -21.940  -6.192  -3.866  0.00  0.00    -0.646 OA
ENDBRANCH  14  19
ENDBRANCH   3  14
TORSDOF 9
ENDMDL
MODEL 9
REMARK VINA RESULT:      -4.9      5.539      9.056
REMARK  9 active torsions:
REMARK  status: ('A' for Active; 'I' for Inactive)
REMARK    1  A    between atoms: C_2  and  C_8 
REMARK    2  A    between atoms: S_4  and  C_18 
REMARK    3  A    between atoms: N_7  and  C_10 
REMARK       I    between atoms: N_7  and  C_20 
REMARK    4  A    between atoms: C_8  and  C_10 
REMARK    5  A    between atoms: C_10  and  C_15 
REMARK    6  A    between atoms: N_16  and  C_21 
REMARK    7  A    between atoms: C_17  and  C_21 
REMARK    8  A    between atoms: C_17  and  C_18 
REMARK    9  A    between atoms: C_20  and  C_21 
ROOT
HETATM    1  O           1     -18.925  -8.938  -3.104  0.00  0.00    -0.271 OA
HETATM    2  H           1     -22.024  -9.394  -2.930  0.00  0.00     0.163 HD
HETATM    3  N           1     -21.061  -9.378  -2.621  0.00  0.00    -0.345 N 
HETATM    4  C           1     -20.075  -8.956  -3.474  0.00  0.00     0.249 C 
ENDROOT
BRANCH   4   5
HETATM    5  C           1     -20.426  -8.515  -4.873  0.00  0.00     0.275 C 
BRANCH   5   6
HETATM    6  N           1     -20.771  -9.715  -5.703  0.00  0.00    -0.066 N 
HETATM    7  H           1     -20.824  -9.439  -6.710  0.00  0.00     0.275 HD
HETATM    8  H           1     -21.696 -10.096  -5.399  0.00  0.00     0.275 HD
HETATM    9  H           1     -20.035 -10.447  -5.580  0.00  0.00     0.275 HD
ENDBRANCH   5   6
BRANCH   5  10
HETATM   10  C           1     -21.620  -7.571  -4.824  0.00  0.00     0.053 C 
BRANCH  10  11
HETATM   11  C           1     -21.129  -6.129  -4.870  0.00  0.00     0.076 C 
BRANCH  11  12
HETATM   12  S           1     -21.501  -5.415  -6.498  0.00  0.00    -0.173 SA
HETATM   13  C           1     -19.818  -5.556  -7.165  0.00  0.00     0.089 C 
ENDBRANCH  11  12
ENDBRANCH  10  11
ENDBRANCH   5  10
ENDBRANCH   4   5
BRANCH   3  14
HETATM   14  C           1     -20.722  -9.802  -1.276  0.00  0.00     0.185 C 
BRANCH  14  15
HETATM   15  C           1     -21.028  -8.675  -0.299  0.00  0.00     0.040 C 
BRANCH  15  16
HETATM   16  C           1     -22.390  -8.075  -0.624  0.00  0.00    -0.020 C 
HETATM   17  C           1     -23.246  -8.048   0.636  0.00  0.00     0.009 C 
HETATM   18  C           1     -22.208  -6.656  -1.146  0.00  0.00     0.009 C 
ENDBRANCH  15  16
ENDBRANCH  14  15
BRANCH  14  19
HETATM   19  C           1     -21.536 -11.019  -0.913  0.00  0.00     0.196 C 
HETATM   20  O           1     -21.614 -11.386   0.280  0.00  0.00    -0.646 OA
HETATM   21  O           1     -22.133 -11.660  -1.804  0.00  0.00    -0.646 OA
ENDBRANCH  14  19
ENDBRANCH   3  14
TORSDOF 9
ENDMDL
