MODEL 1
REMARK VINA RESULT:      -6.3      0.000      0.000
REMARK  8 active torsions:
REMARK  status: ('A' for Active; 'I' for Inactive)
REMARK    1  A    between atoms: C_1  and  C_14 
REMARK    2  A    between atoms: C_4  and  C_21 
REMARK    3  A    between atoms: C_7  and  C_20 
REMARK    4  A    between atoms: C_9  and  C_10 
REMARK    5  A    between atoms: C_9  and  C_20 
REMARK    6  A    between atoms: C_9  and  N_12 
REMARK       I    between atoms: C_10  and  N_11 
REMARK    7  A    between atoms: N_11  and  C_21 
REMARK    8  A    between atoms: C_14  and  C_21 
ROOT
HETATM    1  C           1     -36.563  -0.342 -13.552  0.00  0.00     0.249 C 
HETATM    2  N           1     -35.790  -0.517 -12.436  0.00  0.00    -0.344 N 
HETATM    3  O           1     -37.709  -0.724 -13.559  0.00  0.00    -0.271 OA
HETATM    4  H           1     -34.829  -0.198 -12.431  0.00  0.00     0.163 HD
ENDROOT
BRANCH   1   5
HETATM    5  C           1     -35.983   0.329 -14.774  0.00  0.00     0.284 C 
BRANCH   5   6
HETATM    6  C           1     -36.184  -0.569 -15.988  0.00  0.00     0.155 C 
BRANCH   6   7
HETATM    7  C           1     -35.119  -1.638 -16.006  0.00  0.00     0.175 C 
HETATM    8  O           1     -34.946  -2.365 -15.005  0.00  0.00    -0.648 OA
HETATM    9  O           1     -34.411  -1.798 -17.024  0.00  0.00    -0.648 OA
ENDBRANCH   6   7
ENDBRANCH   5   6
BRANCH   5  10
HETATM   10  N           1     -34.517   0.565 -14.564  0.00  0.00    -0.066 N 
HETATM   11  H           1     -33.969  -0.146 -15.100  0.00  0.00     0.275 HD
HETATM   12  H           1     -34.267   1.522 -14.901  0.00  0.00     0.275 HD
HETATM   13  H           1     -34.292   0.482 -13.547  0.00  0.00     0.275 HD
ENDBRANCH   5  10
ENDBRANCH   1   5
BRANCH   2  14
HETATM   14  C           1     -36.345  -1.161 -11.262  0.00  0.00     0.189 C 
BRANCH  14  15
HETATM   15  C           1     -36.733  -0.111 -10.250  0.00  0.00     0.197 C 
HETATM   16  O           1     -36.110  -0.024  -9.170  0.00  0.00    -0.646 OA
HETATM   17  O           1     -37.678   0.672 -10.492  0.00  0.00    -0.646 OA
ENDBRANCH  14  15
BRANCH  14  18
HETATM   18  C           1     -35.305  -2.093 -10.655  0.00  0.00     0.014 C 
HETATM   19  C           1     -35.748  -3.537 -10.841  0.00  0.00     0.012 C 
BRANCH  18  20
HETATM   20  C           1     -33.966  -1.878 -11.347  0.00  0.00     0.002 C 
HETATM   21  C           1     -33.165  -3.173 -11.318  0.00  0.00     0.005 C 
ENDBRANCH  18  20
ENDBRANCH  14  18
ENDBRANCH   2  14
TORSDOF 8
ENDMDL
MODEL 2
REMARK VINA RESULT:      -6.3      1.794      2.276
REMARK  8 active torsions:
REMARK  status: ('A' for Active; 'I' for Inactive)
REMARK    1  A    between atoms: C_1  and  C_14 
REMARK    2  A    between atoms: C_4  and  C_21 
REMARK    3  A    between atoms: C_7  and  C_20 
REMARK    4  A    between atoms: C_9  and  C_10 
REMARK    5  A    between atoms: C_9  and  C_20 
REMARK    6  A    between atoms: C_9  and  N_12 
REMARK       I    between atoms: C_10  and  N_11 
REMARK    7  A    between atoms: N_11  and  C_21 
REMARK    8  A    between atoms: C_14  and  C_21 
ROOT
HETATM    1  C           1     -35.541  -0.955 -13.480  0.00  0.00     0.249 C 
HETATM    2  N           1     -34.829  -1.519 -12.455  0.00  0.00    -0.344 N 
HETATM    3  O           1     -36.731  -1.141 -13.562  0.00  0.00    -0.271 OA
HETATM    4  H           1     -33.831  -1.364 -12.386  0.00  0.00     0.163 HD
ENDROOT
BRANCH   1   5
HETATM    5  C           1     -34.837  -0.102 -14.506  0.00  0.00     0.284 C 
BRANCH   5   6
HETATM    6  C           1     -35.430   1.302 -14.491  0.00  0.00     0.155 C 
BRANCH   6   7
HETATM    7  C           1     -36.238   1.520 -15.747  0.00  0.00     0.175 C 
HETATM    8  O           1     -37.310   0.901 -15.916  0.00  0.00    -0.648 OA
HETATM    9  O           1     -35.836   2.322 -16.618  0.00  0.00    -0.648 OA
ENDBRANCH   6   7
ENDBRANCH   5   6
BRANCH   5  10
HETATM   10  N           1     -35.018  -0.706 -15.867  0.00  0.00    -0.066 N 
HETATM   11  H           1     -34.517  -0.124 -16.577  0.00  0.00     0.275 HD
HETATM   12  H           1     -34.627  -1.675 -15.872  0.00  0.00     0.275 HD
HETATM   13  H           1     -36.036  -0.739 -16.101  0.00  0.00     0.275 HD
ENDBRANCH   5  10
ENDBRANCH   1   5
BRANCH   2  14
HETATM   14  C           1     -35.504  -2.340 -11.469  0.00  0.00     0.189 C 
BRANCH  14  15
HETATM   15  C           1     -36.249  -1.452 -10.502  0.00  0.00     0.197 C 
HETATM   16  O           1     -37.498  -1.425 -10.514  0.00  0.00    -0.646 OA
HETATM   17  O           1     -35.616  -0.744  -9.689  0.00  0.00    -0.646 OA
ENDBRANCH  14  15
BRANCH  14  18
HETATM   18  C           1     -34.476  -3.168 -10.710  0.00  0.00     0.014 C 
HETATM   19  C           1     -34.861  -4.640 -10.778  0.00  0.00     0.012 C 
BRANCH  18  20
HETATM   20  C           1     -33.102  -2.972 -11.337  0.00  0.00     0.002 C 
HETATM   21  C           1     -32.640  -4.278 -11.969  0.00  0.00     0.005 C 
ENDBRANCH  18  20
ENDBRANCH  14  18
ENDBRANCH   2  14
TORSDOF 8
ENDMDL
MODEL 3
REMARK VINA RESULT:      -6.3     13.294     15.635
REMARK  8 active torsions:
REMARK  status: ('A' for Active; 'I' for Inactive)
REMARK    1  A    between atoms: C_1  and  C_14 
REMARK    2  A    between atoms: C_4  and  C_21 
REMARK    3  A    between atoms: C_7  and  C_20 
REMARK    4  A    between atoms: C_9  and  C_10 
REMARK    5  A    between atoms: C_9  and  C_20 
REMARK    6  A    between atoms: C_9  and  N_12 
REMARK       I    between atoms: C_10  and  N_11 
REMARK    7  A    between atoms: N_11  and  C_21 
REMARK    8  A    between atoms: C_14  and  C_21 
ROOT
HETATM    1  C           1     -21.764  -4.544  -7.797  0.00  0.00     0.249 C 
HETATM    2  N           1     -22.362  -4.843  -8.992  0.00  0.00    -0.344 N 
HETATM    3  O           1     -21.697  -3.397  -7.426  0.00  0.00    -0.271 OA
HETATM    4  H           1     -22.417  -5.804  -9.304  0.00  0.00     0.163 HD
ENDROOT
BRANCH   1   5
HETATM    5  C           1     -21.187  -5.648  -6.945  0.00  0.00     0.284 C 
BRANCH   5   6
HETATM    6  C           1     -20.894  -5.112  -5.550  0.00  0.00     0.155 C 
BRANCH   6   7
HETATM    7  C           1     -21.136  -6.198  -4.531  0.00  0.00     0.175 C 
HETATM    8  O           1     -21.939  -6.008  -3.593  0.00  0.00    -0.648 OA
HETATM    9  O           1     -20.535  -7.291  -4.627  0.00  0.00    -0.648 OA
ENDBRANCH   6   7
ENDBRANCH   5   6
BRANCH   5  10
HETATM   10  N           1     -19.916  -6.146  -7.566  0.00  0.00    -0.066 N 
HETATM   11  H           1     -20.141  -6.871  -8.287  0.00  0.00     0.275 HD
HETATM   12  H           1     -19.415  -5.350  -8.019  0.00  0.00     0.275 HD
HETATM   13  H           1     -19.309  -6.568  -6.828  0.00  0.00     0.275 HD
ENDBRANCH   5  10
ENDBRANCH   1   5
BRANCH   2  14
HETATM   14  C           1     -22.915  -3.783  -9.811  0.00  0.00     0.189 C 
BRANCH  14  15
HETATM   15  C           1     -24.421  -3.798  -9.702  0.00  0.00     0.197 C 
HETATM   16  O           1     -25.040  -2.741  -9.456  0.00  0.00    -0.646 OA
HETATM   17  O           1     -25.047  -4.869  -9.858  0.00  0.00    -0.646 OA
ENDBRANCH  14  15
BRANCH  14  18
HETATM   18  C           1     -22.509  -4.000 -11.263  0.00  0.00     0.014 C 
HETATM   19  C           1     -22.886  -2.774 -12.083  0.00  0.00     0.012 C 
BRANCH  18  20
HETATM   20  C           1     -21.004  -4.222 -11.340  0.00  0.00     0.002 C 
HETATM   21  C           1     -20.284  -2.891 -11.162  0.00  0.00     0.005 C 
ENDBRANCH  18  20
ENDBRANCH  14  18
ENDBRANCH   2  14
TORSDOF 8
ENDMDL
MODEL 4
REMARK VINA RESULT:      -6.0      2.813      4.844
REMARK  8 active torsions:
REMARK  status: ('A' for Active; 'I' for Inactive)
REMARK    1  A    between atoms: C_1  and  C_14 
REMARK    2  A    between atoms: C_4  and  C_21 
REMARK    3  A    between atoms: C_7  and  C_20 
REMARK    4  A    between atoms: C_9  and  C_10 
REMARK    5  A    between atoms: C_9  and  C_20 
REMARK    6  A    between atoms: C_9  and  N_12 
REMARK       I    between atoms: C_10  and  N_11 
REMARK    7  A    between atoms: N_11  and  C_21 
REMARK    8  A    between atoms: C_14  and  C_21 
ROOT
HETATM    1  C           1     -34.459  -2.446 -11.698  0.00  0.00     0.249 C 
HETATM    2  N           1     -35.462  -1.735 -12.301  0.00  0.00    -0.344 N 
HETATM    3  O           1     -33.704  -1.893 -10.934  0.00  0.00    -0.271 OA
HETATM    4  H           1     -36.095  -2.198 -12.942  0.00  0.00     0.163 HD
ENDROOT
BRANCH   1   5
HETATM    5  C           1     -34.298  -3.918 -11.987  0.00  0.00     0.284 C 
BRANCH   5   6
HETATM    6  C           1     -33.973  -4.656 -10.695  0.00  0.00     0.155 C 
BRANCH   6   7
HETATM    7  C           1     -34.528  -6.058 -10.763  0.00  0.00     0.175 C 
HETATM    8  O           1     -34.960  -6.507 -11.846  0.00  0.00    -0.648 OA
HETATM    9  O           1     -34.554  -6.771  -9.736  0.00  0.00    -0.648 OA
ENDBRANCH   6   7
ENDBRANCH   5   6
BRANCH   5  10
HETATM   10  N           1     -33.181  -4.114 -12.969  0.00  0.00    -0.066 N 
HETATM   11  H           1     -33.163  -5.112 -13.283  0.00  0.00     0.275 HD
HETATM   12  H           1     -33.331  -3.492 -13.795  0.00  0.00     0.275 HD
HETATM   13  H           1     -32.271  -3.877 -12.514  0.00  0.00     0.275 HD
ENDBRANCH   5  10
ENDBRANCH   1   5
BRANCH   2  14
HETATM   14  C           1     -35.617  -0.321 -12.024  0.00  0.00     0.189 C 
BRANCH  14  15
HETATM   15  C           1     -36.772  -0.120 -11.073  0.00  0.00     0.197 C 
HETATM   16  O           1     -36.675   0.705 -10.139  0.00  0.00    -0.646 OA
HETATM   17  O           1     -37.824  -0.779 -11.219  0.00  0.00    -0.646 OA
ENDBRANCH  14  15
BRANCH  14  18
HETATM   18  C           1     -35.895   0.423 -13.324  0.00  0.00     0.014 C 
HETATM   19  C           1     -34.617   1.096 -13.805  0.00  0.00     0.012 C 
BRANCH  18  20
HETATM   20  C           1     -36.379  -0.563 -14.379  0.00  0.00     0.002 C 
HETATM   21  C           1     -35.749  -0.219 -15.722  0.00  0.00     0.005 C 
ENDBRANCH  18  20
ENDBRANCH  14  18
ENDBRANCH   2  14
TORSDOF 8
ENDMDL
MODEL 5
REMARK VINA RESULT:      -6.0      3.726      4.849
REMARK  8 active torsions:
REMARK  status: ('A' for Active; 'I' for Inactive)
REMARK    1  A    between atoms: C_1  and  C_14 
REMARK    2  A    between atoms: C_4  and  C_21 
REMARK    3  A    between atoms: C_7  and  C_20 
REMARK    4  A    between atoms: C_9  and  C_10 
REMARK    5  A    between atoms: C_9  and  C_20 
REMARK    6  A    between atoms: C_9  and  N_12 
REMARK       I    between atoms: C_10  and  N_11 
REMARK    7  A    between atoms: N_11  and  C_21 
REMARK    8  A    between atoms: C_14  and  C_21 
ROOT
HETATM    1  C           1     -33.935  -4.520 -15.415  0.00  0.00     0.249 C 
HETATM    2  N           1     -33.471  -3.990 -14.240  0.00  0.00    -0.344 N 
HETATM    3  O           1     -35.041  -5.003 -15.464  0.00  0.00    -0.271 OA
HETATM    4  H           1     -32.544  -3.585 -14.198  0.00  0.00     0.163 HD
ENDROOT
BRANCH   1   5
HETATM    5  C           1     -33.064  -4.500 -16.647  0.00  0.00     0.284 C 
BRANCH   5   6
HETATM    6  C           1     -31.614  -4.744 -16.247  0.00  0.00     0.155 C 
BRANCH   6   7
HETATM    7  C           1     -30.972  -5.688 -17.233  0.00  0.00     0.175 C 
HETATM    8  O           1     -30.083  -5.274 -18.007  0.00  0.00    -0.648 OA
HETATM    9  O           1     -31.327  -6.886 -17.274  0.00  0.00    -0.648 OA
ENDBRANCH   6   7
ENDBRANCH   5   6
BRANCH   5  10
HETATM   10  N           1     -33.179  -3.163 -17.317  0.00  0.00    -0.066 N 
HETATM   11  H           1     -32.250  -2.892 -17.716  0.00  0.00     0.275 HD
HETATM   12  H           1     -33.884  -3.219 -18.086  0.00  0.00     0.275 HD
HETATM   13  H           1     -33.479  -2.447 -16.618  0.00  0.00     0.275 HD
ENDBRANCH   5  10
ENDBRANCH   1   5
BRANCH   2  14
HETATM   14  C           1     -34.307  -4.009 -13.056  0.00  0.00     0.189 C 
BRANCH  14  15
HETATM   15  C           1     -34.991  -2.672 -12.903  0.00  0.00     0.197 C 
HETATM   16  O           1     -34.754  -1.753 -13.716  0.00  0.00    -0.646 OA
HETATM   17  O           1     -35.792  -2.484 -11.962  0.00  0.00    -0.646 OA
ENDBRANCH  14  15
BRANCH  14  18
HETATM   18  C           1     -33.445  -4.282 -11.831  0.00  0.00     0.014 C 
HETATM   19  C           1     -32.886  -2.969 -11.301  0.00  0.00     0.012 C 
BRANCH  18  20
HETATM   20  C           1     -34.291  -4.947 -10.753  0.00  0.00     0.002 C 
HETATM   21  C           1     -34.060  -6.452 -10.783  0.00  0.00     0.005 C 
ENDBRANCH  18  20
ENDBRANCH  14  18
ENDBRANCH   2  14
TORSDOF 8
ENDMDL
MODEL 6
REMARK VINA RESULT:      -5.7     12.179     13.866
REMARK  8 active torsions:
REMARK  status: ('A' for Active; 'I' for Inactive)
REMARK    1  A    between atoms: C_1  and  C_14 
REMARK    2  A    between atoms: C_4  and  C_21 
REMARK    3  A    between atoms: C_7  and  C_20 
REMARK    4  A    between atoms: C_9  and  C_10 
REMARK    5  A    between atoms: C_9  and  C_20 
REMARK    6  A    between atoms: C_9  and  N_12 
REMARK       I    between atoms: C_10  and  N_11 
REMARK    7  A    between atoms: N_11  and  C_21 
REMARK    8  A    between atoms: C_14  and  C_21 
ROOT
HETATM    1  C           1     -23.425  -4.661 -11.554  0.00  0.00     0.249 C 
HETATM    2  N           1     -22.539  -4.113 -10.666  0.00  0.00    -0.344 N 
HETATM    3  O           1     -23.846  -5.779 -11.374  0.00  0.00    -0.271 OA
HETATM    4  H           1     -22.185  -3.176 -10.816  0.00  0.00     0.163 HD
ENDROOT
BRANCH   1   5
HETATM    5  C           1     -23.876  -3.869 -12.756  0.00  0.00     0.284 C 
BRANCH   5   6
HETATM    6  C           1     -22.748  -2.951 -13.210  0.00  0.00     0.155 C 
BRANCH   6   7
HETATM    7  C           1     -23.062  -2.408 -14.583  0.00  0.00     0.175 C 
HETATM    8  O           1     -24.002  -1.600 -14.735  0.00  0.00    -0.648 OA
HETATM    9  O           1     -22.379  -2.765 -15.568  0.00  0.00    -0.648 OA
ENDBRANCH   6   7
ENDBRANCH   5   6
BRANCH   5  10
HETATM   10  N           1     -25.074  -3.044 -12.390  0.00  0.00    -0.066 N 
HETATM   11  H           1     -25.702  -2.953 -13.222  0.00  0.00     0.275 HD
HETATM   12  H           1     -25.593  -3.511 -11.613  0.00  0.00     0.275 HD
HETATM   13  H           1     -24.764  -2.095 -12.084  0.00  0.00     0.275 HD
ENDBRANCH   5  10
ENDBRANCH   1   5
BRANCH   2  14
HETATM   14  C           1     -22.106  -4.874  -9.510  0.00  0.00     0.189 C 
BRANCH  14  15
HETATM   15  C           1     -22.713  -4.280  -8.262  0.00  0.00     0.197 C 
HETATM   16  O           1     -23.436  -3.264  -8.342  0.00  0.00    -0.646 OA
HETATM   17  O           1     -22.493  -4.806  -7.149  0.00  0.00    -0.646 OA
ENDBRANCH  14  15
BRANCH  14  18
HETATM   18  C           1     -20.587  -4.822  -9.410  0.00  0.00     0.014 C 
HETATM   19  C           1     -20.003  -4.440 -10.763  0.00  0.00     0.012 C 
BRANCH  18  20
HETATM   20  C           1     -20.182  -3.786  -8.369  0.00  0.00     0.002 C 
HETATM   21  C           1     -19.023  -4.325  -7.540  0.00  0.00     0.005 C 
ENDBRANCH  18  20
ENDBRANCH  14  18
ENDBRANCH   2  14
TORSDOF 8
ENDMDL
MODEL 7
REMARK VINA RESULT:      -5.5     15.219     17.186
REMARK  8 active torsions:
REMARK  status: ('A' for Active; 'I' for Inactive)
REMARK    1  A    between atoms: C_1  and  C_14 
REMARK    2  A    between atoms: C_4  and  C_21 
REMARK    3  A    between atoms: C_7  and  C_20 
REMARK    4  A    between atoms: C_9  and  C_10 
REMARK    5  A    between atoms: C_9  and  C_20 
REMARK    6  A    between atoms: C_9  and  N_12 
REMARK       I    between atoms: C_10  and  N_11 
REMARK    7  A    between atoms: N_11  and  C_21 
REMARK    8  A    between atoms: C_14  and  C_21 
ROOT
HETATM    1  C           1     -21.132  -5.280  -6.143  0.00  0.00     0.249 C 
HETATM    2  N           1     -21.553  -6.442  -5.554  0.00  0.00    -0.344 N 
HETATM    3  O           1     -20.010  -4.878  -5.950  0.00  0.00    -0.271 OA
HETATM    4  H           1     -22.494  -6.779  -5.715  0.00  0.00     0.163 HD
ENDROOT
BRANCH   1   5
HETATM    5  C           1     -22.071  -4.501  -7.031  0.00  0.00     0.284 C 
BRANCH   5   6
HETATM    6  C           1     -22.093  -5.128  -8.419  0.00  0.00     0.155 C 
BRANCH   6   7
HETATM    7  C           1     -21.358  -4.233  -9.387  0.00  0.00     0.175 C 
HETATM    8  O           1     -20.110  -4.262  -9.441  0.00  0.00    -0.648 OA
HETATM    9  O           1     -21.998  -3.464 -10.137  0.00  0.00    -0.648 OA
ENDBRANCH   6   7
ENDBRANCH   5   6
BRANCH   5  10
HETATM   10  N           1     -21.601  -3.081  -7.131  0.00  0.00    -0.066 N 
HETATM   11  H           1     -20.685  -2.981  -6.635  0.00  0.00     0.275 HD
HETATM   12  H           1     -21.482  -2.824  -8.137  0.00  0.00     0.275 HD
HETATM   13  H           1     -22.306  -2.448  -6.690  0.00  0.00     0.275 HD
ENDBRANCH   5  10
ENDBRANCH   1   5
BRANCH   2  14
HETATM   14  C           1     -20.651  -7.191  -4.700  0.00  0.00     0.189 C 
BRANCH  14  15
HETATM   15  C           1     -20.229  -8.457  -5.405  0.00  0.00     0.197 C 
HETATM   16  O           1     -19.024  -8.646  -5.680  0.00  0.00    -0.646 OA
HETATM   17  O           1     -21.084  -9.316  -5.713  0.00  0.00    -0.646 OA
ENDBRANCH  14  15
BRANCH  14  18
HETATM   18  C           1     -21.361  -7.545  -3.401  0.00  0.00     0.014 C 
HETATM   19  C           1     -20.381  -8.229  -2.458  0.00  0.00     0.012 C 
BRANCH  18  20
HETATM   20  C           1     -21.891  -6.274  -2.749  0.00  0.00     0.002 C 
HETATM   21  C           1     -22.279  -6.566  -1.306  0.00  0.00     0.005 C 
ENDBRANCH  18  20
ENDBRANCH  14  18
ENDBRANCH   2  14
TORSDOF 8
ENDMDL
MODEL 8
REMARK VINA RESULT:      -5.3      8.800     11.066
REMARK  8 active torsions:
REMARK  status: ('A' for Active; 'I' for Inactive)
REMARK    1  A    between atoms: C_1  and  C_14 
REMARK    2  A    between atoms: C_4  and  C_21 
REMARK    3  A    between atoms: C_7  and  C_20 
REMARK    4  A    between atoms: C_9  and  C_10 
REMARK    5  A    between atoms: C_9  and  C_20 
REMARK    6  A    between atoms: C_9  and  N_12 
REMARK       I    between atoms: C_10  and  N_11 
REMARK    7  A    between atoms: N_11  and  C_21 
REMARK    8  A    between atoms: C_14  and  C_21 
ROOT
HETATM    1  C           1     -29.299  -6.940 -17.529  0.00  0.00     0.249 C 
HETATM    2  N           1     -28.140  -6.255 -17.780  0.00  0.00    -0.344 N 
HETATM    3  O           1     -29.257  -8.113 -17.247  0.00  0.00    -0.271 OA
HETATM    4  H           1     -28.175  -5.272 -18.018  0.00  0.00     0.163 HD
ENDROOT
BRANCH   1   5
HETATM    5  C           1     -30.627  -6.228 -17.606  0.00  0.00     0.284 C 
BRANCH   5   6
HETATM    6  C           1     -30.694  -5.160 -16.522  0.00  0.00     0.155 C 
BRANCH   6   7
HETATM    7  C           1     -31.753  -4.146 -16.879  0.00  0.00     0.175 C 
HETATM    8  O           1     -32.927  -4.301 -16.480  0.00  0.00    -0.648 OA
HETATM    9  O           1     -31.455  -3.149 -17.573  0.00  0.00    -0.648 OA
ENDBRANCH   6   7
ENDBRANCH   5   6
BRANCH   5  10
HETATM   10  N           1     -31.736  -7.218 -17.402  0.00  0.00    -0.066 N 
HETATM   11  H           1     -32.386  -7.187 -18.221  0.00  0.00     0.275 HD
HETATM   12  H           1     -31.333  -8.178 -17.313  0.00  0.00     0.275 HD
HETATM   13  H           1     -32.262  -6.977 -16.532  0.00  0.00     0.275 HD
ENDBRANCH   5  10
ENDBRANCH   1   5
BRANCH   2  14
HETATM   14  C           1     -26.863  -6.938 -17.707  0.00  0.00     0.189 C 
BRANCH  14  15
HETATM   15  C           1     -26.220  -6.657 -16.371  0.00  0.00     0.197 C 
HETATM   16  O           1     -25.530  -5.627 -16.214  0.00  0.00    -0.646 OA
HETATM   17  O           1     -26.378  -7.455 -15.422  0.00  0.00    -0.646 OA
ENDBRANCH  14  15
BRANCH  14  18
HETATM   18  C           1     -25.956  -6.437 -18.823  0.00  0.00     0.014 C 
HETATM   19  C           1     -24.614  -7.151 -18.744  0.00  0.00     0.012 C 
BRANCH  18  20
HETATM   20  C           1     -26.605  -6.721 -20.171  0.00  0.00     0.002 C 
HETATM   21  C           1     -25.740  -7.699 -20.955  0.00  0.00     0.005 C 
ENDBRANCH  18  20
ENDBRANCH  14  18
ENDBRANCH   2  14
TORSDOF 8
ENDMDL
MODEL 9
REMARK VINA RESULT:      -5.3     17.360     19.406
REMARK  8 active torsions:
REMARK  status: ('A' for Active; 'I' for Inactive)
REMARK    1  A    between atoms: C_1  and  C_14 
REMARK    2  A    between atoms: C_4  and  C_21 
REMARK    3  A    between atoms: C_7  and  C_20 
REMARK    4  A    between atoms: C_9  and  C_10 
REMARK    5  A    between atoms: C_9  and  C_20 
REMARK    6  A    between atoms: C_9  and  N_12 
REMARK       I    between atoms: C_10  and  N_11 
REMARK    7  A    between atoms: N_11  and  C_21 
REMARK    8  A    between atoms: C_14  and  C_21 
ROOT
HETATM    1  C           1     -21.299  -7.851  -2.785  0.00  0.00     0.249 C 
HETATM    2  N           1     -21.545  -9.054  -2.180  0.00  0.00    -0.344 N 
HETATM    3  O           1     -20.777  -6.957  -2.163  0.00  0.00    -0.271 OA
HETATM    4  H           1     -21.982  -9.803  -2.701  0.00  0.00     0.163 HD
ENDROOT
BRANCH   1   5
HETATM    5  C           1     -21.679  -7.643  -4.231  0.00  0.00     0.284 C 
BRANCH   5   6
HETATM    6  C           1     -20.418  -7.597  -5.085  0.00  0.00     0.155 C 
BRANCH   6   7
HETATM    7  C           1     -20.480  -6.406  -6.010  0.00  0.00     0.175 C 
HETATM    8  O           1     -20.007  -5.308  -5.647  0.00  0.00    -0.648 OA
HETATM    9  O           1     -21.002  -6.518  -7.140  0.00  0.00    -0.648 OA
ENDBRANCH   6   7
ENDBRANCH   5   6
BRANCH   5  10
HETATM   10  N           1     -22.424  -6.348  -4.369  0.00  0.00    -0.066 N 
HETATM   11  H           1     -23.453  -6.532  -4.329  0.00  0.00     0.275 HD
HETATM   12  H           1     -22.155  -5.707  -3.590  0.00  0.00     0.275 HD
HETATM   13  H           1     -22.186  -5.906  -5.285  0.00  0.00     0.275 HD
ENDBRANCH   5  10
ENDBRANCH   1   5
BRANCH   2  14
HETATM   14  C           1     -21.180  -9.255  -0.791  0.00  0.00     0.189 C 
BRANCH  14  15
HETATM   15  C           1     -20.246 -10.435  -0.683  0.00  0.00     0.197 C 
HETATM   16  O           1     -19.608 -10.820  -1.686  0.00  0.00    -0.646 OA
HETATM   17  O           1     -20.111 -11.027   0.410  0.00  0.00    -0.646 OA
ENDBRANCH  14  15
BRANCH  14  18
HETATM   18  C           1     -22.435  -9.523   0.029  0.00  0.00     0.014 C 
HETATM   19  C           1     -23.105  -8.201   0.378  0.00  0.00     0.012 C 
BRANCH  18  20
HETATM   20  C           1     -23.397 -10.382  -0.782  0.00  0.00     0.002 C 
HETATM   21  C           1     -23.799 -11.603   0.035  0.00  0.00     0.005 C 
ENDBRANCH  18  20
ENDBRANCH  14  18
ENDBRANCH   2  14
TORSDOF 8
ENDMDL
