MODEL 1
REMARK VINA RESULT:      -6.5      0.000      0.000
REMARK  13 active torsions:
REMARK  status: ('A' for Active; 'I' for Inactive)
REMARK    1  A    between atoms: C_1  and  N_23 
REMARK    2  A    between atoms: C_1  and  C_28 
REMARK    3  A    between atoms: C_2  and  C_20 
REMARK    4  A    between atoms: C_2  and  C_3 
REMARK    5  A    between atoms: C_3  and  C_26 
REMARK    6  A    between atoms: C_3  and  N_12 
REMARK    7  A    between atoms: C_6  and  C_15 
REMARK    8  A    between atoms: C_6  and  C_22 
REMARK    9  A    between atoms: C_6  and  N_17 
REMARK       I    between atoms: N_12  and  C_15 
REMARK   10  A    between atoms: C_13  and  C_24 
REMARK   11  A    between atoms: C_13  and  N_16 
REMARK   12  A    between atoms: C_20  and  C_28 
REMARK   13  A    between atoms: C_22  and  C_24 
ROOT
HETATM    1  H           1     -35.958  -2.554 -12.628  0.00  0.00     0.163 HD
HETATM    2  N           1     -35.338  -2.018 -12.035  0.00  0.00    -0.345 N 
HETATM    3  C           1     -34.235  -2.612 -11.484  0.00  0.00     0.249 C 
HETATM    4  O           1     -33.495  -1.973 -10.775  0.00  0.00    -0.271 OA
ENDROOT
BRANCH   2   5
HETATM    5  C           1     -35.618  -0.621 -11.768  0.00  0.00     0.185 C 
BRANCH   5   6
HETATM    6  C           1     -36.095   0.055 -13.047  0.00  0.00     0.036 C 
BRANCH   6   7
HETATM    7  C           1     -34.897   0.610 -13.805  0.00  0.00     0.004 C 
BRANCH   7   8
HETATM    8  C           1     -35.208   0.637 -15.297  0.00  0.00     0.027 C 
BRANCH   8   9
HETATM    9  C           1     -35.699  -0.736 -15.738  0.00  0.00     0.229 C 
BRANCH   9  10
HETATM   10  N           1     -36.266  -0.643 -17.123  0.00  0.00    -0.079 N 
HETATM   11  H           1     -35.534  -0.910 -17.819  0.00  0.00     0.274 HD
HETATM   12  H           1     -37.082  -1.291 -17.210  0.00  0.00     0.274 HD
HETATM   13  H           1     -36.580   0.338 -17.307  0.00  0.00     0.274 HD
ENDBRANCH   9  10
ENDBRANCH   8   9
ENDBRANCH   7   8
ENDBRANCH   6   7
ENDBRANCH   5   6
BRANCH   5  14
HETATM   14  C           1     -36.691  -0.516 -10.712  0.00  0.00     0.196 C 
HETATM   15  O           1     -36.458   0.080  -9.638  0.00  0.00    -0.646 OA
HETATM   16  O           1     -37.816  -1.026 -10.912  0.00  0.00    -0.646 OA
ENDBRANCH   5  14
ENDBRANCH   2   5
BRANCH   3  17
HETATM   17  C           1     -33.944  -4.067 -11.762  0.00  0.00     0.274 C 
BRANCH  17  18
HETATM   18  C           1     -34.128  -4.876 -10.484  0.00  0.00     0.044 C 
BRANCH  18  19
HETATM   19  C           1     -34.116  -6.362 -10.817  0.00  0.00     0.030 C 
BRANCH  19  20
HETATM   20  C           1     -34.920  -7.123  -9.772  0.00  0.00     0.230 C 
BRANCH  20  21
HETATM   21  N           1     -34.372  -8.513  -9.633  0.00  0.00    -0.079 N 
HETATM   22  H           1     -33.332  -8.488  -9.734  0.00  0.00     0.274 HD
HETATM   23  H           1     -34.780  -9.124 -10.376  0.00  0.00     0.274 HD
HETATM   24  H           1     -34.620  -8.893  -8.693  0.00  0.00     0.274 HD
ENDBRANCH  20  21
ENDBRANCH  19  20
ENDBRANCH  18  19
ENDBRANCH  17  18
BRANCH  17  25
HETATM   25  N           1     -32.531  -4.210 -12.244  0.00  0.00    -0.067 N 
HETATM   26  H           1     -32.109  -3.264 -12.376  0.00  0.00     0.275 HD
HETATM   27  H           1     -31.976  -4.744 -11.537  0.00  0.00     0.275 HD
HETATM   28  H           1     -32.524  -4.725 -13.153  0.00  0.00     0.275 HD
ENDBRANCH  17  25
ENDBRANCH   3  17
TORSDOF 13
ENDMDL
MODEL 2
REMARK VINA RESULT:      -6.3      2.386      3.880
REMARK  13 active torsions:
REMARK  status: ('A' for Active; 'I' for Inactive)
REMARK    1  A    between atoms: C_1  and  N_23 
REMARK    2  A    between atoms: C_1  and  C_28 
REMARK    3  A    between atoms: C_2  and  C_20 
REMARK    4  A    between atoms: C_2  and  C_3 
REMARK    5  A    between atoms: C_3  and  C_26 
REMARK    6  A    between atoms: C_3  and  N_12 
REMARK    7  A    between atoms: C_6  and  C_15 
REMARK    8  A    between atoms: C_6  and  C_22 
REMARK    9  A    between atoms: C_6  and  N_17 
REMARK       I    between atoms: N_12  and  C_15 
REMARK   10  A    between atoms: C_13  and  C_24 
REMARK   11  A    between atoms: C_13  and  N_16 
REMARK   12  A    between atoms: C_20  and  C_28 
REMARK   13  A    between atoms: C_22  and  C_24 
ROOT
HETATM    1  H           1     -34.629  -0.861 -11.411  0.00  0.00     0.163 HD
HETATM    2  N           1     -34.854  -1.368 -12.257  0.00  0.00    -0.345 N 
HETATM    3  C           1     -34.289  -2.592 -12.493  0.00  0.00     0.249 C 
HETATM    4  O           1     -34.558  -3.197 -13.504  0.00  0.00    -0.271 OA
ENDROOT
BRANCH   2   5
HETATM    5  C           1     -35.775  -0.797 -13.221  0.00  0.00     0.185 C 
BRANCH   5   6
HETATM    6  C           1     -36.907  -0.093 -12.484  0.00  0.00     0.036 C 
BRANCH   6   7
HETATM    7  C           1     -36.631  -0.117 -10.987  0.00  0.00     0.004 C 
BRANCH   7   8
HETATM    8  C           1     -37.931   0.118 -10.228  0.00  0.00     0.027 C 
BRANCH   8   9
HETATM    9  C           1     -37.759   1.296  -9.277  0.00  0.00     0.229 C 
BRANCH   9  10
HETATM   10  N           1     -36.350   1.324  -8.766  0.00  0.00    -0.079 N 
HETATM   11  H           1     -35.822   0.510  -9.152  0.00  0.00     0.274 HD
HETATM   12  H           1     -35.888   2.212  -9.067  0.00  0.00     0.274 HD
HETATM   13  H           1     -36.356   1.271  -7.722  0.00  0.00     0.274 HD
ENDBRANCH   9  10
ENDBRANCH   8   9
ENDBRANCH   7   8
ENDBRANCH   6   7
ENDBRANCH   5   6
BRANCH   5  14
HETATM   14  C           1     -35.042   0.198 -14.087  0.00  0.00     0.196 C 
HETATM   15  O           1     -34.805  -0.070 -15.285  0.00  0.00    -0.646 OA
HETATM   16  O           1     -34.671   1.291 -13.607  0.00  0.00    -0.646 OA
ENDBRANCH   5  14
ENDBRANCH   2   5
BRANCH   3  17
HETATM   17  C           1     -33.331  -3.187 -11.491  0.00  0.00     0.274 C 
BRANCH  17  18
HETATM   18  C           1     -33.344  -4.705 -11.612  0.00  0.00     0.044 C 
BRANCH  18  19
HETATM   19  C           1     -34.212  -5.296 -10.509  0.00  0.00     0.030 C 
BRANCH  19  20
HETATM   20  C           1     -34.229  -6.813 -10.634  0.00  0.00     0.230 C 
BRANCH  20  21
HETATM   21  N           1     -35.087  -7.396  -9.550  0.00  0.00    -0.079 N 
HETATM   22  H           1     -35.244  -6.677  -8.807  0.00  0.00     0.274 HD
HETATM   23  H           1     -34.608  -8.227  -9.135  0.00  0.00     0.274 HD
HETATM   24  H           1     -36.006  -7.687  -9.951  0.00  0.00     0.274 HD
ENDBRANCH  20  21
ENDBRANCH  19  20
ENDBRANCH  18  19
ENDBRANCH  17  18
BRANCH  17  25
HETATM   25  N           1     -33.749  -2.794 -10.105  0.00  0.00    -0.067 N 
HETATM   26  H           1     -33.231  -3.372  -9.406  0.00  0.00     0.275 HD
HETATM   27  H           1     -33.533  -1.783  -9.950  0.00  0.00     0.275 HD
HETATM   28  H           1     -34.777  -2.950  -9.994  0.00  0.00     0.275 HD
ENDBRANCH  17  25
ENDBRANCH   3  17
TORSDOF 13
ENDMDL
MODEL 3
REMARK VINA RESULT:      -6.2      3.952      6.448
REMARK  13 active torsions:
REMARK  status: ('A' for Active; 'I' for Inactive)
REMARK    1  A    between atoms: C_1  and  N_23 
REMARK    2  A    between atoms: C_1  and  C_28 
REMARK    3  A    between atoms: C_2  and  C_20 
REMARK    4  A    between atoms: C_2  and  C_3 
REMARK    5  A    between atoms: C_3  and  C_26 
REMARK    6  A    between atoms: C_3  and  N_12 
REMARK    7  A    between atoms: C_6  and  C_15 
REMARK    8  A    between atoms: C_6  and  C_22 
REMARK    9  A    between atoms: C_6  and  N_17 
REMARK       I    between atoms: N_12  and  C_15 
REMARK   10  A    between atoms: C_13  and  C_24 
REMARK   11  A    between atoms: C_13  and  N_16 
REMARK   12  A    between atoms: C_20  and  C_28 
REMARK   13  A    between atoms: C_22  and  C_24 
ROOT
HETATM    1  H           1     -32.395  -3.655 -14.347  0.00  0.00     0.163 HD
HETATM    2  N           1     -33.331  -4.040 -14.314  0.00  0.00    -0.345 N 
HETATM    3  C           1     -33.905  -4.544 -15.450  0.00  0.00     0.249 C 
HETATM    4  O           1     -35.021  -5.003 -15.410  0.00  0.00    -0.271 OA
ENDROOT
BRANCH   2   5
HETATM    5  C           1     -34.064  -4.056 -13.063  0.00  0.00     0.185 C 
BRANCH   5   6
HETATM    6  C           1     -33.085  -4.166 -11.902  0.00  0.00     0.036 C 
BRANCH   6   7
HETATM    7  C           1     -33.755  -4.883 -10.738  0.00  0.00     0.004 C 
BRANCH   7   8
HETATM    8  C           1     -34.478  -6.121 -11.253  0.00  0.00     0.027 C 
BRANCH   8   9
HETATM    9  C           1     -34.714  -7.089 -10.101  0.00  0.00     0.229 C 
BRANCH   9  10
HETATM   10  N           1     -34.030  -8.391 -10.392  0.00  0.00    -0.079 N 
HETATM   11  H           1     -33.981  -8.536 -11.426  0.00  0.00     0.274 HD
HETATM   12  H           1     -33.062  -8.372  -9.998  0.00  0.00     0.274 HD
HETATM   13  H           1     -34.568  -9.174  -9.956  0.00  0.00     0.274 HD
ENDBRANCH   9  10
ENDBRANCH   8   9
ENDBRANCH   7   8
ENDBRANCH   6   7
ENDBRANCH   5   6
BRANCH   5  14
HETATM   14  C           1     -34.861  -2.781 -12.932  0.00  0.00     0.196 C 
HETATM   15  O           1     -34.736  -1.874 -13.783  0.00  0.00    -0.646 OA
HETATM   16  O           1     -35.646  -2.631 -11.970  0.00  0.00    -0.646 OA
ENDBRANCH   5  14
ENDBRANCH   2   5
BRANCH   3  17
HETATM   17  C           1     -33.141  -4.527 -16.751  0.00  0.00     0.274 C 
BRANCH  17  18
HETATM   18  C           1     -31.684  -4.885 -16.491  0.00  0.00     0.044 C 
BRANCH  18  19
HETATM   19  C           1     -31.341  -6.179 -17.217  0.00  0.00     0.030 C 
BRANCH  19  20
HETATM   20  C           1     -29.880  -6.529 -16.970  0.00  0.00     0.230 C 
BRANCH  20  21
HETATM   21  N           1     -29.613  -7.929 -17.437  0.00  0.00    -0.079 N 
HETATM   22  H           1     -28.990  -8.412 -16.750  0.00  0.00     0.274 HD
HETATM   23  H           1     -29.147  -7.902 -18.372  0.00  0.00     0.274 HD
HETATM   24  H           1     -30.515  -8.450 -17.512  0.00  0.00     0.274 HD
ENDBRANCH  20  21
ENDBRANCH  19  20
ENDBRANCH  18  19
ENDBRANCH  17  18
BRANCH  17  25
HETATM   25  N           1     -33.218  -3.158 -17.358  0.00  0.00    -0.067 N 
HETATM   26  H           1     -33.803  -2.539 -16.752  0.00  0.00     0.275 HD
HETATM   27  H           1     -32.255  -2.759 -17.437  0.00  0.00     0.275 HD
HETATM   28  H           1     -33.647  -3.222 -18.309  0.00  0.00     0.275 HD
ENDBRANCH  17  25
ENDBRANCH   3  17
TORSDOF 13
ENDMDL
MODEL 4
REMARK VINA RESULT:      -6.2     12.039     13.477
REMARK  13 active torsions:
REMARK  status: ('A' for Active; 'I' for Inactive)
REMARK    1  A    between atoms: C_1  and  N_23 
REMARK    2  A    between atoms: C_1  and  C_28 
REMARK    3  A    between atoms: C_2  and  C_20 
REMARK    4  A    between atoms: C_2  and  C_3 
REMARK    5  A    between atoms: C_3  and  C_26 
REMARK    6  A    between atoms: C_3  and  N_12 
REMARK    7  A    between atoms: C_6  and  C_15 
REMARK    8  A    between atoms: C_6  and  C_22 
REMARK    9  A    between atoms: C_6  and  N_17 
REMARK       I    between atoms: N_12  and  C_15 
REMARK   10  A    between atoms: C_13  and  C_24 
REMARK   11  A    between atoms: C_13  and  N_16 
REMARK   12  A    between atoms: C_20  and  C_28 
REMARK   13  A    between atoms: C_22  and  C_24 
ROOT
HETATM    1  H           1     -22.188  -5.723  -9.240  0.00  0.00     0.163 HD
HETATM    2  N           1     -22.184  -4.762  -8.921  0.00  0.00    -0.345 N 
HETATM    3  C           1     -21.605  -4.441  -7.724  0.00  0.00     0.249 C 
HETATM    4  O           1     -21.599  -3.294  -7.343  0.00  0.00    -0.271 OA
ENDROOT
BRANCH   2   5
HETATM    5  C           1     -22.792  -3.726  -9.734  0.00  0.00     0.185 C 
BRANCH   5   6
HETATM    6  C           1     -22.337  -3.883 -11.179  0.00  0.00     0.036 C 
BRANCH   6   7
HETATM    7  C           1     -22.642  -2.605 -11.949  0.00  0.00     0.004 C 
BRANCH   7   8
HETATM    8  C           1     -23.735  -2.879 -12.975  0.00  0.00     0.027 C 
BRANCH   8   9
HETATM    9  C           1     -23.397  -2.169 -14.279  0.00  0.00     0.229 C 
BRANCH   9  10
HETATM   10  N           1     -22.366  -2.960 -15.028  0.00  0.00    -0.079 N 
HETATM   11  H           1     -22.827  -3.496 -15.797  0.00  0.00     0.274 HD
HETATM   12  H           1     -21.655  -2.310 -15.434  0.00  0.00     0.274 HD
HETATM   13  H           1     -21.895  -3.626 -14.374  0.00  0.00     0.274 HD
ENDBRANCH   9  10
ENDBRANCH   8   9
ENDBRANCH   7   8
ENDBRANCH   6   7
ENDBRANCH   5   6
BRANCH   5  14
HETATM   14  C           1     -24.294  -3.849  -9.662  0.00  0.00     0.196 C 
HETATM   15  O           1     -24.993  -2.843  -9.414  0.00  0.00    -0.646 OA
HETATM   16  O           1     -24.840  -4.958  -9.851  0.00  0.00    -0.646 OA
ENDBRANCH   5  14
ENDBRANCH   2   5
BRANCH   3  17
HETATM   17  C           1     -20.972  -5.519  -6.878  0.00  0.00     0.274 C 
BRANCH  17  18
HETATM   18  C           1     -21.910  -5.884  -5.734  0.00  0.00     0.044 C 
BRANCH  18  19
HETATM   19  C           1     -21.150  -5.828  -4.416  0.00  0.00     0.030 C 
BRANCH  19  20
HETATM   20  C           1     -21.868  -6.680  -3.379  0.00  0.00     0.230 C 
BRANCH  20  21
HETATM   21  N           1     -22.265  -5.822  -2.214  0.00  0.00    -0.079 N 
HETATM   22  H           1     -23.131  -5.288  -2.455  0.00  0.00     0.274 HD
HETATM   23  H           1     -21.492  -5.155  -1.994  0.00  0.00     0.274 HD
HETATM   24  H           1     -22.451  -6.427  -1.383  0.00  0.00     0.274 HD
ENDBRANCH  20  21
ENDBRANCH  19  20
ENDBRANCH  18  19
ENDBRANCH  17  18
BRANCH  17  25
HETATM   25  N           1     -19.674  -5.018  -6.318  0.00  0.00    -0.067 N 
HETATM   26  H           1     -19.416  -5.582  -5.477  0.00  0.00     0.275 HD
HETATM   27  H           1     -18.926  -5.108  -7.041  0.00  0.00     0.275 HD
HETATM   28  H           1     -19.777  -4.014  -6.047  0.00  0.00     0.275 HD
ENDBRANCH  17  25
ENDBRANCH   3  17
TORSDOF 13
ENDMDL
MODEL 5
REMARK VINA RESULT:      -5.9     12.171     13.707
REMARK  13 active torsions:
REMARK  status: ('A' for Active; 'I' for Inactive)
REMARK    1  A    between atoms: C_1  and  N_23 
REMARK    2  A    between atoms: C_1  and  C_28 
REMARK    3  A    between atoms: C_2  and  C_20 
REMARK    4  A    between atoms: C_2  and  C_3 
REMARK    5  A    between atoms: C_3  and  C_26 
REMARK    6  A    between atoms: C_3  and  N_12 
REMARK    7  A    between atoms: C_6  and  C_15 
REMARK    8  A    between atoms: C_6  and  C_22 
REMARK    9  A    between atoms: C_6  and  N_17 
REMARK       I    between atoms: N_12  and  C_15 
REMARK   10  A    between atoms: C_13  and  C_24 
REMARK   11  A    between atoms: C_13  and  N_16 
REMARK   12  A    between atoms: C_20  and  C_28 
REMARK   13  A    between atoms: C_22  and  C_24 
ROOT
HETATM    1  H           1     -22.848  -5.705  -8.177  0.00  0.00     0.163 HD
HETATM    2  N           1     -22.478  -4.765  -8.117  0.00  0.00    -0.345 N 
HETATM    3  C           1     -21.745  -4.387  -7.024  0.00  0.00     0.249 C 
HETATM    4  O           1     -21.304  -3.265  -6.951  0.00  0.00    -0.271 OA
ENDROOT
BRANCH   2   5
HETATM    5  C           1     -22.724  -3.819  -9.187  0.00  0.00     0.185 C 
BRANCH   5   6
HETATM    6  C           1     -21.886  -4.198 -10.401  0.00  0.00     0.036 C 
BRANCH   6   7
HETATM    7  C           1     -21.813  -3.015 -11.358  0.00  0.00     0.004 C 
BRANCH   7   8
HETATM    8  C           1     -22.411  -3.412 -12.702  0.00  0.00     0.027 C 
BRANCH   8   9
HETATM    9  C           1     -23.578  -2.490 -13.031  0.00  0.00     0.229 C 
BRANCH   9  10
HETATM   10  N           1     -24.860  -3.125 -12.580  0.00  0.00    -0.079 N 
HETATM   11  H           1     -25.586  -2.386 -12.441  0.00  0.00     0.274 HD
HETATM   12  H           1     -25.188  -3.801 -13.307  0.00  0.00     0.274 HD
HETATM   13  H           1     -24.701  -3.632 -11.680  0.00  0.00     0.274 HD
ENDBRANCH   9  10
ENDBRANCH   8   9
ENDBRANCH   7   8
ENDBRANCH   6   7
ENDBRANCH   5   6
BRANCH   5  14
HETATM   14  C           1     -24.187  -3.845  -9.555  0.00  0.00     0.196 C 
HETATM   15  O           1     -24.720  -4.914  -9.925  0.00  0.00    -0.646 OA
HETATM   16  O           1     -24.866  -2.797  -9.490  0.00  0.00    -0.646 OA
ENDBRANCH   5  14
ENDBRANCH   2   5
BRANCH   3  17
HETATM   17  C           1     -21.490  -5.372  -5.910  0.00  0.00     0.274 C 
BRANCH  17  18
HETATM   18  C           1     -20.683  -6.548  -6.445  0.00  0.00     0.044 C 
BRANCH  18  19
HETATM   19  C           1     -21.035  -7.806  -5.661  0.00  0.00     0.030 C 
BRANCH  19  20
HETATM   20  C           1     -19.827  -8.255  -4.852  0.00  0.00     0.230 C 
BRANCH  20  21
HETATM   21  N           1     -18.895  -9.034  -5.733  0.00  0.00    -0.079 N 
HETATM   22  H           1     -18.848 -10.024  -5.399  0.00  0.00     0.274 HD
HETATM   23  H           1     -17.942  -8.607  -5.695  0.00  0.00     0.274 HD
HETATM   24  H           1     -19.247  -9.016  -6.716  0.00  0.00     0.274 HD
ENDBRANCH  20  21
ENDBRANCH  19  20
ENDBRANCH  18  19
ENDBRANCH  17  18
BRANCH  17  25
HETATM   25  N           1     -22.799  -5.869  -5.372  0.00  0.00    -0.067 N 
HETATM   26  H           1     -23.137  -6.667  -5.956  0.00  0.00     0.275 HD
HETATM   27  H           1     -22.670  -6.190  -4.386  0.00  0.00     0.275 HD
HETATM   28  H           1     -23.502  -5.096  -5.397  0.00  0.00     0.275 HD
ENDBRANCH  17  25
ENDBRANCH   3  17
TORSDOF 13
ENDMDL
MODEL 6
REMARK VINA RESULT:      -5.8     14.612     17.076
REMARK  13 active torsions:
REMARK  status: ('A' for Active; 'I' for Inactive)
REMARK    1  A    between atoms: C_1  and  N_23 
REMARK    2  A    between atoms: C_1  and  C_28 
REMARK    3  A    between atoms: C_2  and  C_20 
REMARK    4  A    between atoms: C_2  and  C_3 
REMARK    5  A    between atoms: C_3  and  C_26 
REMARK    6  A    between atoms: C_3  and  N_12 
REMARK    7  A    between atoms: C_6  and  C_15 
REMARK    8  A    between atoms: C_6  and  C_22 
REMARK    9  A    between atoms: C_6  and  N_17 
REMARK       I    between atoms: N_12  and  C_15 
REMARK   10  A    between atoms: C_13  and  C_24 
REMARK   11  A    between atoms: C_13  and  N_16 
REMARK   12  A    between atoms: C_20  and  C_28 
REMARK   13  A    between atoms: C_22  and  C_24 
ROOT
HETATM    1  H           1     -21.919  -6.955  -6.886  0.00  0.00     0.163 HD
HETATM    2  N           1     -21.333  -6.331  -6.347  0.00  0.00    -0.345 N 
HETATM    3  C           1     -20.983  -5.110  -6.856  0.00  0.00     0.249 C 
HETATM    4  O           1     -20.284  -4.364  -6.212  0.00  0.00    -0.271 OA
ENDROOT
BRANCH   2   5
HETATM    5  C           1     -20.865  -6.730  -5.034  0.00  0.00     0.185 C 
BRANCH   5   6
HETATM    6  C           1     -21.997  -6.585  -4.026  0.00  0.00     0.036 C 
BRANCH   6   7
HETATM    7  C           1     -21.456  -5.984  -2.736  0.00  0.00     0.004 C 
BRANCH   7   8
HETATM    8  C           1     -22.201  -6.578  -1.547  0.00  0.00     0.027 C 
BRANCH   8   9
HETATM    9  C           1     -21.854  -8.055  -1.415  0.00  0.00     0.229 C 
BRANCH   9  10
HETATM   10  N           1     -20.364  -8.214  -1.348  0.00  0.00    -0.079 N 
HETATM   11  H           1     -20.029  -7.973  -0.388  0.00  0.00     0.274 HD
HETATM   12  H           1     -20.110  -9.205  -1.566  0.00  0.00     0.274 HD
HETATM   13  H           1     -19.914  -7.578  -2.044  0.00  0.00     0.274 HD
ENDBRANCH   9  10
ENDBRANCH   8   9
ENDBRANCH   7   8
ENDBRANCH   6   7
ENDBRANCH   5   6
BRANCH   5  14
HETATM   14  C           1     -20.411  -8.168  -5.078  0.00  0.00     0.196 C 
HETATM   15  O           1     -20.940  -8.968  -5.880  0.00  0.00    -0.646 OA
HETATM   16  O           1     -19.503  -8.561  -4.312  0.00  0.00    -0.646 OA
ENDBRANCH   5  14
ENDBRANCH   2   5
BRANCH   3  17
HETATM   17  C           1     -21.470  -4.695  -8.222  0.00  0.00     0.274 C 
BRANCH  17  18
HETATM   18  C           1     -20.319  -4.079  -9.008  0.00  0.00     0.044 C 
BRANCH  18  19
HETATM   19  C           1     -20.426  -4.489 -10.471  0.00  0.00     0.030 C 
BRANCH  19  20
HETATM   20  C           1     -20.860  -3.291 -11.304  0.00  0.00     0.230 C 
BRANCH  20  21
HETATM   21  N           1     -21.617  -3.766 -12.509  0.00  0.00    -0.079 N 
HETATM   22  H           1     -22.643  -3.693 -12.326  0.00  0.00     0.274 HD
HETATM   23  H           1     -21.367  -4.761 -12.707  0.00  0.00     0.274 HD
HETATM   24  H           1     -21.368  -3.174 -13.333  0.00  0.00     0.274 HD
ENDBRANCH  20  21
ENDBRANCH  19  20
ENDBRANCH  18  19
ENDBRANCH  17  18
BRANCH  17  25
HETATM   25  N           1     -22.569  -3.685  -8.076  0.00  0.00    -0.067 N 
HETATM   26  H           1     -22.659  -3.409  -7.072  0.00  0.00     0.275 HD
HETATM   27  H           1     -22.345  -2.842  -8.650  0.00  0.00     0.275 HD
HETATM   28  H           1     -23.470  -4.101  -8.405  0.00  0.00     0.275 HD
ENDBRANCH  17  25
ENDBRANCH   3  17
TORSDOF 13
ENDMDL
MODEL 7
REMARK VINA RESULT:      -5.7     12.853     15.729
REMARK  13 active torsions:
REMARK  status: ('A' for Active; 'I' for Inactive)
REMARK    1  A    between atoms: C_1  and  N_23 
REMARK    2  A    between atoms: C_1  and  C_28 
REMARK    3  A    between atoms: C_2  and  C_20 
REMARK    4  A    between atoms: C_2  and  C_3 
REMARK    5  A    between atoms: C_3  and  C_26 
REMARK    6  A    between atoms: C_3  and  N_12 
REMARK    7  A    between atoms: C_6  and  C_15 
REMARK    8  A    between atoms: C_6  and  C_22 
REMARK    9  A    between atoms: C_6  and  N_17 
REMARK       I    between atoms: N_12  and  C_15 
REMARK   10  A    between atoms: C_13  and  C_24 
REMARK   11  A    between atoms: C_13  and  N_16 
REMARK   12  A    between atoms: C_20  and  C_28 
REMARK   13  A    between atoms: C_22  and  C_24 
ROOT
HETATM    1  H           1     -22.711  -5.639  -6.922  0.00  0.00     0.163 HD
HETATM    2  N           1     -22.069  -4.912  -7.210  0.00  0.00    -0.345 N 
HETATM    3  C           1     -22.337  -4.163  -8.324  0.00  0.00     0.249 C 
HETATM    4  O           1     -21.570  -3.295  -8.667  0.00  0.00    -0.271 OA
ENDROOT
BRANCH   2   5
HETATM    5  C           1     -20.864  -4.664  -6.442  0.00  0.00     0.185 C 
BRANCH   5   6
HETATM    6  C           1     -20.987  -5.326  -5.076  0.00  0.00     0.036 C 
BRANCH   6   7
HETATM    7  C           1     -22.056  -6.410  -5.132  0.00  0.00     0.004 C 
BRANCH   7   8
HETATM    8  C           1     -21.611  -7.605  -4.298  0.00  0.00     0.027 C 
BRANCH   8   9
HETATM    9  C           1     -21.168  -8.732  -5.222  0.00  0.00     0.229 C 
BRANCH   9  10
HETATM   10  N           1     -19.692  -8.626  -5.469  0.00  0.00    -0.079 N 
HETATM   11  H           1     -19.212  -8.326  -4.591  0.00  0.00     0.274 HD
HETATM   12  H           1     -19.322  -9.557  -5.768  0.00  0.00     0.274 HD
HETATM   13  H           1     -19.514  -7.922  -6.221  0.00  0.00     0.274 HD
ENDBRANCH   9  10
ENDBRANCH   8   9
ENDBRANCH   7   8
ENDBRANCH   6   7
ENDBRANCH   5   6
BRANCH   5  14
HETATM   14  C           1     -19.675  -5.236  -7.175  0.00  0.00     0.196 C 
HETATM   15  O           1     -18.690  -4.511  -7.433  0.00  0.00    -0.646 OA
HETATM   16  O           1     -19.676  -6.437  -7.525  0.00  0.00    -0.646 OA
ENDBRANCH   5  14
ENDBRANCH   2   5
BRANCH   3  17
HETATM   17  C           1     -23.591  -4.421  -9.122  0.00  0.00     0.274 C 
BRANCH  17  18
HETATM   18  C           1     -23.239  -4.532 -10.600  0.00  0.00     0.044 C 
BRANCH  18  19
HETATM   19  C           1     -23.803  -3.332 -11.349  0.00  0.00     0.030 C 
BRANCH  19  20
HETATM   20  C           1     -22.760  -2.805 -12.325  0.00  0.00     0.230 C 
BRANCH  20  21
HETATM   21  N           1     -21.394  -2.940 -11.720  0.00  0.00    -0.079 N 
HETATM   22  H           1     -21.479  -2.996 -10.679  0.00  0.00     0.274 HD
HETATM   23  H           1     -20.815  -2.110 -11.979  0.00  0.00     0.274 HD
HETATM   24  H           1     -20.938  -3.809 -12.077  0.00  0.00     0.274 HD
ENDBRANCH  20  21
ENDBRANCH  19  20
ENDBRANCH  18  19
ENDBRANCH  17  18
BRANCH  17  25
HETATM   25  N           1     -24.553  -3.288  -8.922  0.00  0.00    -0.067 N 
HETATM   26  H           1     -24.966  -3.014  -9.842  0.00  0.00     0.275 HD
HETATM   27  H           1     -25.316  -3.590  -8.275  0.00  0.00     0.275 HD
HETATM   28  H           1     -24.049  -2.472  -8.509  0.00  0.00     0.275 HD
ENDBRANCH  17  25
ENDBRANCH   3  17
TORSDOF 13
ENDMDL
MODEL 8
REMARK VINA RESULT:      -5.5     14.458     17.249
REMARK  13 active torsions:
REMARK  status: ('A' for Active; 'I' for Inactive)
REMARK    1  A    between atoms: C_1  and  N_23 
REMARK    2  A    between atoms: C_1  and  C_28 
REMARK    3  A    between atoms: C_2  and  C_20 
REMARK    4  A    between atoms: C_2  and  C_3 
REMARK    5  A    between atoms: C_3  and  C_26 
REMARK    6  A    between atoms: C_3  and  N_12 
REMARK    7  A    between atoms: C_6  and  C_15 
REMARK    8  A    between atoms: C_6  and  C_22 
REMARK    9  A    between atoms: C_6  and  N_17 
REMARK       I    between atoms: N_12  and  C_15 
REMARK   10  A    between atoms: C_13  and  C_24 
REMARK   11  A    between atoms: C_13  and  N_16 
REMARK   12  A    between atoms: C_20  and  C_28 
REMARK   13  A    between atoms: C_22  and  C_24 
ROOT
HETATM    1  H           1     -19.765  -6.386  -4.747  0.00  0.00     0.163 HD
HETATM    2  N           1     -20.772  -6.389  -4.839  0.00  0.00    -0.345 N 
HETATM    3  C           1     -21.384  -5.521  -5.703  0.00  0.00     0.249 C 
HETATM    4  O           1     -22.587  -5.525  -5.813  0.00  0.00    -0.271 OA
ENDROOT
BRANCH   2   5
HETATM    5  C           1     -21.569  -7.313  -4.055  0.00  0.00     0.185 C 
BRANCH   5   6
HETATM    6  C           1     -20.932  -8.695  -4.099  0.00  0.00     0.036 C 
BRANCH   6   7
HETATM    7  C           1     -19.591  -8.614  -4.816  0.00  0.00     0.004 C 
BRANCH   7   8
HETATM    8  C           1     -18.533  -9.342  -3.996  0.00  0.00     0.027 C 
BRANCH   8   9
HETATM    9  C           1     -17.506  -9.967  -4.932  0.00  0.00     0.229 C 
BRANCH   9  10
HETATM   10  N           1     -17.975  -9.834  -6.350  0.00  0.00    -0.079 N 
HETATM   11  H           1     -18.957 -10.184  -6.427  0.00  0.00     0.274 HD
HETATM   12  H           1     -17.941  -8.829  -6.636  0.00  0.00     0.274 HD
HETATM   13  H           1     -17.356 -10.396  -6.977  0.00  0.00     0.274 HD
ENDBRANCH   9  10
ENDBRANCH   8   9
ENDBRANCH   7   8
ENDBRANCH   6   7
ENDBRANCH   5   6
BRANCH   5  14
HETATM   14  C           1     -21.634  -6.832  -2.626  0.00  0.00     0.196 C 
HETATM   15  O           1     -20.902  -7.353  -1.756  0.00  0.00    -0.646 OA
HETATM   16  O           1     -22.421  -5.912  -2.311  0.00  0.00    -0.646 OA
ENDBRANCH   5  14
ENDBRANCH   2   5
BRANCH   3  17
HETATM   17  C           1     -20.555  -4.560  -6.519  0.00  0.00     0.274 C 
BRANCH  17  18
HETATM   18  C           1     -21.475  -3.627  -7.297  0.00  0.00     0.044 C 
BRANCH  18  19
HETATM   19  C           1     -21.518  -4.057  -8.757  0.00  0.00     0.030 C 
BRANCH  19  20
HETATM   20  C           1     -22.958  -4.034  -9.250  0.00  0.00     0.230 C 
BRANCH  20  21
HETATM   21  N           1     -23.891  -4.031  -8.076  0.00  0.00    -0.079 N 
HETATM   22  H           1     -23.339  -4.125  -7.193  0.00  0.00     0.274 HD
HETATM   23  H           1     -24.557  -4.833  -8.158  0.00  0.00     0.274 HD
HETATM   24  H           1     -24.426  -3.134  -8.057  0.00  0.00     0.274 HD
ENDBRANCH  20  21
ENDBRANCH  19  20
ENDBRANCH  18  19
ENDBRANCH  17  18
BRANCH  17  25
HETATM   25  N           1     -19.698  -5.330  -7.480  0.00  0.00    -0.067 N 
HETATM   26  H           1     -20.138  -6.257  -7.675  0.00  0.00     0.275 HD
HETATM   27  H           1     -19.607  -4.793  -8.371  0.00  0.00     0.275 HD
HETATM   28  H           1     -18.751  -5.475  -7.062  0.00  0.00     0.275 HD
ENDBRANCH  17  25
ENDBRANCH   3  17
TORSDOF 13
ENDMDL
MODEL 9
REMARK VINA RESULT:      -5.4     14.030     17.162
REMARK  13 active torsions:
REMARK  status: ('A' for Active; 'I' for Inactive)
REMARK    1  A    between atoms: C_1  and  N_23 
REMARK    2  A    between atoms: C_1  and  C_28 
REMARK    3  A    between atoms: C_2  and  C_20 
REMARK    4  A    between atoms: C_2  and  C_3 
REMARK    5  A    between atoms: C_3  and  C_26 
REMARK    6  A    between atoms: C_3  and  N_12 
REMARK    7  A    between atoms: C_6  and  C_15 
REMARK    8  A    between atoms: C_6  and  C_22 
REMARK    9  A    between atoms: C_6  and  N_17 
REMARK       I    between atoms: N_12  and  C_15 
REMARK   10  A    between atoms: C_13  and  C_24 
REMARK   11  A    between atoms: C_13  and  N_16 
REMARK   12  A    between atoms: C_20  and  C_28 
REMARK   13  A    between atoms: C_22  and  C_24 
ROOT
HETATM    1  H           1     -19.721  -6.940  -4.856  0.00  0.00     0.163 HD
HETATM    2  N           1     -20.723  -6.801  -4.837  0.00  0.00    -0.345 N 
HETATM    3  C           1     -21.300  -5.862  -5.649  0.00  0.00     0.249 C 
HETATM    4  O           1     -22.496  -5.695  -5.626  0.00  0.00    -0.271 OA
ENDROOT
BRANCH   2   5
HETATM    5  C           1     -21.549  -7.595  -3.948  0.00  0.00     0.185 C 
BRANCH   5   6
HETATM    6  C           1     -20.979  -9.003  -3.850  0.00  0.00     0.036 C 
BRANCH   6   7
HETATM    7  C           1     -22.112  -9.997  -3.633  0.00  0.00     0.004 C 
BRANCH   7   8
HETATM    8  C           1     -21.843 -10.807  -2.371  0.00  0.00     0.027 C 
BRANCH   8   9
HETATM    9  C           1     -22.994 -10.621  -1.391  0.00  0.00     0.229 C 
BRANCH   9  10
HETATM   10  N           1     -22.639  -9.552  -0.400  0.00  0.00    -0.079 N 
HETATM   11  H           1     -23.416  -9.445   0.290  0.00  0.00     0.274 HD
HETATM   12  H           1     -21.762  -9.820   0.102  0.00  0.00     0.274 HD
HETATM   13  H           1     -22.492  -8.647  -0.901  0.00  0.00     0.274 HD
ENDBRANCH   9  10
ENDBRANCH   8   9
ENDBRANCH   7   8
ENDBRANCH   6   7
ENDBRANCH   5   6
BRANCH   5  14
HETATM   14  C           1     -21.566  -6.961  -2.578  0.00  0.00     0.196 C 
HETATM   15  O           1     -22.355  -6.024  -2.332  0.00  0.00    -0.646 OA
HETATM   16  O           1     -20.789  -7.374  -1.689  0.00  0.00    -0.646 OA
ENDBRANCH   5  14
ENDBRANCH   2   5
BRANCH   3  17
HETATM   17  C           1     -20.441  -5.035  -6.574  0.00  0.00     0.274 C 
BRANCH  17  18
HETATM   18  C           1     -21.269  -3.896  -7.156  0.00  0.00     0.044 C 
BRANCH  18  19
HETATM   19  C           1     -21.468  -4.122  -8.648  0.00  0.00     0.030 C 
BRANCH  19  20
HETATM   20  C           1     -22.881  -3.714  -9.041  0.00  0.00     0.230 C 
BRANCH  20  21
HETATM   21  N           1     -23.835  -4.099  -7.949  0.00  0.00    -0.079 N 
HETATM   22  H           1     -24.758  -3.637  -8.116  0.00  0.00     0.274 HD
HETATM   23  H           1     -23.452  -3.791  -7.027  0.00  0.00     0.274 HD
HETATM   24  H           1     -23.962  -5.135  -7.946  0.00  0.00     0.274 HD
ENDBRANCH  20  21
ENDBRANCH  19  20
ENDBRANCH  18  19
ENDBRANCH  17  18
BRANCH  17  25
HETATM   25  N           1     -19.931  -5.900  -7.689  0.00  0.00    -0.067 N 
HETATM   26  H           1     -18.895  -5.790  -7.770  0.00  0.00     0.275 HD
HETATM   27  H           1     -20.161  -6.899  -7.487  0.00  0.00     0.275 HD
HETATM   28  H           1     -20.383  -5.613  -8.587  0.00  0.00     0.275 HD
ENDBRANCH  17  25
ENDBRANCH   3  17
TORSDOF 13
ENDMDL
