MODEL 1
REMARK VINA RESULT:      -9.0      0.000      0.000
REMARK  9 active torsions:
REMARK  status: ('A' for Active; 'I' for Inactive)
REMARK    1  A    between atoms: C_1  and  C_31 
REMARK    2  A    between atoms: C_1  and  C_4 
REMARK    3  A    between atoms: C_1  and  N_25 
REMARK    4  A    between atoms: C_4  and  C_14 
REMARK    5  A    between atoms: C_6  and  C_11 
REMARK    6  A    between atoms: C_11  and  C_19 
REMARK    7  A    between atoms: C_11  and  N_20 
REMARK       I    between atoms: N_18  and  C_23 
REMARK    8  A    between atoms: C_19  and  C_29 
REMARK       I    between atoms: N_20  and  C_31 
REMARK    9  A    between atoms: C_23  and  C_29 
ROOT
HETATM    1  C           1     -21.140  -5.873  -6.978  0.00  0.00     0.278 C 
ENDROOT
BRANCH   1   2
HETATM    2  C           1     -21.702  -4.698  -7.738  0.00  0.00     0.249 C 
HETATM    3  O           1     -21.697  -3.597  -7.241  0.00  0.00    -0.271 OA
HETATM    4  N           1     -22.218  -4.878  -8.994  0.00  0.00    -0.345 N 
HETATM    5  H           1     -22.221  -5.799  -9.412  0.00  0.00     0.163 HD
BRANCH   4   6
HETATM    6  C           1     -22.757  -3.748  -9.725  0.00  0.00     0.186 C 
BRANCH   6   7
HETATM    7  C           1     -24.264  -3.826  -9.729  0.00  0.00     0.196 C 
HETATM    8  O           1     -24.833  -4.908  -9.986  0.00  0.00    -0.646 OA
HETATM    9  O           1     -24.942  -2.808  -9.473  0.00  0.00    -0.646 OA
ENDBRANCH   6   7
BRANCH   6  10
HETATM   10  C           1     -22.244  -3.777 -11.159  0.00  0.00     0.045 C 
BRANCH  10  11
HETATM   11  C           1     -22.599  -2.470 -11.853  0.00  0.00     0.105 C 
BRANCH  11  12
HETATM   12  C           1     -23.284  -2.765 -13.165  0.00  0.00     0.215 C 
HETATM   13  N           1     -22.540  -3.103 -14.263  0.00  0.00    -0.370 N 
HETATM   14  H           1     -21.532  -3.155 -14.196  0.00  0.00     0.159 HD
HETATM   15  H           1     -22.999  -3.301 -15.144  0.00  0.00     0.159 HD
HETATM   16  O           1     -24.487  -2.703 -13.246  0.00  0.00    -0.274 OA
ENDBRANCH  11  12
ENDBRANCH  10  11
ENDBRANCH   6  10
ENDBRANCH   4   6
ENDBRANCH   1   2
BRANCH   1  17
HETATM   17  C           1     -21.181  -5.579  -5.484  0.00  0.00     0.083 C 
BRANCH  17  18
HETATM   18  C           1     -21.206  -6.866  -4.721  0.00  0.00    -0.028 A 
HETATM   19  C           1     -21.561  -7.023  -3.352  0.00  0.00    -0.002 A 
HETATM   20  C           1     -21.447  -8.380  -3.051  0.00  0.00     0.042 A 
HETATM   21  C           1     -21.970  -6.136  -2.339  0.00  0.00     0.014 A 
HETATM   22  N           1     -21.038  -9.016  -4.202  0.00  0.00    -0.365 N 
HETATM   23  C           1     -21.723  -8.899  -1.780  0.00  0.00     0.030 A 
HETATM   24  C           1     -20.888  -8.110  -5.217  0.00  0.00     0.096 A 
HETATM   25  H           1     -20.863 -10.049  -4.288  0.00  0.00     0.165 HD
HETATM   26  C           1     -22.127  -7.999  -0.790  0.00  0.00     0.002 A 
HETATM   27  C           1     -22.249  -6.638  -1.062  0.00  0.00     0.001 A 
ENDBRANCH  17  18
ENDBRANCH   1  17
BRANCH   1  28
HETATM   28  N           1     -19.721  -6.110  -7.401  0.00  0.00    -0.066 N 
HETATM   29  H           1     -19.708  -6.659  -8.290  0.00  0.00     0.275 HD
HETATM   30  H           1     -19.244  -5.193  -7.551  0.00  0.00     0.275 HD
HETATM   31  H           1     -19.220  -6.645  -6.656  0.00  0.00     0.275 HD
ENDBRANCH   1  28
TORSDOF 9
ENDMDL
MODEL 2
REMARK VINA RESULT:      -8.5      3.212      8.591
REMARK  9 active torsions:
REMARK  status: ('A' for Active; 'I' for Inactive)
REMARK    1  A    between atoms: C_1  and  C_31 
REMARK    2  A    between atoms: C_1  and  C_4 
REMARK    3  A    between atoms: C_1  and  N_25 
REMARK    4  A    between atoms: C_4  and  C_14 
REMARK    5  A    between atoms: C_6  and  C_11 
REMARK    6  A    between atoms: C_11  and  C_19 
REMARK    7  A    between atoms: C_11  and  N_20 
REMARK       I    between atoms: N_18  and  C_23 
REMARK    8  A    between atoms: C_19  and  C_29 
REMARK       I    between atoms: N_20  and  C_31 
REMARK    9  A    between atoms: C_23  and  C_29 
ROOT
HETATM    1  C           1     -22.078  -5.376  -6.666  0.00  0.00     0.278 C 
ENDROOT
BRANCH   1   2
HETATM    2  C           1     -21.280  -5.941  -5.517  0.00  0.00     0.249 C 
HETATM    3  O           1     -20.721  -5.199  -4.745  0.00  0.00    -0.271 OA
HETATM    4  N           1     -21.189  -7.298  -5.349  0.00  0.00    -0.345 N 
HETATM    5  H           1     -21.657  -7.920  -5.994  0.00  0.00     0.163 HD
BRANCH   4   6
HETATM    6  C           1     -20.422  -7.841  -4.245  0.00  0.00     0.186 C 
BRANCH   6   7
HETATM    7  C           1     -19.520  -8.938  -4.753  0.00  0.00     0.196 C 
HETATM    8  O           1     -18.456  -9.202  -4.151  0.00  0.00    -0.646 OA
HETATM    9  O           1     -19.836  -9.584  -5.775  0.00  0.00    -0.646 OA
ENDBRANCH   6   7
BRANCH   6  10
HETATM   10  C           1     -21.370  -8.409  -3.197  0.00  0.00     0.045 C 
BRANCH  10  11
HETATM   11  C           1     -21.037  -7.816  -1.835  0.00  0.00     0.105 C 
BRANCH  11  12
HETATM   12  C           1     -22.130  -6.862  -1.419  0.00  0.00     0.215 C 
HETATM   13  N           1     -22.303  -5.684  -2.094  0.00  0.00    -0.370 N 
HETATM   14  H           1     -21.698  -5.451  -2.872  0.00  0.00     0.159 HD
HETATM   15  H           1     -23.036  -5.043  -1.816  0.00  0.00     0.159 HD
HETATM   16  O           1     -22.852  -7.138  -0.492  0.00  0.00    -0.274 OA
ENDBRANCH  11  12
ENDBRANCH  10  11
ENDBRANCH   6  10
ENDBRANCH   4   6
ENDBRANCH   1   2
BRANCH   1  17
HETATM   17  C           1     -21.423  -4.091  -7.156  0.00  0.00     0.083 C 
BRANCH  17  18
HETATM   18  C           1     -21.271  -4.144  -8.644  0.00  0.00    -0.028 A 
HETATM   19  C           1     -22.291  -3.883  -9.601  0.00  0.00    -0.002 A 
HETATM   20  C           1     -21.721  -4.045 -10.863  0.00  0.00     0.042 A 
HETATM   21  C           1     -23.649  -3.524  -9.512  0.00  0.00     0.014 A 
HETATM   22  N           1     -20.402  -4.390 -10.670  0.00  0.00    -0.365 N 
HETATM   23  C           1     -22.443  -3.864 -12.049  0.00  0.00     0.030 A 
HETATM   24  C           1     -20.120  -4.453  -9.331  0.00  0.00     0.096 A 
HETATM   25  H           1     -19.711  -4.579 -11.439  0.00  0.00     0.165 HD
HETATM   26  C           1     -23.791  -3.508 -11.935  0.00  0.00     0.002 A 
HETATM   27  C           1     -24.387  -3.340 -10.687  0.00  0.00     0.001 A 
ENDBRANCH  17  18
ENDBRANCH   1  17
BRANCH   1  28
HETATM   28  N           1     -23.475  -5.080  -6.205  0.00  0.00    -0.066 N 
HETATM   29  H           1     -23.854  -4.267  -6.741  0.00  0.00     0.275 HD
HETATM   30  H           1     -24.080  -5.916  -6.368  0.00  0.00     0.275 HD
HETATM   31  H           1     -23.464  -4.851  -5.186  0.00  0.00     0.275 HD
ENDBRANCH   1  28
TORSDOF 9
ENDMDL
MODEL 3
REMARK VINA RESULT:      -8.3      3.367      8.666
REMARK  9 active torsions:
REMARK  status: ('A' for Active; 'I' for Inactive)
REMARK    1  A    between atoms: C_1  and  C_31 
REMARK    2  A    between atoms: C_1  and  C_4 
REMARK    3  A    between atoms: C_1  and  N_25 
REMARK    4  A    between atoms: C_4  and  C_14 
REMARK    5  A    between atoms: C_6  and  C_11 
REMARK    6  A    between atoms: C_11  and  C_19 
REMARK    7  A    between atoms: C_11  and  N_20 
REMARK       I    between atoms: N_18  and  C_23 
REMARK    8  A    between atoms: C_19  and  C_29 
REMARK       I    between atoms: N_20  and  C_31 
REMARK    9  A    between atoms: C_23  and  C_29 
ROOT
HETATM    1  C           1     -20.465  -4.360  -7.194  0.00  0.00     0.278 C 
ENDROOT
BRANCH   1   2
HETATM    2  C           1     -20.340  -5.012  -5.840  0.00  0.00     0.249 C 
HETATM    3  O           1     -19.810  -4.420  -4.930  0.00  0.00    -0.271 OA
HETATM    4  N           1     -20.827  -6.277  -5.641  0.00  0.00    -0.345 N 
HETATM    5  H           1     -21.272  -6.773  -6.403  0.00  0.00     0.163 HD
BRANCH   4   6
HETATM    6  C           1     -20.707  -6.903  -4.340  0.00  0.00     0.186 C 
BRANCH   6   7
HETATM    7  C           1     -20.280  -8.340  -4.512  0.00  0.00     0.196 C 
HETATM    8  O           1     -19.876  -8.995  -3.526  0.00  0.00    -0.646 OA
HETATM    9  O           1     -20.331  -8.876  -5.640  0.00  0.00    -0.646 OA
ENDBRANCH   6   7
BRANCH   6  10
HETATM   10  C           1     -22.051  -6.856  -3.625  0.00  0.00     0.045 C 
BRANCH  10  11
HETATM   11  C           1     -21.895  -6.132  -2.295  0.00  0.00     0.105 C 
BRANCH  11  12
HETATM   12  C           1     -22.029  -7.122  -1.164  0.00  0.00     0.215 C 
HETATM   13  N           1     -21.037  -8.038  -0.935  0.00  0.00    -0.370 N 
HETATM   14  H           1     -20.215  -8.052  -1.524  0.00  0.00     0.159 HD
HETATM   15  H           1     -21.127  -8.702  -0.177  0.00  0.00     0.159 HD
HETATM   16  O           1     -23.010  -7.106  -0.460  0.00  0.00    -0.274 OA
ENDBRANCH  11  12
ENDBRANCH  10  11
ENDBRANCH   6  10
ENDBRANCH   4   6
ENDBRANCH   1   2
BRANCH   1  17
HETATM   17  C           1     -21.205  -5.295  -8.142  0.00  0.00     0.083 C 
BRANCH  17  18
HETATM   18  C           1     -22.373  -4.577  -8.742  0.00  0.00    -0.028 A 
HETATM   19  C           1     -22.488  -4.141 -10.091  0.00  0.00    -0.002 A 
HETATM   20  C           1     -23.731  -3.522 -10.218  0.00  0.00     0.042 A 
HETATM   21  C           1     -21.650  -4.217 -11.219  0.00  0.00     0.014 A 
HETATM   22  N           1     -24.342  -3.584  -8.986  0.00  0.00    -0.365 N 
HETATM   23  C           1     -24.182  -2.970 -11.424  0.00  0.00     0.030 A 
HETATM   24  C           1     -23.529  -4.220  -8.085  0.00  0.00     0.096 A 
HETATM   25  H           1     -25.294  -3.198  -8.767  0.00  0.00     0.165 HD
HETATM   26  C           1     -23.331  -3.057 -12.531  0.00  0.00     0.002 A 
HETATM   27  C           1     -22.084  -3.670 -12.433  0.00  0.00     0.001 A 
ENDBRANCH  17  18
ENDBRANCH   1  17
BRANCH   1  28
HETATM   28  N           1     -19.097  -4.076  -7.741  0.00  0.00    -0.066 N 
HETATM   29  H           1     -19.158  -3.321  -8.460  0.00  0.00     0.275 HD
HETATM   30  H           1     -18.470  -3.767  -6.964  0.00  0.00     0.275 HD
HETATM   31  H           1     -18.710  -4.943  -8.177  0.00  0.00     0.275 HD
ENDBRANCH   1  28
TORSDOF 9
ENDMDL
MODEL 4
REMARK VINA RESULT:      -8.3      3.494      8.745
REMARK  9 active torsions:
REMARK  status: ('A' for Active; 'I' for Inactive)
REMARK    1  A    between atoms: C_1  and  C_31 
REMARK    2  A    between atoms: C_1  and  C_4 
REMARK    3  A    between atoms: C_1  and  N_25 
REMARK    4  A    between atoms: C_4  and  C_14 
REMARK    5  A    between atoms: C_6  and  C_11 
REMARK    6  A    between atoms: C_11  and  C_19 
REMARK    7  A    between atoms: C_11  and  N_20 
REMARK       I    between atoms: N_18  and  C_23 
REMARK    8  A    between atoms: C_19  and  C_29 
REMARK       I    between atoms: N_20  and  C_31 
REMARK    9  A    between atoms: C_23  and  C_29 
ROOT
HETATM    1  C           1     -20.869  -5.526  -6.160  0.00  0.00     0.278 C 
ENDROOT
BRANCH   1   2
HETATM    2  C           1     -20.328  -6.875  -5.754  0.00  0.00     0.249 C 
HETATM    3  O           1     -19.494  -7.422  -6.435  0.00  0.00    -0.271 OA
HETATM    4  N           1     -20.784  -7.481  -4.614  0.00  0.00    -0.345 N 
HETATM    5  H           1     -21.482  -7.022  -4.042  0.00  0.00     0.163 HD
BRANCH   4   6
HETATM    6  C           1     -20.265  -8.776  -4.224  0.00  0.00     0.186 C 
BRANCH   6   7
HETATM    7  C           1     -21.195  -9.858  -4.715  0.00  0.00     0.196 C 
HETATM    8  O           1     -21.065 -10.317  -5.871  0.00  0.00    -0.646 OA
HETATM    9  O           1     -22.094 -10.297  -3.966  0.00  0.00    -0.646 OA
ENDBRANCH   6   7
BRANCH   6  10
HETATM   10  C           1     -20.160  -8.848  -2.706  0.00  0.00     0.045 C 
BRANCH  10  11
HETATM   11  C           1     -20.765  -7.592  -2.095  0.00  0.00     0.105 C 
BRANCH  11  12
HETATM   12  C           1     -21.904  -7.974  -1.183  0.00  0.00     0.215 C 
HETATM   13  N           1     -22.281  -9.285  -1.071  0.00  0.00    -0.370 N 
HETATM   14  H           1     -21.797  -9.999  -1.600  0.00  0.00     0.159 HD
HETATM   15  H           1     -23.046  -9.542  -0.459  0.00  0.00     0.159 HD
HETATM   16  O           1     -22.484  -7.124  -0.551  0.00  0.00    -0.274 OA
ENDBRANCH  11  12
ENDBRANCH  10  11
ENDBRANCH   6  10
ENDBRANCH   4   6
ENDBRANCH   1   2
BRANCH   1  17
HETATM   17  C           1     -20.693  -5.338  -7.661  0.00  0.00     0.083 C 
BRANCH  17  18
HETATM   18  C           1     -21.918  -4.697  -8.232  0.00  0.00    -0.028 A 
HETATM   19  C           1     -22.085  -4.253  -9.574  0.00  0.00    -0.002 A 
HETATM   20  C           1     -23.370  -3.720  -9.673  0.00  0.00     0.042 A 
HETATM   21  C           1     -21.263  -4.256 -10.715  0.00  0.00     0.014 A 
HETATM   22  N           1     -23.955  -3.839  -8.431  0.00  0.00    -0.365 N 
HETATM   23  C           1     -23.878  -3.186 -10.863  0.00  0.00     0.030 A 
HETATM   24  C           1     -23.085  -4.428  -7.553  0.00  0.00     0.096 A 
HETATM   25  H           1     -24.927  -3.523  -8.192  0.00  0.00     0.165 HD
HETATM   26  C           1     -23.042  -3.200 -11.985  0.00  0.00     0.002 A 
HETATM   27  C           1     -21.754  -3.726 -11.915  0.00  0.00     0.001 A 
ENDBRANCH  17  18
ENDBRANCH   1  17
BRANCH   1  28
HETATM   28  N           1     -20.121  -4.449  -5.431  0.00  0.00    -0.066 N 
HETATM   29  H           1     -20.477  -4.379  -4.451  0.00  0.00     0.275 HD
HETATM   30  H           1     -19.102  -4.681  -5.416  0.00  0.00     0.275 HD
HETATM   31  H           1     -20.263  -3.536  -5.919  0.00  0.00     0.275 HD
ENDBRANCH   1  28
TORSDOF 9
ENDMDL
MODEL 5
REMARK VINA RESULT:      -7.8      3.343      8.470
REMARK  9 active torsions:
REMARK  status: ('A' for Active; 'I' for Inactive)
REMARK    1  A    between atoms: C_1  and  C_31 
REMARK    2  A    between atoms: C_1  and  C_4 
REMARK    3  A    between atoms: C_1  and  N_25 
REMARK    4  A    between atoms: C_4  and  C_14 
REMARK    5  A    between atoms: C_6  and  C_11 
REMARK    6  A    between atoms: C_11  and  C_19 
REMARK    7  A    between atoms: C_11  and  N_20 
REMARK       I    between atoms: N_18  and  C_23 
REMARK    8  A    between atoms: C_19  and  C_29 
REMARK       I    between atoms: N_20  and  C_31 
REMARK    9  A    between atoms: C_23  and  C_29 
ROOT
HETATM    1  C           1     -21.145  -5.472  -5.957  0.00  0.00     0.278 C 
ENDROOT
BRANCH   1   2
HETATM    2  C           1     -21.064  -6.902  -5.482  0.00  0.00     0.249 C 
HETATM    3  O           1     -21.197  -7.809  -6.268  0.00  0.00    -0.271 OA
HETATM    4  N           1     -20.841  -7.171  -4.158  0.00  0.00    -0.345 N 
HETATM    5  H           1     -20.728  -6.412  -3.499  0.00  0.00     0.163 HD
BRANCH   4   6
HETATM    6  C           1     -20.763  -8.545  -3.701  0.00  0.00     0.186 C 
BRANCH   6   7
HETATM    7  C           1     -21.474  -8.674  -2.377  0.00  0.00     0.196 C 
HETATM    8  O           1     -21.574  -7.683  -1.621  0.00  0.00    -0.646 OA
HETATM    9  O           1     -21.965  -9.772  -2.036  0.00  0.00    -0.646 OA
ENDBRANCH   6   7
BRANCH   6  10
HETATM   10  C           1     -19.303  -8.944  -3.534  0.00  0.00     0.045 C 
BRANCH  10  11
HETATM   11  C           1     -19.088 -10.339  -4.104  0.00  0.00     0.105 C 
BRANCH  11  12
HETATM   12  C           1     -18.997 -10.259  -5.608  0.00  0.00     0.215 C 
HETATM   13  N           1     -18.280  -9.253  -6.198  0.00  0.00    -0.370 N 
HETATM   14  H           1     -17.812  -8.562  -5.625  0.00  0.00     0.159 HD
HETATM   15  H           1     -18.218  -9.199  -7.207  0.00  0.00     0.159 HD
HETATM   16  O           1     -19.555 -11.083  -6.292  0.00  0.00    -0.274 OA
ENDBRANCH  11  12
ENDBRANCH  10  11
ENDBRANCH   6  10
ENDBRANCH   4   6
ENDBRANCH   1   2
BRANCH   1  17
HETATM   17  C           1     -20.878  -5.419  -7.456  0.00  0.00     0.083 C 
BRANCH  17  18
HETATM   18  C           1     -22.013  -4.726  -8.142  0.00  0.00    -0.028 A 
HETATM   19  C           1     -22.035  -4.293  -9.497  0.00  0.00    -0.002 A 
HETATM   20  C           1     -23.278  -3.699  -9.718  0.00  0.00     0.042 A 
HETATM   21  C           1     -21.114  -4.351 -10.559  0.00  0.00     0.014 A 
HETATM   22  N           1     -23.978  -3.773  -8.534  0.00  0.00    -0.365 N 
HETATM   23  C           1     -23.648  -3.157 -10.955  0.00  0.00     0.030 A 
HETATM   24  C           1     -23.222  -4.392  -7.575  0.00  0.00     0.096 A 
HETATM   25  H           1     -24.952  -3.407  -8.388  0.00  0.00     0.165 HD
HETATM   26  C           1     -22.716  -3.227 -11.995  0.00  0.00     0.002 A 
HETATM   27  C           1     -21.467  -3.814 -11.803  0.00  0.00     0.001 A 
ENDBRANCH  17  18
ENDBRANCH   1  17
BRANCH   1  28
HETATM   28  N           1     -20.119  -4.647  -5.237  0.00  0.00    -0.066 N 
HETATM   29  H           1     -19.895  -3.797  -5.802  0.00  0.00     0.275 HD
HETATM   30  H           1     -20.495  -4.358  -4.307  0.00  0.00     0.275 HD
HETATM   31  H           1     -19.251  -5.213  -5.102  0.00  0.00     0.275 HD
ENDBRANCH   1  28
TORSDOF 9
ENDMDL
MODEL 6
REMARK VINA RESULT:      -7.7      1.920      3.356
REMARK  9 active torsions:
REMARK  status: ('A' for Active; 'I' for Inactive)
REMARK    1  A    between atoms: C_1  and  C_31 
REMARK    2  A    between atoms: C_1  and  C_4 
REMARK    3  A    between atoms: C_1  and  N_25 
REMARK    4  A    between atoms: C_4  and  C_14 
REMARK    5  A    between atoms: C_6  and  C_11 
REMARK    6  A    between atoms: C_11  and  C_19 
REMARK    7  A    between atoms: C_11  and  N_20 
REMARK       I    between atoms: N_18  and  C_23 
REMARK    8  A    between atoms: C_19  and  C_29 
REMARK       I    between atoms: N_20  and  C_31 
REMARK    9  A    between atoms: C_23  and  C_29 
ROOT
HETATM    1  C           1     -21.399  -7.517  -5.232  0.00  0.00     0.278 C 
ENDROOT
BRANCH   1   2
HETATM    2  C           1     -21.143  -6.635  -6.428  0.00  0.00     0.249 C 
HETATM    3  O           1     -20.110  -6.737  -7.045  0.00  0.00    -0.271 OA
HETATM    4  N           1     -22.083  -5.717  -6.816  0.00  0.00    -0.345 N 
HETATM    5  H           1     -22.949  -5.632  -6.301  0.00  0.00     0.163 HD
BRANCH   4   6
HETATM    6  C           1     -21.837  -4.870  -7.966  0.00  0.00     0.186 C 
BRANCH   6   7
HETATM    7  C           1     -20.855  -3.788  -7.591  0.00  0.00     0.196 C 
HETATM    8  O           1     -21.152  -2.951  -6.711  0.00  0.00    -0.646 OA
HETATM    9  O           1     -19.743  -3.729  -8.159  0.00  0.00    -0.646 OA
ENDBRANCH   6   7
BRANCH   6  10
HETATM   10  C           1     -23.144  -4.233  -8.420  0.00  0.00     0.045 C 
BRANCH  10  11
HETATM   11  C           1     -23.275  -4.363  -9.931  0.00  0.00     0.105 C 
BRANCH  11  12
HETATM   12  C           1     -24.460  -3.558 -10.405  0.00  0.00     0.215 C 
HETATM   13  N           1     -25.626  -3.571  -9.688  0.00  0.00    -0.370 N 
HETATM   14  H           1     -25.694  -4.120  -8.841  0.00  0.00     0.159 HD
HETATM   15  H           1     -26.422  -3.031 -10.005  0.00  0.00     0.159 HD
HETATM   16  O           1     -24.381  -2.902 -11.416  0.00  0.00    -0.274 OA
ENDBRANCH  11  12
ENDBRANCH  10  11
ENDBRANCH   6  10
ENDBRANCH   4   6
ENDBRANCH   1   2
BRANCH   1  17
HETATM   17  C           1     -20.430  -7.153  -4.115  0.00  0.00     0.083 C 
BRANCH  17  18
HETATM   18  C           1     -21.156  -7.141  -2.806  0.00  0.00    -0.028 A 
HETATM   19  C           1     -21.100  -8.152  -1.807  0.00  0.00    -0.002 A 
HETATM   20  C           1     -21.923  -7.740  -0.759  0.00  0.00     0.042 A 
HETATM   21  C           1     -20.425  -9.382  -1.694  0.00  0.00     0.014 A 
HETATM   22  N           1     -22.455  -6.522  -1.118  0.00  0.00    -0.365 N 
HETATM   23  C           1     -22.107  -8.500   0.403  0.00  0.00     0.030 A 
HETATM   24  C           1     -21.998  -6.151  -2.354  0.00  0.00     0.096 A 
HETATM   25  H           1     -23.118  -5.958  -0.529  0.00  0.00     0.165 HD
HETATM   26  C           1     -21.425  -9.718   0.492  0.00  0.00     0.002 A 
HETATM   27  C           1     -20.596 -10.155  -0.540  0.00  0.00     0.001 A 
ENDBRANCH  17  18
ENDBRANCH   1  17
BRANCH   1  28
HETATM   28  N           1     -21.200  -8.953  -5.618  0.00  0.00    -0.066 N 
HETATM   29  H           1     -22.105  -9.467  -5.528  0.00  0.00     0.275 HD
HETATM   30  H           1     -20.866  -9.004  -6.606  0.00  0.00     0.275 HD
HETATM   31  H           1     -20.489  -9.387  -4.987  0.00  0.00     0.275 HD
ENDBRANCH   1  28
TORSDOF 9
ENDMDL
MODEL 7
REMARK VINA RESULT:      -7.5      1.657      2.335
REMARK  9 active torsions:
REMARK  status: ('A' for Active; 'I' for Inactive)
REMARK    1  A    between atoms: C_1  and  C_31 
REMARK    2  A    between atoms: C_1  and  C_4 
REMARK    3  A    between atoms: C_1  and  N_25 
REMARK    4  A    between atoms: C_4  and  C_14 
REMARK    5  A    between atoms: C_6  and  C_11 
REMARK    6  A    between atoms: C_11  and  C_19 
REMARK    7  A    between atoms: C_11  and  N_20 
REMARK       I    between atoms: N_18  and  C_23 
REMARK    8  A    between atoms: C_19  and  C_29 
REMARK       I    between atoms: N_20  and  C_31 
REMARK    9  A    between atoms: C_23  and  C_29 
ROOT
HETATM    1  C           1     -21.662  -5.696  -5.288  0.00  0.00     0.278 C 
ENDROOT
BRANCH   1   2
HETATM    2  C           1     -21.486  -5.725  -6.786  0.00  0.00     0.249 C 
HETATM    3  O           1     -20.911  -6.648  -7.310  0.00  0.00    -0.271 OA
HETATM    4  N           1     -21.979  -4.702  -7.553  0.00  0.00    -0.345 N 
HETATM    5  H           1     -22.462  -3.929  -7.115  0.00  0.00     0.163 HD
BRANCH   4   6
HETATM    6  C           1     -21.810  -4.730  -8.992  0.00  0.00     0.186 C 
BRANCH   6   7
HETATM    7  C           1     -20.386  -4.372  -9.338  0.00  0.00     0.196 C 
HETATM    8  O           1     -19.874  -4.794 -10.397  0.00  0.00    -0.646 OA
HETATM    9  O           1     -19.718  -3.652  -8.565  0.00  0.00    -0.646 OA
ENDBRANCH   6   7
BRANCH   6  10
HETATM   10  C           1     -22.756  -3.725  -9.636  0.00  0.00     0.045 C 
BRANCH  10  11
HETATM   11  C           1     -23.300  -4.299 -10.937  0.00  0.00     0.105 C 
BRANCH  11  12
HETATM   12  C           1     -22.862  -3.433 -12.092  0.00  0.00     0.215 C 
HETATM   13  N           1     -21.662  -3.668 -12.707  0.00  0.00    -0.370 N 
HETATM   14  H           1     -21.068  -4.422 -12.387  0.00  0.00     0.159 HD
HETATM   15  H           1     -21.367  -3.086 -13.482  0.00  0.00     0.159 HD
HETATM   16  O           1     -23.570  -2.532 -12.475  0.00  0.00    -0.274 OA
ENDBRANCH  11  12
ENDBRANCH  10  11
ENDBRANCH   6  10
ENDBRANCH   4   6
ENDBRANCH   1   2
BRANCH   1  17
HETATM   17  C           1     -20.483  -6.395  -4.624  0.00  0.00     0.083 C 
BRANCH  17  18
HETATM   18  C           1     -20.954  -7.652  -3.964  0.00  0.00    -0.028 A 
HETATM   19  C           1     -21.472  -7.763  -2.643  0.00  0.00    -0.002 A 
HETATM   20  C           1     -21.787  -9.106  -2.436  0.00  0.00     0.042 A 
HETATM   21  C           1     -21.704  -6.845  -1.602  0.00  0.00     0.014 A 
HETATM   22  N           1     -21.469  -9.779  -3.595  0.00  0.00    -0.365 N 
HETATM   23  C           1     -22.325  -9.581  -1.234  0.00  0.00     0.030 A 
HETATM   24  C           1     -20.964  -8.909  -4.525  0.00  0.00     0.096 A 
HETATM   25  H           1     -21.594 -10.811  -3.744  0.00  0.00     0.165 HD
HETATM   26  C           1     -22.546  -8.649  -0.214  0.00  0.00     0.002 A 
HETATM   27  C           1     -22.241  -7.302  -0.392  0.00  0.00     0.001 A 
ENDBRANCH  17  18
ENDBRANCH   1  17
BRANCH   1  28
HETATM   28  N           1     -22.933  -6.403  -4.920  0.00  0.00    -0.066 N 
HETATM   29  H           1     -23.719  -5.715  -4.890  0.00  0.00     0.275 HD
HETATM   30  H           1     -23.141  -7.138  -5.633  0.00  0.00     0.275 HD
HETATM   31  H           1     -22.824  -6.849  -3.982  0.00  0.00     0.275 HD
ENDBRANCH   1  28
TORSDOF 9
ENDMDL
MODEL 8
REMARK VINA RESULT:      -7.4      4.820      7.853
REMARK  9 active torsions:
REMARK  status: ('A' for Active; 'I' for Inactive)
REMARK    1  A    between atoms: C_1  and  C_31 
REMARK    2  A    between atoms: C_1  and  C_4 
REMARK    3  A    between atoms: C_1  and  N_25 
REMARK    4  A    between atoms: C_4  and  C_14 
REMARK    5  A    between atoms: C_6  and  C_11 
REMARK    6  A    between atoms: C_11  and  C_19 
REMARK    7  A    between atoms: C_11  and  N_20 
REMARK       I    between atoms: N_18  and  C_23 
REMARK    8  A    between atoms: C_19  and  C_29 
REMARK       I    between atoms: N_20  and  C_31 
REMARK    9  A    between atoms: C_23  and  C_29 
ROOT
HETATM    1  C           1     -23.428  -3.830 -13.335  0.00  0.00     0.278 C 
ENDROOT
BRANCH   1   2
HETATM    2  C           1     -24.170  -5.097 -13.680  0.00  0.00     0.249 C 
HETATM    3  O           1     -24.232  -5.999 -12.878  0.00  0.00    -0.271 OA
HETATM    4  N           1     -24.773  -5.226 -14.902  0.00  0.00    -0.345 N 
HETATM    5  H           1     -24.722  -4.471 -15.574  0.00  0.00     0.163 HD
BRANCH   4   6
HETATM    6  C           1     -25.486  -6.444 -15.234  0.00  0.00     0.186 C 
BRANCH   6   7
HETATM    7  C           1     -24.780  -7.147 -16.367  0.00  0.00     0.196 C 
HETATM    8  O           1     -24.748  -6.626 -17.503  0.00  0.00    -0.646 OA
HETATM    9  O           1     -24.225  -8.249 -16.169  0.00  0.00    -0.646 OA
ENDBRANCH   6   7
BRANCH   6  10
HETATM   10  C           1     -26.909  -6.102 -15.657  0.00  0.00     0.045 C 
BRANCH  10  11
HETATM   11  C           1     -27.762  -7.363 -15.637  0.00  0.00     0.105 C 
BRANCH  11  12
HETATM   12  C           1     -28.929  -7.197 -16.579  0.00  0.00     0.215 C 
HETATM   13  N           1     -29.379  -8.267 -17.305  0.00  0.00    -0.370 N 
HETATM   14  H           1     -28.930  -9.168 -17.210  0.00  0.00     0.159 HD
HETATM   15  H           1     -30.162  -8.156 -17.938  0.00  0.00     0.159 HD
HETATM   16  O           1     -29.465  -6.121 -16.693  0.00  0.00    -0.274 OA
ENDBRANCH  11  12
ENDBRANCH  10  11
ENDBRANCH   6  10
ENDBRANCH   4   6
ENDBRANCH   1   2
BRANCH   1  17
HETATM   17  C           1     -24.292  -2.966 -12.425  0.00  0.00     0.083 C 
BRANCH  17  18
HETATM   18  C           1     -23.983  -3.281 -10.995  0.00  0.00    -0.028 A 
HETATM   19  C           1     -22.705  -3.614 -10.467  0.00  0.00    -0.002 A 
HETATM   20  C           1     -22.870  -3.830  -9.098  0.00  0.00     0.042 A 
HETATM   21  C           1     -21.420  -3.752 -11.024  0.00  0.00     0.014 A 
HETATM   22  N           1     -24.203  -3.632  -8.816  0.00  0.00    -0.365 N 
HETATM   23  C           1     -21.809  -4.179  -8.254  0.00  0.00     0.030 A 
HETATM   24  C           1     -24.885  -3.300  -9.956  0.00  0.00     0.096 A 
HETATM   25  H           1     -24.635  -3.724  -7.863  0.00  0.00     0.165 HD
HETATM   26  C           1     -20.542  -4.311  -8.831  0.00  0.00     0.002 A 
HETATM   27  C           1     -20.348  -4.101 -10.195  0.00  0.00     0.001 A 
ENDBRANCH  17  18
ENDBRANCH   1  17
BRANCH   1  28
HETATM   28  N           1     -23.117  -3.074 -14.593  0.00  0.00    -0.066 N 
HETATM   29  H           1     -24.003  -2.704 -15.005  0.00  0.00     0.275 HD
HETATM   30  H           1     -22.476  -2.280 -14.373  0.00  0.00     0.275 HD
HETATM   31  H           1     -22.656  -3.715 -15.278  0.00  0.00     0.275 HD
ENDBRANCH   1  28
TORSDOF 9
ENDMDL
MODEL 9
REMARK VINA RESULT:      -7.4      3.255      9.103
REMARK  9 active torsions:
REMARK  status: ('A' for Active; 'I' for Inactive)
REMARK    1  A    between atoms: C_1  and  C_31 
REMARK    2  A    between atoms: C_1  and  C_4 
REMARK    3  A    between atoms: C_1  and  N_25 
REMARK    4  A    between atoms: C_4  and  C_14 
REMARK    5  A    between atoms: C_6  and  C_11 
REMARK    6  A    between atoms: C_11  and  C_19 
REMARK    7  A    between atoms: C_11  and  N_20 
REMARK       I    between atoms: N_18  and  C_23 
REMARK    8  A    between atoms: C_19  and  C_29 
REMARK       I    between atoms: N_20  and  C_31 
REMARK    9  A    between atoms: C_23  and  C_29 
ROOT
HETATM    1  C           1     -21.215  -5.641  -6.112  0.00  0.00     0.278 C 
ENDROOT
BRANCH   1   2
HETATM    2  C           1     -21.929  -6.307  -4.963  0.00  0.00     0.249 C 
HETATM    3  O           1     -23.137  -6.339  -4.938  0.00  0.00    -0.271 OA
HETATM    4  N           1     -21.209  -6.876  -3.946  0.00  0.00    -0.345 N 
HETATM    5  H           1     -20.198  -6.850  -3.967  0.00  0.00     0.163 HD
BRANCH   4   6
HETATM    6  C           1     -21.896  -7.516  -2.842  0.00  0.00     0.186 C 
BRANCH   6   7
HETATM    7  C           1     -22.178  -6.496  -1.767  0.00  0.00     0.196 C 
HETATM    8  O           1     -22.722  -6.848  -0.698  0.00  0.00    -0.646 OA
HETATM    9  O           1     -21.867  -5.298  -1.945  0.00  0.00    -0.646 OA
ENDBRANCH   6   7
BRANCH   6  10
HETATM   10  C           1     -21.021  -8.625  -2.272  0.00  0.00     0.045 C 
BRANCH  10  11
HETATM   11  C           1     -21.826  -9.914  -2.184  0.00  0.00     0.105 C 
BRANCH  11  12
HETATM   12  C           1     -22.137 -10.217  -0.739  0.00  0.00     0.215 C 
HETATM   13  N           1     -23.332  -9.825  -0.200  0.00  0.00    -0.370 N 
HETATM   14  H           1     -24.008  -9.332  -0.770  0.00  0.00     0.159 HD
HETATM   15  H           1     -23.542 -10.028   0.770  0.00  0.00     0.159 HD
HETATM   16  O           1     -21.332 -10.806  -0.058  0.00  0.00    -0.274 OA
ENDBRANCH  11  12
ENDBRANCH  10  11
ENDBRANCH   6  10
ENDBRANCH   4   6
ENDBRANCH   1   2
BRANCH   1  17
HETATM   17  C           1     -22.151  -4.645  -6.784  0.00  0.00     0.083 C 
BRANCH  17  18
HETATM   18  C           1     -21.620  -4.295  -8.139  0.00  0.00    -0.028 A 
HETATM   19  C           1     -22.397  -3.980  -9.289  0.00  0.00    -0.002 A 
HETATM   20  C           1     -21.504  -3.720 -10.329  0.00  0.00     0.042 A 
HETATM   21  C           1     -23.778  -3.892  -9.543  0.00  0.00     0.014 A 
HETATM   22  N           1     -20.234  -3.873  -9.820  0.00  0.00    -0.365 N 
HETATM   23  C           1     -21.926  -3.373 -11.618  0.00  0.00     0.030 A 
HETATM   24  C           1     -20.293  -4.221  -8.496  0.00  0.00     0.096 A 
HETATM   25  H           1     -19.347  -3.742 -10.367  0.00  0.00     0.165 HD
HETATM   26  C           1     -23.303  -3.291 -11.847  0.00  0.00     0.002 A 
HETATM   27  C           1     -24.218  -3.547 -10.827  0.00  0.00     0.001 A 
ENDBRANCH  17  18
ENDBRANCH   1  17
BRANCH   1  28
HETATM   28  N           1     -20.794  -6.681  -7.109  0.00  0.00    -0.066 N 
HETATM   29  H           1     -20.735  -6.250  -8.059  0.00  0.00     0.275 HD
HETATM   30  H           1     -19.858  -7.061  -6.840  0.00  0.00     0.275 HD
HETATM   31  H           1     -21.495  -7.455  -7.121  0.00  0.00     0.275 HD
ENDBRANCH   1  28
TORSDOF 9
ENDMDL
