MODEL 1
REMARK VINA RESULT:      -6.4      0.000      0.000
REMARK  10 active torsions:
REMARK  status: ('A' for Active; 'I' for Inactive)
REMARK    1  A    between atoms: N_7  and  C_14 
REMARK    2  A    between atoms: O_10  and  P_11 
REMARK    3  A    between atoms: P_11  and  O_12 
REMARK    4  A    between atoms: O_12  and  C_13 
REMARK    5  A    between atoms: C_13  and  C_14 
REMARK    6  A    between atoms: C_14  and  C_15 
REMARK       I    between atoms: C_15  and  N_16 
REMARK    7  A    between atoms: N_16  and  C_20 
REMARK    8  A    between atoms: C_19  and  C_20 
REMARK    9  A    between atoms: C_20  and  C_21 
REMARK   10  A    between atoms: C_21  and  C_23 
ROOT
HETATM    1  C           1     -34.244  -3.960 -12.495  0.00  0.00     0.298 C 
ENDROOT
BRANCH   1   2
HETATM    2  N           1     -33.670  -4.114 -13.872  0.00  0.00    -0.064 N 
HETATM    3  H           1     -32.910  -4.832 -13.854  0.00  0.00     0.275 HD
HETATM    4  H           1     -33.279  -3.198 -14.190  0.00  0.00     0.275 HD
HETATM    5  H           1     -34.421  -4.419 -14.531  0.00  0.00     0.275 HD
ENDBRANCH   1   2
BRANCH   1   6
HETATM    6  C           1     -33.331  -4.644 -11.486  0.00  0.00     0.224 C 
BRANCH   6   7
HETATM    7  O           1     -34.106  -5.220 -10.469  0.00  0.00    -0.287 OA
BRANCH   7   8
HETATM    8  P           1     -34.381  -6.806 -10.601  0.00  0.00     0.406 P 
HETATM    9  O           1     -35.257  -7.249  -9.494  0.00  0.00    -0.624 OA
HETATM   10  O           1     -33.095  -7.535 -10.537  0.00  0.00    -0.624 OA
BRANCH   8  11
HETATM   11  O           1     -35.103  -7.113 -12.013  0.00  0.00    -0.300 OA
HETATM   12  H           1     -34.399  -7.201 -12.632  0.00  0.00     0.223 HD
ENDBRANCH   8  11
ENDBRANCH   7   8
ENDBRANCH   6   7
ENDBRANCH   1   6
BRANCH   1  13
HETATM   13  C           1     -34.358  -2.494 -12.158  0.00  0.00     0.251 C 
HETATM   14  O           1     -33.749  -2.040 -11.219  0.00  0.00    -0.271 OA
HETATM   15  N           1     -35.151  -1.677 -12.918  0.00  0.00    -0.344 N 
HETATM   16  H           1     -35.662  -2.056 -13.705  0.00  0.00     0.163 HD
BRANCH  15  17
HETATM   17  C           1     -35.260  -0.267 -12.595  0.00  0.00     0.195 C 
BRANCH  17  18
HETATM   18  C           1     -36.429  -0.054 -11.665  0.00  0.00     0.197 C 
HETATM   19  O           1     -36.256   0.512 -10.563  0.00  0.00    -0.646 OA
HETATM   20  O           1     -37.570  -0.444 -11.994  0.00  0.00    -0.646 OA
ENDBRANCH  17  18
BRANCH  17  21
HETATM   21  C           1     -35.477   0.530 -13.874  0.00  0.00     0.149 C 
BRANCH  21  22
HETATM   22  C           1     -35.745  -0.416 -15.019  0.00  0.00     0.175 C 
HETATM   23  O           1     -34.800  -0.818 -15.732  0.00  0.00    -0.648 OA
HETATM   24  O           1     -36.911  -0.799 -15.254  0.00  0.00    -0.648 OA
ENDBRANCH  21  22
ENDBRANCH  17  21
ENDBRANCH  15  17
ENDBRANCH   1  13
TORSDOF 10
ENDMDL
MODEL 2
REMARK VINA RESULT:      -6.2     11.738     14.298
REMARK  10 active torsions:
REMARK  status: ('A' for Active; 'I' for Inactive)
REMARK    1  A    between atoms: N_7  and  C_14 
REMARK    2  A    between atoms: O_10  and  P_11 
REMARK    3  A    between atoms: P_11  and  O_12 
REMARK    4  A    between atoms: O_12  and  C_13 
REMARK    5  A    between atoms: C_13  and  C_14 
REMARK    6  A    between atoms: C_14  and  C_15 
REMARK       I    between atoms: C_15  and  N_16 
REMARK    7  A    between atoms: N_16  and  C_20 
REMARK    8  A    between atoms: C_19  and  C_20 
REMARK    9  A    between atoms: C_20  and  C_21 
REMARK   10  A    between atoms: C_21  and  C_23 
ROOT
HETATM    1  C           1     -24.157  -4.763  -9.653  0.00  0.00     0.298 C 
ENDROOT
BRANCH   1   2
HETATM    2  N           1     -25.363  -3.870  -9.637  0.00  0.00    -0.064 N 
HETATM    3  H           1     -25.485  -3.435 -10.580  0.00  0.00     0.275 HD
HETATM    4  H           1     -25.231  -3.121  -8.920  0.00  0.00     0.275 HD
HETATM    5  H           1     -26.210  -4.433  -9.401  0.00  0.00     0.275 HD
ENDBRANCH   1   2
BRANCH   1   6
HETATM    6  C           1     -23.774  -5.072 -11.093  0.00  0.00     0.224 C 
BRANCH   6   7
HETATM    7  O           1     -23.211  -3.931 -11.682  0.00  0.00    -0.287 OA
BRANCH   7   8
HETATM    8  P           1     -24.009  -3.319 -12.947  0.00  0.00     0.406 P 
HETATM    9  O           1     -23.261  -2.164 -13.490  0.00  0.00    -0.624 OA
HETATM   10  O           1     -25.354  -2.880 -12.514  0.00  0.00    -0.624 OA
BRANCH   8  11
HETATM   11  O           1     -24.155  -4.450 -14.091  0.00  0.00    -0.300 OA
HETATM   12  H           1     -24.397  -5.234 -13.629  0.00  0.00     0.223 HD
ENDBRANCH   8  11
ENDBRANCH   7   8
ENDBRANCH   6   7
ENDBRANCH   1   6
BRANCH   1  13
HETATM   13  C           1     -23.009  -4.070  -8.963  0.00  0.00     0.251 C 
HETATM   14  O           1     -22.860  -2.878  -9.088  0.00  0.00    -0.271 OA
HETATM   15  N           1     -22.137  -4.791  -8.193  0.00  0.00    -0.344 N 
HETATM   16  H           1     -22.261  -5.790  -8.087  0.00  0.00     0.163 HD
BRANCH  15  17
HETATM   17  C           1     -21.033  -4.124  -7.529  0.00  0.00     0.195 C 
BRANCH  17  18
HETATM   18  C           1     -19.753  -4.407  -8.276  0.00  0.00     0.197 C 
HETATM   19  O           1     -18.655  -4.341  -7.682  0.00  0.00    -0.646 OA
HETATM   20  O           1     -19.790  -4.706  -9.489  0.00  0.00    -0.646 OA
ENDBRANCH  17  18
BRANCH  17  21
HETATM   21  C           1     -20.913  -4.641  -6.101  0.00  0.00     0.149 C 
BRANCH  21  22
HETATM   22  C           1     -21.653  -5.951  -5.976  0.00  0.00     0.175 C 
HETATM   23  O           1     -21.173  -6.991  -6.479  0.00  0.00    -0.648 OA
HETATM   24  O           1     -22.745  -5.997  -5.370  0.00  0.00    -0.648 OA
ENDBRANCH  21  22
ENDBRANCH  17  21
ENDBRANCH  15  17
ENDBRANCH   1  13
TORSDOF 10
ENDMDL
MODEL 3
REMARK VINA RESULT:      -5.8     25.517     26.864
REMARK  10 active torsions:
REMARK  status: ('A' for Active; 'I' for Inactive)
REMARK    1  A    between atoms: N_7  and  C_14 
REMARK    2  A    between atoms: O_10  and  P_11 
REMARK    3  A    between atoms: P_11  and  O_12 
REMARK    4  A    between atoms: O_12  and  C_13 
REMARK    5  A    between atoms: C_13  and  C_14 
REMARK    6  A    between atoms: C_14  and  C_15 
REMARK       I    between atoms: C_15  and  N_16 
REMARK    7  A    between atoms: N_16  and  C_20 
REMARK    8  A    between atoms: C_19  and  C_20 
REMARK    9  A    between atoms: C_20  and  C_21 
REMARK   10  A    between atoms: C_21  and  C_23 
ROOT
HETATM    1  C           1     -10.207   5.074 -20.022  0.00  0.00     0.298 C 
ENDROOT
BRANCH   1   2
HETATM    2  N           1      -9.561   5.630 -18.787  0.00  0.00    -0.064 N 
HETATM    3  H           1      -8.609   5.212 -18.675  0.00  0.00     0.275 HD
HETATM    4  H           1     -10.146   5.396 -17.954  0.00  0.00     0.275 HD
HETATM    5  H           1      -9.477   6.667 -18.874  0.00  0.00     0.275 HD
ENDBRANCH   1   2
BRANCH   1   6
HETATM    6  C           1     -11.463   4.306 -19.636  0.00  0.00     0.224 C 
BRANCH   6   7
HETATM    7  O           1     -12.494   5.210 -19.346  0.00  0.00    -0.287 OA
BRANCH   7   8
HETATM    8  P           1     -13.802   5.118 -20.291  0.00  0.00     0.406 P 
HETATM    9  O           1     -15.021   5.215 -19.457  0.00  0.00    -0.624 OA
HETATM   10  O           1     -13.797   3.827 -21.013  0.00  0.00    -0.624 OA
BRANCH   8  11
HETATM   11  O           1     -13.783   6.331 -21.358  0.00  0.00    -0.300 OA
HETATM   12  H           1     -14.658   6.366 -21.702  0.00  0.00     0.223 HD
ENDBRANCH   8  11
ENDBRANCH   7   8
ENDBRANCH   6   7
ENDBRANCH   1   6
BRANCH   1  13
HETATM   13  C           1     -10.574   6.206 -20.950  0.00  0.00     0.251 C 
HETATM   14  O           1     -10.729   5.994 -22.129  0.00  0.00    -0.271 OA
HETATM   15  N           1     -10.733   7.472 -20.456  0.00  0.00    -0.344 N 
HETATM   16  H           1     -10.603   7.650 -19.469  0.00  0.00     0.163 HD
BRANCH  15  17
HETATM   17  C           1     -11.086   8.560 -21.348  0.00  0.00     0.195 C 
BRANCH  17  18
HETATM   18  C           1      -9.853   9.369 -21.666  0.00  0.00     0.197 C 
HETATM   19  O           1      -8.967   9.527 -20.798  0.00  0.00    -0.646 OA
HETATM   20  O           1      -9.716   9.883 -22.797  0.00  0.00    -0.646 OA
ENDBRANCH  17  18
BRANCH  17  21
HETATM   21  C           1     -12.121   9.452 -20.676  0.00  0.00     0.149 C 
BRANCH  21  22
HETATM   22  C           1     -12.352   8.976 -19.262  0.00  0.00     0.175 C 
HETATM   23  O           1     -11.495   9.198 -18.379  0.00  0.00    -0.648 OA
HETATM   24  O           1     -13.402   8.361 -18.973  0.00  0.00    -0.648 OA
ENDBRANCH  21  22
ENDBRANCH  17  21
ENDBRANCH  15  17
ENDBRANCH   1  13
TORSDOF 10
ENDMDL
MODEL 4
REMARK VINA RESULT:      -5.8     12.430     14.784
REMARK  10 active torsions:
REMARK  status: ('A' for Active; 'I' for Inactive)
REMARK    1  A    between atoms: N_7  and  C_14 
REMARK    2  A    between atoms: O_10  and  P_11 
REMARK    3  A    between atoms: P_11  and  O_12 
REMARK    4  A    between atoms: O_12  and  C_13 
REMARK    5  A    between atoms: C_13  and  C_14 
REMARK    6  A    between atoms: C_14  and  C_15 
REMARK       I    between atoms: C_15  and  N_16 
REMARK    7  A    between atoms: N_16  and  C_20 
REMARK    8  A    between atoms: C_19  and  C_20 
REMARK    9  A    between atoms: C_20  and  C_21 
REMARK   10  A    between atoms: C_21  and  C_23 
ROOT
HETATM    1  C           1     -21.468  -3.326 -11.219  0.00  0.00     0.298 C 
ENDROOT
BRANCH   1   2
HETATM    2  N           1     -20.084  -3.729 -11.635  0.00  0.00    -0.064 N 
HETATM    3  H           1     -19.383  -3.174 -11.093  0.00  0.00     0.275 HD
HETATM    4  H           1     -19.962  -3.546 -12.657  0.00  0.00     0.275 HD
HETATM    5  H           1     -19.946  -4.746 -11.444  0.00  0.00     0.275 HD
ENDBRANCH   1   2
BRANCH   1   6
HETATM    6  C           1     -22.437  -3.579 -12.365  0.00  0.00     0.224 C 
BRANCH   6   7
HETATM    7  O           1     -22.835  -2.354 -12.920  0.00  0.00    -0.287 OA
BRANCH   7   8
HETATM    8  P           1     -23.507  -2.427 -14.388  0.00  0.00     0.406 P 
HETATM    9  O           1     -24.131  -3.755 -14.579  0.00  0.00    -0.624 OA
HETATM   10  O           1     -22.466  -2.216 -15.417  0.00  0.00    -0.624 OA
BRANCH   8  11
HETATM   11  O           1     -24.636  -1.279 -14.521  0.00  0.00    -0.300 OA
HETATM   12  H           1     -24.684  -0.885 -13.668  0.00  0.00     0.223 HD
ENDBRANCH   8  11
ENDBRANCH   7   8
ENDBRANCH   6   7
ENDBRANCH   1   6
BRANCH   1  13
HETATM   13  C           1     -21.887  -4.134 -10.016  0.00  0.00     0.251 C 
HETATM   14  O           1     -23.043  -4.460  -9.881  0.00  0.00    -0.271 OA
HETATM   15  N           1     -20.959  -4.501  -9.080  0.00  0.00    -0.344 N 
HETATM   16  H           1     -19.991  -4.227  -9.193  0.00  0.00     0.163 HD
BRANCH  15  17
HETATM   17  C           1     -21.362  -5.279  -7.925  0.00  0.00     0.195 C 
BRANCH  17  18
HETATM   18  C           1     -22.111  -4.393  -6.959  0.00  0.00     0.197 C 
HETATM   19  O           1     -23.215  -4.760  -6.501  0.00  0.00    -0.646 OA
HETATM   20  O           1     -21.628  -3.292  -6.616  0.00  0.00    -0.646 OA
ENDBRANCH  17  18
BRANCH  17  21
HETATM   21  C           1     -20.126  -5.847  -7.239  0.00  0.00     0.149 C 
BRANCH  21  22
HETATM   22  C           1     -20.548  -6.721  -6.084  0.00  0.00     0.175 C 
HETATM   23  O           1     -20.269  -6.386  -4.912  0.00  0.00    -0.648 OA
HETATM   24  O           1     -21.177  -7.780  -6.298  0.00  0.00    -0.648 OA
ENDBRANCH  21  22
ENDBRANCH  17  21
ENDBRANCH  15  17
ENDBRANCH   1  13
TORSDOF 10
ENDMDL
MODEL 5
REMARK VINA RESULT:      -5.7     12.406     15.191
REMARK  10 active torsions:
REMARK  status: ('A' for Active; 'I' for Inactive)
REMARK    1  A    between atoms: N_7  and  C_14 
REMARK    2  A    between atoms: O_10  and  P_11 
REMARK    3  A    between atoms: P_11  and  O_12 
REMARK    4  A    between atoms: O_12  and  C_13 
REMARK    5  A    between atoms: C_13  and  C_14 
REMARK    6  A    between atoms: C_14  and  C_15 
REMARK       I    between atoms: C_15  and  N_16 
REMARK    7  A    between atoms: N_16  and  C_20 
REMARK    8  A    between atoms: C_19  and  C_20 
REMARK    9  A    between atoms: C_20  and  C_21 
REMARK   10  A    between atoms: C_21  and  C_23 
ROOT
HETATM    1  C           1     -23.259  -4.185  -9.075  0.00  0.00     0.298 C 
ENDROOT
BRANCH   1   2
HETATM    2  N           1     -24.442  -3.290  -8.851  0.00  0.00    -0.064 N 
HETATM    3  H           1     -24.144  -2.453  -8.299  0.00  0.00     0.275 HD
HETATM    4  H           1     -25.178  -3.812  -8.326  0.00  0.00     0.275 HD
HETATM    5  H           1     -24.824  -2.980  -9.773  0.00  0.00     0.275 HD
ENDBRANCH   1   2
BRANCH   1   6
HETATM    6  C           1     -22.393  -3.611 -10.188  0.00  0.00     0.224 C 
BRANCH   6   7
HETATM    7  O           1     -23.183  -2.826 -11.039  0.00  0.00    -0.287 OA
BRANCH   7   8
HETATM    8  P           1     -23.500  -3.455 -12.493  0.00  0.00     0.406 P 
HETATM    9  O           1     -24.651  -2.748 -13.097  0.00  0.00    -0.624 OA
HETATM   10  O           1     -23.822  -4.892 -12.348  0.00  0.00    -0.624 OA
BRANCH   8  11
HETATM   11  O           1     -22.206  -3.288 -13.446  0.00  0.00    -0.300 OA
HETATM   12  H           1     -21.485  -3.617 -12.938  0.00  0.00     0.223 HD
ENDBRANCH   8  11
ENDBRANCH   7   8
ENDBRANCH   6   7
ENDBRANCH   1   6
BRANCH   1  13
HETATM   13  C           1     -22.451  -4.279  -7.805  0.00  0.00     0.251 C 
HETATM   14  O           1     -21.856  -3.311  -7.394  0.00  0.00    -0.271 OA
HETATM   15  N           1     -22.393  -5.460  -7.116  0.00  0.00    -0.344 N 
HETATM   16  H           1     -22.891  -6.271  -7.459  0.00  0.00     0.163 HD
BRANCH  15  17
HETATM   17  C           1     -21.618  -5.550  -5.894  0.00  0.00     0.195 C 
BRANCH  17  18
HETATM   18  C           1     -20.159  -5.726  -6.237  0.00  0.00     0.197 C 
HETATM   19  O           1     -19.761  -6.796  -6.747  0.00  0.00    -0.646 OA
HETATM   20  O           1     -19.347  -4.803  -6.012  0.00  0.00    -0.646 OA
ENDBRANCH  17  18
BRANCH  17  21
HETATM   21  C           1     -22.095  -6.743  -5.077  0.00  0.00     0.149 C 
BRANCH  21  22
HETATM   22  C           1     -21.473  -6.693  -3.702  0.00  0.00     0.175 C 
HETATM   23  O           1     -21.728  -5.739  -2.935  0.00  0.00    -0.648 OA
HETATM   24  O           1     -20.703  -7.605  -3.331  0.00  0.00    -0.648 OA
ENDBRANCH  21  22
ENDBRANCH  17  21
ENDBRANCH  15  17
ENDBRANCH   1  13
TORSDOF 10
ENDMDL
MODEL 6
REMARK VINA RESULT:      -5.5     25.388     26.791
REMARK  10 active torsions:
REMARK  status: ('A' for Active; 'I' for Inactive)
REMARK    1  A    between atoms: N_7  and  C_14 
REMARK    2  A    between atoms: O_10  and  P_11 
REMARK    3  A    between atoms: P_11  and  O_12 
REMARK    4  A    between atoms: O_12  and  C_13 
REMARK    5  A    between atoms: C_13  and  C_14 
REMARK    6  A    between atoms: C_14  and  C_15 
REMARK       I    between atoms: C_15  and  N_16 
REMARK    7  A    between atoms: N_16  and  C_20 
REMARK    8  A    between atoms: C_19  and  C_20 
REMARK    9  A    between atoms: C_20  and  C_21 
REMARK   10  A    between atoms: C_21  and  C_23 
ROOT
HETATM    1  C           1     -13.561   5.529 -20.579  0.00  0.00     0.298 C 
ENDROOT
BRANCH   1   2
HETATM    2  N           1     -14.439   4.688 -21.458  0.00  0.00    -0.064 N 
HETATM    3  H           1     -14.223   4.890 -22.461  0.00  0.00     0.275 HD
HETATM    4  H           1     -15.441   4.911 -21.264  0.00  0.00     0.275 HD
HETATM    5  H           1     -14.263   3.677 -21.261  0.00  0.00     0.275 HD
ENDBRANCH   1   2
BRANCH   1   6
HETATM    6  C           1     -12.245   4.804 -20.334  0.00  0.00     0.224 C 
BRANCH   6   7
HETATM    7  O           1     -11.649   5.299 -19.166  0.00  0.00    -0.287 OA
BRANCH   7   8
HETATM    8  P           1     -10.171   5.928 -19.337  0.00  0.00     0.406 P 
HETATM    9  O           1      -9.826   5.995 -20.775  0.00  0.00    -0.624 OA
HETATM   10  O           1      -9.188   5.077 -18.631  0.00  0.00    -0.624 OA
BRANCH   8  11
HETATM   11  O           1     -10.142   7.416 -18.708  0.00  0.00    -0.300 OA
HETATM   12  H           1      -9.295   7.492 -18.302  0.00  0.00     0.223 HD
ENDBRANCH   8  11
ENDBRANCH   7   8
ENDBRANCH   6   7
ENDBRANCH   1   6
BRANCH   1  13
HETATM   13  C           1     -13.292   6.851 -21.254  0.00  0.00     0.251 C 
HETATM   14  O           1     -13.714   7.057 -22.367  0.00  0.00    -0.271 OA
HETATM   15  N           1     -12.571   7.817 -20.606  0.00  0.00    -0.344 N 
HETATM   16  H           1     -12.217   7.644 -19.674  0.00  0.00     0.163 HD
BRANCH  15  17
HETATM   17  C           1     -12.313   9.087 -21.256  0.00  0.00     0.195 C 
BRANCH  17  18
HETATM   18  C           1     -10.856   9.168 -21.640  0.00  0.00     0.197 C 
HETATM   19  O           1     -10.479   8.743 -22.755  0.00  0.00    -0.646 OA
HETATM   20  O           1     -10.025   9.659 -20.846  0.00  0.00    -0.646 OA
ENDBRANCH  17  18
BRANCH  17  21
HETATM   21  C           1     -12.649  10.223 -20.299  0.00  0.00     0.149 C 
BRANCH  21  22
HETATM   22  C           1     -12.934   9.660 -18.928  0.00  0.00     0.175 C 
HETATM   23  O           1     -14.115   9.533 -18.537  0.00  0.00    -0.648 OA
HETATM   24  O           1     -11.990   9.319 -18.183  0.00  0.00    -0.648 OA
ENDBRANCH  21  22
ENDBRANCH  17  21
ENDBRANCH  15  17
ENDBRANCH   1  13
TORSDOF 10
ENDMDL
MODEL 7
REMARK VINA RESULT:      -5.4     14.516     17.323
REMARK  10 active torsions:
REMARK  status: ('A' for Active; 'I' for Inactive)
REMARK    1  A    between atoms: N_7  and  C_14 
REMARK    2  A    between atoms: O_10  and  P_11 
REMARK    3  A    between atoms: P_11  and  O_12 
REMARK    4  A    between atoms: O_12  and  C_13 
REMARK    5  A    between atoms: C_13  and  C_14 
REMARK    6  A    between atoms: C_14  and  C_15 
REMARK       I    between atoms: C_15  and  N_16 
REMARK    7  A    between atoms: N_16  and  C_20 
REMARK    8  A    between atoms: C_19  and  C_20 
REMARK    9  A    between atoms: C_20  and  C_21 
REMARK   10  A    between atoms: C_21  and  C_23 
ROOT
HETATM    1  C           1     -21.814  -6.983  -5.462  0.00  0.00     0.298 C 
ENDROOT
BRANCH   1   2
HETATM    2  N           1     -22.963  -6.235  -4.853  0.00  0.00    -0.064 N 
HETATM    3  H           1     -23.501  -5.751  -5.607  0.00  0.00     0.275 HD
HETATM    4  H           1     -22.597  -5.529  -4.175  0.00  0.00     0.275 HD
HETATM    5  H           1     -23.589  -6.906  -4.354  0.00  0.00     0.275 HD
ENDBRANCH   1   2
BRANCH   1   6
HETATM    6  C           1     -20.885  -6.002  -6.164  0.00  0.00     0.224 C 
BRANCH   6   7
HETATM    7  O           1     -21.336  -5.786  -7.473  0.00  0.00    -0.287 OA
BRANCH   7   8
HETATM    8  P           1     -22.009  -4.347  -7.762  0.00  0.00     0.406 P 
HETATM    9  O           1     -21.978  -4.070  -9.216  0.00  0.00    -0.624 OA
HETATM   10  O           1     -21.256  -3.297  -7.042  0.00  0.00    -0.624 OA
BRANCH   8  11
HETATM   11  O           1     -23.542  -4.355  -7.250  0.00  0.00    -0.300 OA
HETATM   12  H           1     -24.048  -4.611  -8.001  0.00  0.00     0.223 HD
ENDBRANCH   8  11
ENDBRANCH   7   8
ENDBRANCH   6   7
ENDBRANCH   1   6
BRANCH   1  13
HETATM   13  C           1     -21.055  -7.709  -4.379  0.00  0.00     0.251 C 
HETATM   14  O           1     -19.899  -8.014  -4.552  0.00  0.00    -0.271 OA
HETATM   15  N           1     -21.676  -8.021  -3.199  0.00  0.00    -0.344 N 
HETATM   16  H           1     -22.644  -7.766  -3.054  0.00  0.00     0.163 HD
BRANCH  15  17
HETATM   17  C           1     -20.946  -8.718  -2.158  0.00  0.00     0.195 C 
BRANCH  17  18
HETATM   18  C           1     -21.573 -10.071  -1.925  0.00  0.00     0.197 C 
HETATM   19  O           1     -21.269 -10.735  -0.910  0.00  0.00    -0.646 OA
HETATM   20  O           1     -22.396 -10.528  -2.746  0.00  0.00    -0.646 OA
ENDBRANCH  17  18
BRANCH  17  21
HETATM   21  C           1     -20.999  -7.905  -0.871  0.00  0.00     0.149 C 
BRANCH  21  22
HETATM   22  C           1     -22.279  -7.107  -0.832  0.00  0.00     0.175 C 
HETATM   23  O           1     -23.240  -7.501  -0.136  0.00  0.00    -0.648 OA
HETATM   24  O           1     -22.379  -6.052  -1.495  0.00  0.00    -0.648 OA
ENDBRANCH  21  22
ENDBRANCH  17  21
ENDBRANCH  15  17
ENDBRANCH   1  13
TORSDOF 10
ENDMDL
MODEL 8
REMARK VINA RESULT:      -5.4     12.529     14.287
REMARK  10 active torsions:
REMARK  status: ('A' for Active; 'I' for Inactive)
REMARK    1  A    between atoms: N_7  and  C_14 
REMARK    2  A    between atoms: O_10  and  P_11 
REMARK    3  A    between atoms: P_11  and  O_12 
REMARK    4  A    between atoms: O_12  and  C_13 
REMARK    5  A    between atoms: C_13  and  C_14 
REMARK    6  A    between atoms: C_14  and  C_15 
REMARK       I    between atoms: C_15  and  N_16 
REMARK    7  A    between atoms: N_16  and  C_20 
REMARK    8  A    between atoms: C_19  and  C_20 
REMARK    9  A    between atoms: C_20  and  C_21 
REMARK   10  A    between atoms: C_21  and  C_23 
ROOT
HETATM    1  C           1     -21.474  -5.275  -5.985  0.00  0.00     0.298 C 
ENDROOT
BRANCH   1   2
HETATM    2  N           1     -22.775  -5.830  -5.483  0.00  0.00    -0.064 N 
HETATM    3  H           1     -23.009  -6.700  -6.013  0.00  0.00     0.275 HD
HETATM    4  H           1     -23.530  -5.121  -5.620  0.00  0.00     0.275 HD
HETATM    5  H           1     -22.688  -6.054  -4.467  0.00  0.00     0.275 HD
ENDBRANCH   1   2
BRANCH   1   6
HETATM    6  C           1     -20.571  -6.419  -6.424  0.00  0.00     0.224 C 
BRANCH   6   7
HETATM    7  O           1     -21.196  -7.643  -6.143  0.00  0.00    -0.287 OA
BRANCH   7   8
HETATM    8  P           1     -20.396  -8.635  -5.151  0.00  0.00     0.406 P 
HETATM    9  O           1     -21.147  -9.902  -5.008  0.00  0.00    -0.624 OA
HETATM   10  O           1     -20.249  -7.994  -3.826  0.00  0.00    -0.624 OA
BRANCH   8  11
HETATM   11  O           1     -18.933  -8.944  -5.763  0.00  0.00    -0.300 OA
HETATM   12  H           1     -18.864  -8.391  -6.522  0.00  0.00     0.223 HD
ENDBRANCH   8  11
ENDBRANCH   7   8
ENDBRANCH   6   7
ENDBRANCH   1   6
BRANCH   1  13
HETATM   13  C           1     -21.735  -4.360  -7.155  0.00  0.00     0.251 C 
HETATM   14  O           1     -21.309  -3.230  -7.145  0.00  0.00    -0.271 OA
HETATM   15  N           1     -22.454  -4.810  -8.230  0.00  0.00    -0.344 N 
HETATM   16  H           1     -22.812  -5.757  -8.238  0.00  0.00     0.163 HD
BRANCH  15  17
HETATM   17  C           1     -22.704  -3.931  -9.355  0.00  0.00     0.195 C 
BRANCH  17  18
HETATM   18  C           1     -24.188  -3.875  -9.628  0.00  0.00     0.197 C 
HETATM   19  O           1     -24.797  -2.786  -9.551  0.00  0.00    -0.646 OA
HETATM   20  O           1     -24.807  -4.917  -9.932  0.00  0.00    -0.646 OA
ENDBRANCH  17  18
BRANCH  17  21
HETATM   21  C           1     -21.981  -4.463 -10.585  0.00  0.00     0.149 C 
BRANCH  21  22
HETATM   22  C           1     -21.579  -3.309 -11.470  0.00  0.00     0.175 C 
HETATM   23  O           1     -20.518  -2.686 -11.243  0.00  0.00    -0.648 OA
HETATM   24  O           1     -22.306  -2.975 -12.431  0.00  0.00    -0.648 OA
ENDBRANCH  21  22
ENDBRANCH  17  21
ENDBRANCH  15  17
ENDBRANCH   1  13
TORSDOF 10
ENDMDL
MODEL 9
REMARK VINA RESULT:      -5.3     14.017     16.665
REMARK  10 active torsions:
REMARK  status: ('A' for Active; 'I' for Inactive)
REMARK    1  A    between atoms: N_7  and  C_14 
REMARK    2  A    between atoms: O_10  and  P_11 
REMARK    3  A    between atoms: P_11  and  O_12 
REMARK    4  A    between atoms: O_12  and  C_13 
REMARK    5  A    between atoms: C_13  and  C_14 
REMARK    6  A    between atoms: C_14  and  C_15 
REMARK       I    between atoms: C_15  and  N_16 
REMARK    7  A    between atoms: N_16  and  C_20 
REMARK    8  A    between atoms: C_19  and  C_20 
REMARK    9  A    between atoms: C_20  and  C_21 
REMARK   10  A    between atoms: C_21  and  C_23 
ROOT
HETATM    1  C           1     -21.961  -4.968  -7.575  0.00  0.00     0.298 C 
ENDROOT
BRANCH   1   2
HETATM    2  N           1     -23.308  -4.394  -7.247  0.00  0.00    -0.064 N 
HETATM    3  H           1     -23.273  -3.353  -7.337  0.00  0.00     0.275 HD
HETATM    4  H           1     -23.567  -4.652  -6.268  0.00  0.00     0.275 HD
HETATM    5  H           1     -24.021  -4.776  -7.908  0.00  0.00     0.275 HD
ENDBRANCH   1   2
BRANCH   1   6
HETATM    6  C           1     -21.116  -3.912  -8.272  0.00  0.00     0.224 C 
BRANCH   6   7
HETATM    7  O           1     -21.749  -3.512  -9.457  0.00  0.00    -0.287 OA
BRANCH   7   8
HETATM    8  P           1     -21.040  -3.980 -10.831  0.00  0.00     0.406 P 
HETATM    9  O           1     -22.018  -4.715 -11.666  0.00  0.00    -0.624 OA
HETATM   10  O           1     -19.894  -4.862 -10.519  0.00  0.00    -0.624 OA
BRANCH   8  11
HETATM   11  O           1     -20.515  -2.682 -11.637  0.00  0.00    -0.300 OA
HETATM   12  H           1     -20.281  -2.060 -10.970  0.00  0.00     0.223 HD
ENDBRANCH   8  11
ENDBRANCH   7   8
ENDBRANCH   6   7
ENDBRANCH   1   6
BRANCH   1  13
HETATM   13  C           1     -21.277  -5.405  -6.304  0.00  0.00     0.251 C 
HETATM   14  O           1     -20.602  -4.620  -5.681  0.00  0.00    -0.271 OA
HETATM   15  N           1     -21.423  -6.689  -5.853  0.00  0.00    -0.344 N 
HETATM   16  H           1     -21.989  -7.347  -6.375  0.00  0.00     0.163 HD
BRANCH  15  17
HETATM   17  C           1     -20.766  -7.108  -4.631  0.00  0.00     0.195 C 
BRANCH  17  18
HETATM   18  C           1     -19.723  -8.149  -4.952  0.00  0.00     0.197 C 
HETATM   19  O           1     -19.338  -8.944  -4.067  0.00  0.00    -0.646 OA
HETATM   20  O           1     -19.242  -8.219  -6.104  0.00  0.00    -0.646 OA
ENDBRANCH  17  18
BRANCH  17  21
HETATM   21  C           1     -21.797  -7.698  -3.678  0.00  0.00     0.149 C 
BRANCH  21  22
HETATM   22  C           1     -21.757  -6.951  -2.367  0.00  0.00     0.175 C 
HETATM   23  O           1     -21.115  -7.418  -1.401  0.00  0.00    -0.648 OA
HETATM   24  O           1     -22.366  -5.866  -2.247  0.00  0.00    -0.648 OA
ENDBRANCH  21  22
ENDBRANCH  17  21
ENDBRANCH  15  17
ENDBRANCH   1  13
TORSDOF 10
ENDMDL
