MODEL 1
REMARK VINA RESULT:      -7.4      0.000      0.000
REMARK  16 active torsions:
REMARK  status: ('A' for Active; 'I' for Inactive)
REMARK       I    between atoms: N_1  and  C_15 
REMARK    1  A    between atoms: C_4  and  C_5 
REMARK    2  A    between atoms: C_5  and  C_6 
REMARK    3  A    between atoms: C_5  and  N_21 
REMARK    4  A    between atoms: C_6  and  C_7 
REMARK    5  A    between atoms: C_7  and  N_8 
REMARK    6  A    between atoms: N_8  and  C_34 
REMARK    7  A    between atoms: C_10  and  C_17 
REMARK    8  A    between atoms: C_10  and  N_24 
REMARK    9  A    between atoms: N_13  and  C_19 
REMARK       I    between atoms: N_14  and  C_15 
REMARK   10  A    between atoms: C_17  and  C_18 
REMARK   11  A    between atoms: C_18  and  C_19 
REMARK   12  A    between atoms: C_19  and  C_20 
REMARK       I    between atoms: C_20  and  N_21 
REMARK   13  A    between atoms: C_23  and  C_34 
REMARK   14  A    between atoms: C_29  and  O_30 
REMARK   15  A    between atoms: C_32  and  C_35 
REMARK   16  A    between atoms: C_34  and  C_35 
ROOT
HETATM    1  C           1     -20.618  -9.715  -5.068  0.00  0.00     0.187 C 
ENDROOT
BRANCH   1   2
HETATM    2  C           1     -20.971 -10.982  -5.809  0.00  0.00     0.196 C 
HETATM    3  O           1     -21.902 -11.708  -5.398  0.00  0.00    -0.646 OA
HETATM    4  O           1     -20.330 -11.306  -6.832  0.00  0.00    -0.646 OA
ENDBRANCH   1   2
BRANCH   1   5
HETATM    5  C           1     -20.948  -9.882  -3.591  0.00  0.00     0.066 C 
BRANCH   5   6
HETATM    6  C           1     -19.773  -9.400  -2.749  0.00  0.00     0.273 C 
BRANCH   6   7
HETATM    7  N           1     -20.074  -8.103  -2.204  0.00  0.00     0.098 N 
HETATM    8  H           1     -20.080  -7.413  -2.955  0.00  0.00     0.317 HD
BRANCH   7   9
HETATM    9  C           1     -21.380  -8.173  -1.607  0.00  0.00     0.324 C 
BRANCH   9  10
HETATM   10  C           1     -22.043  -6.819  -1.688  0.00  0.00     0.207 C 
HETATM   11  O           1     -22.813  -6.445  -0.778  0.00  0.00    -0.646 OA
HETATM   12  O           1     -21.821  -6.074  -2.667  0.00  0.00    -0.646 OA
ENDBRANCH   9  10
BRANCH   9  13
HETATM   13  C           1     -21.248  -8.588  -0.147  0.00  0.00     0.085 C 
BRANCH  13  14
HETATM   14  C           1     -21.893  -9.923   0.052  0.00  0.00    -0.055 A 
HETATM   15  C           1     -21.151 -10.987   0.566  0.00  0.00     0.010 A 
HETATM   16  C           1     -21.752 -12.231   0.753  0.00  0.00     0.037 A 
HETATM   17  C           1     -23.095 -12.414   0.426  0.00  0.00     0.065 A 
HETATM   18  C           1     -23.838 -11.350  -0.088  0.00  0.00     0.037 A 
HETATM   19  C           1     -23.236 -10.106  -0.275  0.00  0.00     0.010 A 
BRANCH  17  20
HETATM   20  O           1     -23.679 -13.622   0.606  0.00  0.00    -0.361 OA
HETATM   21  H           1     -24.012 -13.927  -0.255  0.00  0.00     0.217 HD
ENDBRANCH  17  20
ENDBRANCH  13  14
ENDBRANCH   9  13
ENDBRANCH   7   9
ENDBRANCH   6   7
ENDBRANCH   5   6
ENDBRANCH   1   5
BRANCH   1  22
HETATM   22  N           1     -21.384  -8.611  -5.610  0.00  0.00    -0.345 N 
HETATM   23  C           1     -20.815  -7.369  -5.716  0.00  0.00     0.249 C 
HETATM   24  O           1     -19.675  -7.195  -5.356  0.00  0.00    -0.271 OA
HETATM   25  H           1     -22.339  -8.756  -5.912  0.00  0.00     0.163 HD
BRANCH  23  26
HETATM   26  C           1     -21.612  -6.219  -6.280  0.00  0.00     0.274 C 
BRANCH  26  27
HETATM   27  N           1     -22.739  -5.887  -5.348  0.00  0.00    -0.067 N 
HETATM   28  H           1     -23.281  -6.755  -5.133  0.00  0.00     0.275 HD
HETATM   29  H           1     -22.352  -5.491  -4.461  0.00  0.00     0.275 HD
HETATM   30  H           1     -23.369  -5.186  -5.798  0.00  0.00     0.275 HD
ENDBRANCH  26  27
BRANCH  26  31
HETATM   31  C           1     -20.709  -5.003  -6.436  0.00  0.00     0.044 C 
BRANCH  31  32
HETATM   32  C           1     -21.495  -3.864  -7.074  0.00  0.00     0.023 C 
BRANCH  32  33
HETATM   33  C           1     -22.104  -4.339  -8.386  0.00  0.00     0.138 C 
BRANCH  33  34
HETATM   34  N           1     -23.456  -3.779  -8.532  0.00  0.00    -0.227 N 
HETATM   35  C           1     -24.174  -4.109  -9.521  0.00  0.00     0.665 C 
HETATM   36  N           1     -23.717  -4.942 -10.407  0.00  0.00    -0.235 N 
HETATM   37  N           1     -25.338  -3.627  -9.645  0.00  0.00    -0.235 N 
HETATM   38  H           1     -24.310  -5.214 -11.223  0.00  0.00     0.174 HD
HETATM   39  H           1     -22.757  -5.340 -10.304  0.00  0.00     0.174 HD
HETATM   40  H           1     -25.934  -3.900 -10.465  0.00  0.00     0.174 HD
HETATM   41  H           1     -25.707  -2.953  -8.929  0.00  0.00     0.174 HD
HETATM   42  H           1     -23.824  -3.106  -7.815  0.00  0.00     0.177 HD
ENDBRANCH  33  34
ENDBRANCH  32  33
ENDBRANCH  31  32
ENDBRANCH  26  31
ENDBRANCH  23  26
ENDBRANCH   1  22
TORSDOF 16
ENDMDL
MODEL 2
REMARK VINA RESULT:      -7.2     15.444     18.481
REMARK  16 active torsions:
REMARK  status: ('A' for Active; 'I' for Inactive)
REMARK       I    between atoms: N_1  and  C_15 
REMARK    1  A    between atoms: C_4  and  C_5 
REMARK    2  A    between atoms: C_5  and  C_6 
REMARK    3  A    between atoms: C_5  and  N_21 
REMARK    4  A    between atoms: C_6  and  C_7 
REMARK    5  A    between atoms: C_7  and  N_8 
REMARK    6  A    between atoms: N_8  and  C_34 
REMARK    7  A    between atoms: C_10  and  C_17 
REMARK    8  A    between atoms: C_10  and  N_24 
REMARK    9  A    between atoms: N_13  and  C_19 
REMARK       I    between atoms: N_14  and  C_15 
REMARK   10  A    between atoms: C_17  and  C_18 
REMARK   11  A    between atoms: C_18  and  C_19 
REMARK   12  A    between atoms: C_19  and  C_20 
REMARK       I    between atoms: C_20  and  N_21 
REMARK   13  A    between atoms: C_23  and  C_34 
REMARK   14  A    between atoms: C_29  and  O_30 
REMARK   15  A    between atoms: C_32  and  C_35 
REMARK   16  A    between atoms: C_34  and  C_35 
ROOT
HETATM    1  C           1     -35.857  -0.460 -16.039  0.00  0.00     0.187 C 
ENDROOT
BRANCH   1   2
HETATM    2  C           1     -37.350  -0.271 -16.160  0.00  0.00     0.196 C 
HETATM    3  O           1     -37.862   0.842 -15.909  0.00  0.00    -0.646 OA
HETATM    4  O           1     -38.074  -1.228 -16.509  0.00  0.00    -0.646 OA
ENDBRANCH   1   2
BRANCH   1   5
HETATM    5  C           1     -35.401  -1.536 -17.015  0.00  0.00     0.066 C 
BRANCH   5   6
HETATM    6  C           1     -34.328  -2.396 -16.357  0.00  0.00     0.273 C 
BRANCH   6   7
HETATM    7  N           1     -33.664  -3.184 -17.361  0.00  0.00     0.098 N 
HETATM    8  H           1     -32.822  -2.699 -17.671  0.00  0.00     0.317 HD
BRANCH   7   9
HETATM    9  C           1     -33.299  -4.438 -16.761  0.00  0.00     0.324 C 
BRANCH   9  10
HETATM   10  C           1     -34.022  -4.596 -15.446  0.00  0.00     0.207 C 
HETATM   11  O           1     -33.551  -4.085 -14.408  0.00  0.00    -0.646 OA
HETATM   12  O           1     -35.093  -5.240 -15.395  0.00  0.00    -0.646 OA
ENDBRANCH   9  10
BRANCH   9  13
HETATM   13  C           1     -31.795  -4.466 -16.521  0.00  0.00     0.085 C 
BRANCH  13  14
HETATM   14  C           1     -31.195  -5.629 -17.247  0.00  0.00    -0.055 A 
HETATM   15  C           1     -29.822  -5.666 -17.492  0.00  0.00     0.010 A 
HETATM   16  C           1     -29.262  -6.750 -18.167  0.00  0.00     0.037 A 
HETATM   17  C           1     -30.075  -7.797 -18.601  0.00  0.00     0.065 A 
HETATM   18  C           1     -31.449  -7.761 -18.357  0.00  0.00     0.037 A 
HETATM   19  C           1     -32.008  -6.676 -17.680  0.00  0.00     0.010 A 
BRANCH  17  20
HETATM   20  O           1     -29.532  -8.849 -19.258  0.00  0.00    -0.361 OA
HETATM   21  H           1     -29.780  -9.661 -18.784  0.00  0.00     0.217 HD
ENDBRANCH  17  20
ENDBRANCH  13  14
ENDBRANCH   9  13
ENDBRANCH   7   9
ENDBRANCH   6   7
ENDBRANCH   5   6
ENDBRANCH   1   5
BRANCH   1  22
HETATM   22  N           1     -35.531  -0.866 -14.687  0.00  0.00    -0.345 N 
HETATM   23  C           1     -35.129   0.069 -13.769  0.00  0.00     0.249 C 
HETATM   24  O           1     -35.047   1.231 -14.088  0.00  0.00    -0.271 OA
HETATM   25  H           1     -35.599  -1.839 -14.419  0.00  0.00     0.163 HD
BRANCH  23  26
HETATM   26  C           1     -34.789  -0.353 -12.361  0.00  0.00     0.274 C 
BRANCH  26  27
HETATM   27  N           1     -35.823   0.184 -11.416  0.00  0.00    -0.067 N 
HETATM   28  H           1     -35.904   1.219 -11.540  0.00  0.00     0.275 HD
HETATM   29  H           1     -36.745  -0.264 -11.617  0.00  0.00     0.275 HD
HETATM   30  H           1     -35.539  -0.027 -10.433  0.00  0.00     0.275 HD
ENDBRANCH  26  27
BRANCH  26  31
HETATM   31  C           1     -34.768  -1.874 -12.277  0.00  0.00     0.044 C 
BRANCH  31  32
HETATM   32  C           1     -33.697  -2.314 -11.287  0.00  0.00     0.023 C 
BRANCH  32  33
HETATM   33  C           1     -34.159  -3.575 -10.568  0.00  0.00     0.138 C 
BRANCH  33  34
HETATM   34  N           1     -34.872  -4.447 -11.513  0.00  0.00    -0.227 N 
HETATM   35  C           1     -34.438  -5.613 -11.750  0.00  0.00     0.665 C 
HETATM   36  N           1     -33.362  -6.039 -11.158  0.00  0.00    -0.235 N 
HETATM   37  N           1     -35.052  -6.363 -12.564  0.00  0.00    -0.235 N 
HETATM   38  H           1     -33.005  -7.000 -11.352  0.00  0.00     0.174 HD
HETATM   39  H           1     -32.855  -5.419 -10.486  0.00  0.00     0.174 HD
HETATM   40  H           1     -34.693  -7.329 -12.760  0.00  0.00     0.174 HD
HETATM   41  H           1     -35.921  -6.018 -13.042  0.00  0.00     0.174 HD
HETATM   42  H           1     -35.741  -4.102 -11.991  0.00  0.00     0.177 HD
ENDBRANCH  33  34
ENDBRANCH  32  33
ENDBRANCH  31  32
ENDBRANCH  26  31
ENDBRANCH  23  26
ENDBRANCH   1  22
TORSDOF 16
ENDMDL
MODEL 3
REMARK VINA RESULT:      -7.1      1.817      2.249
REMARK  16 active torsions:
REMARK  status: ('A' for Active; 'I' for Inactive)
REMARK       I    between atoms: N_1  and  C_15 
REMARK    1  A    between atoms: C_4  and  C_5 
REMARK    2  A    between atoms: C_5  and  C_6 
REMARK    3  A    between atoms: C_5  and  N_21 
REMARK    4  A    between atoms: C_6  and  C_7 
REMARK    5  A    between atoms: C_7  and  N_8 
REMARK    6  A    between atoms: N_8  and  C_34 
REMARK    7  A    between atoms: C_10  and  C_17 
REMARK    8  A    between atoms: C_10  and  N_24 
REMARK    9  A    between atoms: N_13  and  C_19 
REMARK       I    between atoms: N_14  and  C_15 
REMARK   10  A    between atoms: C_17  and  C_18 
REMARK   11  A    between atoms: C_18  and  C_19 
REMARK   12  A    between atoms: C_19  and  C_20 
REMARK       I    between atoms: C_20  and  N_21 
REMARK   13  A    between atoms: C_23  and  C_34 
REMARK   14  A    between atoms: C_29  and  O_30 
REMARK   15  A    between atoms: C_32  and  C_35 
REMARK   16  A    between atoms: C_34  and  C_35 
ROOT
HETATM    1  C           1     -19.940  -8.135  -5.098  0.00  0.00     0.187 C 
ENDROOT
BRANCH   1   2
HETATM    2  C           1     -18.697  -8.966  -5.306  0.00  0.00     0.196 C 
HETATM    3  O           1     -18.225  -9.108  -6.455  0.00  0.00    -0.646 OA
HETATM    4  O           1     -18.140  -9.513  -4.330  0.00  0.00    -0.646 OA
ENDBRANCH   1   2
BRANCH   1   5
HETATM    5  C           1     -21.170  -9.025  -5.213  0.00  0.00     0.066 C 
BRANCH   5   6
HETATM    6  C           1     -21.743  -9.283  -3.825  0.00  0.00     0.273 C 
BRANCH   6   7
HETATM    7  N           1     -21.307  -8.248  -2.926  0.00  0.00     0.098 N 
HETATM    8  H           1     -21.595  -7.340  -3.289  0.00  0.00     0.317 HD
BRANCH   7   9
HETATM    9  C           1     -21.939  -8.478  -1.655  0.00  0.00     0.324 C 
BRANCH   9  10
HETATM   10  C           1     -22.274  -7.154  -1.013  0.00  0.00     0.207 C 
HETATM   11  O           1     -22.275  -6.110  -1.699  0.00  0.00    -0.646 OA
HETATM   12  O           1     -22.549  -7.103   0.205  0.00  0.00    -0.646 OA
ENDBRANCH   9  10
BRANCH   9  13
HETATM   13  C           1     -20.991  -9.257  -0.752  0.00  0.00     0.085 C 
BRANCH  13  14
HETATM   14  C           1     -21.692 -10.466  -0.218  0.00  0.00    -0.055 A 
HETATM   15  C           1     -20.976 -11.432   0.491  0.00  0.00     0.010 A 
HETATM   16  C           1     -21.629 -12.558   0.990  0.00  0.00     0.037 A 
HETATM   17  C           1     -22.997 -12.722   0.779  0.00  0.00     0.065 A 
HETATM   18  C           1     -23.714 -11.757   0.070  0.00  0.00     0.037 A 
HETATM   19  C           1     -23.060 -10.630  -0.428  0.00  0.00     0.010 A 
BRANCH  17  20
HETATM   20  O           1     -23.632 -13.817   1.262  0.00  0.00    -0.361 OA
HETATM   21  H           1     -24.444 -13.947   0.744  0.00  0.00     0.217 HD
ENDBRANCH  17  20
ENDBRANCH  13  14
ENDBRANCH   9  13
ENDBRANCH   7   9
ENDBRANCH   6   7
ENDBRANCH   5   6
ENDBRANCH   1   5
BRANCH   1  22
HETATM   22  N           1     -20.000  -7.096  -6.107  0.00  0.00    -0.345 N 
HETATM   23  C           1     -20.471  -5.852  -5.781  0.00  0.00     0.249 C 
HETATM   24  O           1     -20.835  -5.620  -4.653  0.00  0.00    -0.271 OA
HETATM   25  H           1     -19.694  -7.290  -7.051  0.00  0.00     0.163 HD
BRANCH  23  26
HETATM   26  C           1     -20.534  -4.770  -6.832  0.00  0.00     0.274 C 
BRANCH  26  27
HETATM   27  N           1     -19.172  -4.575  -7.429  0.00  0.00    -0.067 N 
HETATM   28  H           1     -19.178  -4.896  -8.424  0.00  0.00     0.275 HD
HETATM   29  H           1     -18.917  -3.563  -7.393  0.00  0.00     0.275 HD
HETATM   30  H           1     -18.472  -5.131  -6.888  0.00  0.00     0.275 HD
ENDBRANCH  26  27
BRANCH  26  31
HETATM   31  C           1     -21.512  -5.179  -7.924  0.00  0.00     0.044 C 
BRANCH  31  32
HETATM   32  C           1     -22.010  -3.937  -8.652  0.00  0.00     0.023 C 
BRANCH  32  33
HETATM   33  C           1     -21.877  -4.143 -10.156  0.00  0.00     0.138 C 
BRANCH  33  34
HETATM   34  N           1     -22.877  -3.321 -10.854  0.00  0.00    -0.227 N 
HETATM   35  C           1     -22.751  -3.087 -12.092  0.00  0.00     0.665 C 
HETATM   36  N           1     -21.739  -3.574 -12.746  0.00  0.00    -0.235 N 
HETATM   37  N           1     -23.612  -2.380 -12.693  0.00  0.00    -0.235 N 
HETATM   38  H           1     -21.635  -3.382 -13.767  0.00  0.00     0.174 HD
HETATM   39  H           1     -21.028  -4.158 -12.250  0.00  0.00     0.174 HD
HETATM   40  H           1     -23.508  -2.186 -13.719  0.00  0.00     0.174 HD
HETATM   41  H           1     -24.429  -1.987 -12.164  0.00  0.00     0.174 HD
HETATM   42  H           1     -23.695  -2.928 -10.325  0.00  0.00     0.177 HD
ENDBRANCH  33  34
ENDBRANCH  32  33
ENDBRANCH  31  32
ENDBRANCH  26  31
ENDBRANCH  23  26
ENDBRANCH   1  22
TORSDOF 16
ENDMDL
MODEL 4
REMARK VINA RESULT:      -7.1      2.432      4.127
REMARK  16 active torsions:
REMARK  status: ('A' for Active; 'I' for Inactive)
REMARK       I    between atoms: N_1  and  C_15 
REMARK    1  A    between atoms: C_4  and  C_5 
REMARK    2  A    between atoms: C_5  and  C_6 
REMARK    3  A    between atoms: C_5  and  N_21 
REMARK    4  A    between atoms: C_6  and  C_7 
REMARK    5  A    between atoms: C_7  and  N_8 
REMARK    6  A    between atoms: N_8  and  C_34 
REMARK    7  A    between atoms: C_10  and  C_17 
REMARK    8  A    between atoms: C_10  and  N_24 
REMARK    9  A    between atoms: N_13  and  C_19 
REMARK       I    between atoms: N_14  and  C_15 
REMARK   10  A    between atoms: C_17  and  C_18 
REMARK   11  A    between atoms: C_18  and  C_19 
REMARK   12  A    between atoms: C_19  and  C_20 
REMARK       I    between atoms: C_20  and  N_21 
REMARK   13  A    between atoms: C_23  and  C_34 
REMARK   14  A    between atoms: C_29  and  O_30 
REMARK   15  A    between atoms: C_32  and  C_35 
REMARK   16  A    between atoms: C_34  and  C_35 
ROOT
HETATM    1  C           1     -22.095  -6.634  -4.777  0.00  0.00     0.187 C 
ENDROOT
BRANCH   1   2
HETATM    2  C           1     -21.808  -6.069  -3.406  0.00  0.00     0.196 C 
HETATM    3  O           1     -22.704  -6.058  -2.534  0.00  0.00    -0.646 OA
HETATM    4  O           1     -20.675  -5.610  -3.145  0.00  0.00    -0.646 OA
ENDBRANCH   1   2
BRANCH   1   5
HETATM    5  C           1     -21.648  -8.089  -4.830  0.00  0.00     0.066 C 
BRANCH   5   6
HETATM    6  C           1     -20.136  -8.150  -5.006  0.00  0.00     0.273 C 
BRANCH   6   7
HETATM    7  N           1     -19.676  -9.487  -4.741  0.00  0.00     0.098 N 
HETATM    8  H           1     -18.923  -9.721  -5.388  0.00  0.00     0.317 HD
BRANCH   7   9
HETATM    9  C           1     -19.177  -9.519  -3.394  0.00  0.00     0.324 C 
BRANCH   9  10
HETATM   10  C           1     -17.705  -9.853  -3.410  0.00  0.00     0.207 C 
HETATM   11  O           1     -17.276 -10.748  -4.169  0.00  0.00    -0.646 OA
HETATM   12  O           1     -16.916  -9.235  -2.663  0.00  0.00    -0.646 OA
ENDBRANCH   9  10
BRANCH   9  13
HETATM   13  C           1     -19.930 -10.577  -2.599  0.00  0.00     0.085 C 
BRANCH  13  14
HETATM   14  C           1     -20.915  -9.912  -1.689  0.00  0.00    -0.055 A 
HETATM   15  C           1     -20.595  -8.697  -1.083  0.00  0.00     0.010 A 
HETATM   16  C           1     -21.513  -8.077  -0.236  0.00  0.00     0.037 A 
HETATM   17  C           1     -22.751  -8.672   0.008  0.00  0.00     0.065 A 
HETATM   18  C           1     -23.071  -9.888  -0.598  0.00  0.00     0.037 A 
HETATM   19  C           1     -22.152 -10.508  -1.445  0.00  0.00     0.010 A 
BRANCH  17  20
HETATM   20  O           1     -23.642  -8.071   0.831  0.00  0.00    -0.361 OA
HETATM   21  H           1     -23.842  -7.191   0.467  0.00  0.00     0.217 HD
ENDBRANCH  17  20
ENDBRANCH  13  14
ENDBRANCH   9  13
ENDBRANCH   7   9
ENDBRANCH   6   7
ENDBRANCH   5   6
ENDBRANCH   1   5
BRANCH   1  22
HETATM   22  N           1     -21.371  -5.871  -5.774  0.00  0.00    -0.345 N 
HETATM   23  C           1     -22.046  -5.017  -6.606  0.00  0.00     0.249 C 
HETATM   24  O           1     -23.244  -4.901  -6.508  0.00  0.00    -0.271 OA
HETATM   25  H           1     -20.368  -5.968  -5.856  0.00  0.00     0.163 HD
BRANCH  23  26
HETATM   26  C           1     -21.293  -4.223  -7.644  0.00  0.00     0.274 C 
BRANCH  26  27
HETATM   27  N           1     -20.211  -5.076  -8.237  0.00  0.00    -0.067 N 
HETATM   28  H           1     -20.639  -5.906  -8.707  0.00  0.00     0.275 HD
HETATM   29  H           1     -19.673  -4.519  -8.938  0.00  0.00     0.275 HD
HETATM   30  H           1     -19.568  -5.399  -7.479  0.00  0.00     0.275 HD
ENDBRANCH  26  27
BRANCH  26  31
HETATM   31  C           1     -22.252  -3.785  -8.743  0.00  0.00     0.044 C 
BRANCH  31  32
HETATM   32  C           1     -22.119  -4.721  -9.938  0.00  0.00     0.023 C 
BRANCH  32  33
HETATM   33  C           1     -23.287  -4.499 -10.890  0.00  0.00     0.138 C 
BRANCH  33  34
HETATM   34  N           1     -22.782  -4.369 -12.265  0.00  0.00    -0.227 N 
HETATM   35  C           1     -22.867  -3.260 -12.869  0.00  0.00     0.665 C 
HETATM   36  N           1     -23.402  -2.235 -12.273  0.00  0.00    -0.235 N 
HETATM   37  N           1     -22.432  -3.148 -14.052  0.00  0.00    -0.235 N 
HETATM   38  H           1     -23.472  -1.320 -12.771  0.00  0.00     0.174 HD
HETATM   39  H           1     -23.761  -2.327 -11.296  0.00  0.00     0.174 HD
HETATM   40  H           1     -22.504  -2.229 -14.553  0.00  0.00     0.174 HD
HETATM   41  H           1     -22.001  -3.976 -14.533  0.00  0.00     0.174 HD
HETATM   42  H           1     -22.350  -5.197 -12.745  0.00  0.00     0.177 HD
ENDBRANCH  33  34
ENDBRANCH  32  33
ENDBRANCH  31  32
ENDBRANCH  26  31
ENDBRANCH  23  26
ENDBRANCH   1  22
TORSDOF 16
ENDMDL
MODEL 5
REMARK VINA RESULT:      -7.1      3.196      8.004
REMARK  16 active torsions:
REMARK  status: ('A' for Active; 'I' for Inactive)
REMARK       I    between atoms: N_1  and  C_15 
REMARK    1  A    between atoms: C_4  and  C_5 
REMARK    2  A    between atoms: C_5  and  C_6 
REMARK    3  A    between atoms: C_5  and  N_21 
REMARK    4  A    between atoms: C_6  and  C_7 
REMARK    5  A    between atoms: C_7  and  N_8 
REMARK    6  A    between atoms: N_8  and  C_34 
REMARK    7  A    between atoms: C_10  and  C_17 
REMARK    8  A    between atoms: C_10  and  N_24 
REMARK    9  A    between atoms: N_13  and  C_19 
REMARK       I    between atoms: N_14  and  C_15 
REMARK   10  A    between atoms: C_17  and  C_18 
REMARK   11  A    between atoms: C_18  and  C_19 
REMARK   12  A    between atoms: C_19  and  C_20 
REMARK       I    between atoms: C_20  and  N_21 
REMARK   13  A    between atoms: C_23  and  C_34 
REMARK   14  A    between atoms: C_29  and  O_30 
REMARK   15  A    between atoms: C_32  and  C_35 
REMARK   16  A    between atoms: C_34  and  C_35 
ROOT
HETATM    1  C           1     -21.573  -7.812  -0.865  0.00  0.00     0.187 C 
ENDROOT
BRANCH   1   2
HETATM    2  C           1     -22.121  -8.032   0.524  0.00  0.00     0.196 C 
HETATM    3  O           1     -21.343  -8.281   1.471  0.00  0.00    -0.646 OA
HETATM    4  O           1     -23.353  -7.968   0.727  0.00  0.00    -0.646 OA
ENDBRANCH   1   2
BRANCH   1   5
HETATM    5  C           1     -22.159  -6.532  -1.445  0.00  0.00     0.066 C 
BRANCH   5   6
HETATM    6  C           1     -22.176  -6.624  -2.966  0.00  0.00     0.273 C 
BRANCH   6   7
HETATM    7  N           1     -21.064  -5.887  -3.504  0.00  0.00     0.098 N 
HETATM    8  H           1     -20.192  -6.307  -3.181  0.00  0.00     0.317 HD
BRANCH   7   9
HETATM    9  C           1     -21.135  -5.973  -4.936  0.00  0.00     0.324 C 
BRANCH   9  10
HETATM   10  C           1     -20.679  -7.341  -5.382  0.00  0.00     0.207 C 
HETATM   11  O           1     -19.683  -7.873  -4.845  0.00  0.00    -0.646 OA
HETATM   12  O           1     -21.297  -7.941  -6.288  0.00  0.00    -0.646 OA
ENDBRANCH   9  10
BRANCH   9  13
HETATM   13  C           1     -20.234  -4.911  -5.553  0.00  0.00     0.085 C 
BRANCH  13  14
HETATM   14  C           1     -20.704  -4.600  -6.939  0.00  0.00    -0.055 A 
HETATM   15  C           1     -19.796  -4.582  -7.997  0.00  0.00     0.010 A 
HETATM   16  C           1     -20.235  -4.293  -9.289  0.00  0.00     0.037 A 
HETATM   17  C           1     -21.582  -4.020  -9.523  0.00  0.00     0.065 A 
HETATM   18  C           1     -22.492  -4.037  -8.465  0.00  0.00     0.037 A 
HETATM   19  C           1     -22.052  -4.327  -7.173  0.00  0.00     0.010 A 
BRANCH  17  20
HETATM   20  O           1     -22.009  -3.738 -10.778  0.00  0.00    -0.361 OA
HETATM   21  H           1     -22.946  -3.482 -10.726  0.00  0.00     0.217 HD
ENDBRANCH  17  20
ENDBRANCH  13  14
ENDBRANCH   9  13
ENDBRANCH   7   9
ENDBRANCH   6   7
ENDBRANCH   5   6
ENDBRANCH   1   5
BRANCH   1  22
HETATM   22  N           1     -21.934  -8.933  -1.710  0.00  0.00    -0.345 N 
HETATM   23  C           1     -21.107 -10.021  -1.795  0.00  0.00     0.249 C 
HETATM   24  O           1     -20.076 -10.046  -1.166  0.00  0.00    -0.271 OA
HETATM   25  H           1     -22.798  -8.912  -2.236  0.00  0.00     0.163 HD
BRANCH  23  26
HETATM   26  C           1     -21.483 -11.188  -2.674  0.00  0.00     0.274 C 
BRANCH  26  27
HETATM   27  N           1     -22.612 -11.946  -2.041  0.00  0.00    -0.067 N 
HETATM   28  H           1     -23.170 -12.425  -2.784  0.00  0.00     0.275 HD
HETATM   29  H           1     -22.227 -12.659  -1.382  0.00  0.00     0.275 HD
HETATM   30  H           1     -23.227 -11.282  -1.519  0.00  0.00     0.275 HD
ENDBRANCH  26  27
BRANCH  26  31
HETATM   31  C           1     -21.919 -10.676  -4.040  0.00  0.00     0.044 C 
BRANCH  31  32
HETATM   32  C           1     -22.111 -11.853  -4.988  0.00  0.00     0.023 C 
BRANCH  32  33
HETATM   33  C           1     -21.319 -11.610  -6.266  0.00  0.00     0.138 C 
BRANCH  33  34
HETATM   34  N           1     -20.175 -10.734  -5.976  0.00  0.00    -0.227 N 
HETATM   35  C           1     -19.074 -10.909  -6.577  0.00  0.00     0.665 C 
HETATM   36  N           1     -18.956 -11.865  -7.451  0.00  0.00    -0.235 N 
HETATM   37  N           1     -18.089 -10.154  -6.328  0.00  0.00    -0.235 N 
HETATM   38  H           1     -18.049 -12.010  -7.947  0.00  0.00     0.174 HD
HETATM   39  H           1     -19.770 -12.488  -7.657  0.00  0.00     0.174 HD
HETATM   40  H           1     -17.178 -10.300  -6.826  0.00  0.00     0.174 HD
HETATM   41  H           1     -18.185  -9.383  -5.622  0.00  0.00     0.174 HD
HETATM   42  H           1     -20.271  -9.962  -5.270  0.00  0.00     0.177 HD
ENDBRANCH  33  34
ENDBRANCH  32  33
ENDBRANCH  31  32
ENDBRANCH  26  31
ENDBRANCH  23  26
ENDBRANCH   1  22
TORSDOF 16
ENDMDL
MODEL 6
REMARK VINA RESULT:      -6.9      1.476      3.645
REMARK  16 active torsions:
REMARK  status: ('A' for Active; 'I' for Inactive)
REMARK       I    between atoms: N_1  and  C_15 
REMARK    1  A    between atoms: C_4  and  C_5 
REMARK    2  A    between atoms: C_5  and  C_6 
REMARK    3  A    between atoms: C_5  and  N_21 
REMARK    4  A    between atoms: C_6  and  C_7 
REMARK    5  A    between atoms: C_7  and  N_8 
REMARK    6  A    between atoms: N_8  and  C_34 
REMARK    7  A    between atoms: C_10  and  C_17 
REMARK    8  A    between atoms: C_10  and  N_24 
REMARK    9  A    between atoms: N_13  and  C_19 
REMARK       I    between atoms: N_14  and  C_15 
REMARK   10  A    between atoms: C_17  and  C_18 
REMARK   11  A    between atoms: C_18  and  C_19 
REMARK   12  A    between atoms: C_19  and  C_20 
REMARK       I    between atoms: C_20  and  N_21 
REMARK   13  A    between atoms: C_23  and  C_34 
REMARK   14  A    between atoms: C_29  and  O_30 
REMARK   15  A    between atoms: C_32  and  C_35 
REMARK   16  A    between atoms: C_34  and  C_35 
ROOT
HETATM    1  C           1     -21.357  -7.580  -2.948  0.00  0.00     0.187 C 
ENDROOT
BRANCH   1   2
HETATM    2  C           1     -22.097  -6.965  -1.784  0.00  0.00     0.196 C 
HETATM    3  O           1     -22.322  -7.643  -0.758  0.00  0.00    -0.646 OA
HETATM    4  O           1     -22.485  -5.779  -1.847  0.00  0.00    -0.646 OA
ENDBRANCH   1   2
BRANCH   1   5
HETATM    5  C           1     -20.123  -8.310  -2.437  0.00  0.00     0.066 C 
BRANCH   5   6
HETATM    6  C           1     -20.240  -9.794  -2.762  0.00  0.00     0.273 C 
BRANCH   6   7
HETATM    7  N           1     -20.830  -9.955  -4.064  0.00  0.00     0.098 N 
HETATM    8  H           1     -20.095  -9.963  -4.772  0.00  0.00     0.317 HD
BRANCH   7   9
HETATM    9  C           1     -21.521 -11.215  -4.078  0.00  0.00     0.324 C 
BRANCH   9  10
HETATM   10  C           1     -21.567 -11.748  -5.490  0.00  0.00     0.207 C 
HETATM   11  O           1     -22.264 -12.750  -5.757  0.00  0.00    -0.646 OA
HETATM   12  O           1     -20.907 -11.187  -6.391  0.00  0.00    -0.646 OA
ENDBRANCH   9  10
BRANCH   9  13
HETATM   13  C           1     -22.941 -11.020  -3.562  0.00  0.00     0.085 C 
BRANCH  13  14
HETATM   14  C           1     -23.065 -11.626  -2.199  0.00  0.00    -0.055 A 
HETATM   15  C           1     -23.633 -10.892  -1.158  0.00  0.00     0.010 A 
HETATM   16  C           1     -23.749 -11.457   0.111  0.00  0.00     0.037 A 
HETATM   17  C           1     -23.296 -12.756   0.341  0.00  0.00     0.065 A 
HETATM   18  C           1     -22.727 -13.491  -0.700  0.00  0.00     0.037 A 
HETATM   19  C           1     -22.611 -12.925  -1.969  0.00  0.00     0.010 A 
BRANCH  17  20
HETATM   20  O           1     -23.408 -13.305   1.575  0.00  0.00    -0.361 OA
HETATM   21  H           1     -23.231 -14.258   1.497  0.00  0.00     0.217 HD
ENDBRANCH  17  20
ENDBRANCH  13  14
ENDBRANCH   9  13
ENDBRANCH   7   9
ENDBRANCH   6   7
ENDBRANCH   5   6
ENDBRANCH   1   5
BRANCH   1  22
HETATM   22  N           1     -20.952  -6.535  -3.867  0.00  0.00    -0.345 N 
HETATM   23  C           1     -21.117  -6.707  -5.216  0.00  0.00     0.249 C 
HETATM   24  O           1     -21.599  -7.731  -5.639  0.00  0.00    -0.271 OA
HETATM   25  H           1     -20.549  -5.677  -3.513  0.00  0.00     0.163 HD
BRANCH  23  26
HETATM   26  C           1     -20.695  -5.620  -6.174  0.00  0.00     0.274 C 
BRANCH  26  27
HETATM   27  N           1     -19.889  -6.220  -7.287  0.00  0.00    -0.067 N 
HETATM   28  H           1     -19.898  -5.577  -8.110  0.00  0.00     0.275 HD
HETATM   29  H           1     -18.904  -6.361  -6.967  0.00  0.00     0.275 HD
HETATM   30  H           1     -20.302  -7.140  -7.559  0.00  0.00     0.275 HD
ENDBRANCH  26  27
BRANCH  26  31
HETATM   31  C           1     -21.931  -4.944  -6.751  0.00  0.00     0.044 C 
BRANCH  31  32
HETATM   32  C           1     -21.841  -4.932  -8.272  0.00  0.00     0.023 C 
BRANCH  32  33
HETATM   33  C           1     -22.449  -3.642  -8.807  0.00  0.00     0.138 C 
BRANCH  33  34
HETATM   34  N           1     -23.914  -3.711  -8.708  0.00  0.00    -0.227 N 
HETATM   35  C           1     -24.629  -3.475  -9.726  0.00  0.00     0.665 C 
HETATM   36  N           1     -24.068  -3.171 -10.858  0.00  0.00    -0.235 N 
HETATM   37  N           1     -25.891  -3.535  -9.641  0.00  0.00    -0.235 N 
HETATM   38  H           1     -24.657  -2.977 -11.698  0.00  0.00     0.174 HD
HETATM   39  H           1     -23.027  -3.122 -10.929  0.00  0.00     0.174 HD
HETATM   40  H           1     -26.483  -3.339 -10.484  0.00  0.00     0.174 HD
HETATM   41  H           1     -26.344  -3.780  -8.726  0.00  0.00     0.174 HD
HETATM   42  H           1     -24.367  -3.957  -7.793  0.00  0.00     0.177 HD
ENDBRANCH  33  34
ENDBRANCH  32  33
ENDBRANCH  31  32
ENDBRANCH  26  31
ENDBRANCH  23  26
ENDBRANCH   1  22
TORSDOF 16
ENDMDL
MODEL 7
REMARK VINA RESULT:      -6.8      3.349      5.649
REMARK  16 active torsions:
REMARK  status: ('A' for Active; 'I' for Inactive)
REMARK       I    between atoms: N_1  and  C_15 
REMARK    1  A    between atoms: C_4  and  C_5 
REMARK    2  A    between atoms: C_5  and  C_6 
REMARK    3  A    between atoms: C_5  and  N_21 
REMARK    4  A    between atoms: C_6  and  C_7 
REMARK    5  A    between atoms: C_7  and  N_8 
REMARK    6  A    between atoms: N_8  and  C_34 
REMARK    7  A    between atoms: C_10  and  C_17 
REMARK    8  A    between atoms: C_10  and  N_24 
REMARK    9  A    between atoms: N_13  and  C_19 
REMARK       I    between atoms: N_14  and  C_15 
REMARK   10  A    between atoms: C_17  and  C_18 
REMARK   11  A    between atoms: C_18  and  C_19 
REMARK   12  A    between atoms: C_19  and  C_20 
REMARK       I    between atoms: C_20  and  N_21 
REMARK   13  A    between atoms: C_23  and  C_34 
REMARK   14  A    between atoms: C_29  and  O_30 
REMARK   15  A    between atoms: C_32  and  C_35 
REMARK   16  A    between atoms: C_34  and  C_35 
ROOT
HETATM    1  C           1     -21.743  -7.457  -3.738  0.00  0.00     0.187 C 
ENDROOT
BRANCH   1   2
HETATM    2  C           1     -21.719  -6.858  -2.352  0.00  0.00     0.196 C 
HETATM    3  O           1     -21.310  -7.537  -1.385  0.00  0.00    -0.646 OA
HETATM    4  O           1     -22.108  -5.684  -2.172  0.00  0.00    -0.646 OA
ENDBRANCH   1   2
BRANCH   1   5
HETATM    5  C           1     -21.287  -8.908  -3.672  0.00  0.00     0.066 C 
BRANCH   5   6
HETATM    6  C           1     -19.794  -8.985  -3.967  0.00  0.00     0.273 C 
BRANCH   6   7
HETATM    7  N           1     -19.064  -9.052  -2.729  0.00  0.00     0.098 N 
HETATM    8  H           1     -19.720  -9.124  -1.951  0.00  0.00     0.317 HD
BRANCH   7   9
HETATM    9  C           1     -18.241 -10.230  -2.771  0.00  0.00     0.324 C 
BRANCH   9  10
HETATM   10  C           1     -18.598 -11.135  -1.617  0.00  0.00     0.207 C 
HETATM   11  O           1     -19.782 -11.210  -1.226  0.00  0.00    -0.646 OA
HETATM   12  O           1     -17.709 -11.809  -1.053  0.00  0.00    -0.646 OA
ENDBRANCH   9  10
BRANCH   9  13
HETATM   13  C           1     -16.775  -9.827  -2.666  0.00  0.00     0.085 C 
BRANCH  13  14
HETATM   14  C           1     -15.985 -10.541  -3.717  0.00  0.00    -0.055 A 
HETATM   15  C           1     -16.142 -10.201  -5.060  0.00  0.00     0.010 A 
HETATM   16  C           1     -15.405 -10.865  -6.040  0.00  0.00     0.037 A 
HETATM   17  C           1     -14.510 -11.871  -5.677  0.00  0.00     0.065 A 
HETATM   18  C           1     -14.352 -12.212  -4.333  0.00  0.00     0.037 A 
HETATM   19  C           1     -15.090 -11.547  -3.354  0.00  0.00     0.010 A 
BRANCH  17  20
HETATM   20  O           1     -13.794 -12.517  -6.628  0.00  0.00    -0.361 OA
HETATM   21  H           1     -14.251 -13.351  -6.834  0.00  0.00     0.217 HD
ENDBRANCH  17  20
ENDBRANCH  13  14
ENDBRANCH   9  13
ENDBRANCH   7   9
ENDBRANCH   6   7
ENDBRANCH   5   6
ENDBRANCH   1   5
BRANCH   1  22
HETATM   22  N           1     -20.851  -6.710  -4.601  0.00  0.00    -0.345 N 
HETATM   23  C           1     -21.363  -5.838  -5.526  0.00  0.00     0.249 C 
HETATM   24  O           1     -22.558  -5.692  -5.621  0.00  0.00    -0.271 OA
HETATM   25  H           1     -19.850  -6.831  -4.522  0.00  0.00     0.163 HD
BRANCH  23  26
HETATM   26  C           1     -20.434  -5.060  -6.425  0.00  0.00     0.274 C 
BRANCH  26  27
HETATM   27  N           1     -19.887  -5.971  -7.484  0.00  0.00    -0.067 N 
HETATM   28  H           1     -20.646  -6.602  -7.828  0.00  0.00     0.275 HD
HETATM   29  H           1     -19.522  -5.400  -8.280  0.00  0.00     0.275 HD
HETATM   30  H           1     -19.112  -6.545  -7.082  0.00  0.00     0.275 HD
ENDBRANCH  26  27
BRANCH  26  31
HETATM   31  C           1     -21.200  -3.921  -7.084  0.00  0.00     0.044 C 
BRANCH  31  32
HETATM   32  C           1     -21.665  -4.354  -8.468  0.00  0.00     0.023 C 
BRANCH  32  33
HETATM   33  C           1     -23.106  -3.907  -8.682  0.00  0.00     0.138 C 
BRANCH  33  34
HETATM   34  N           1     -23.313  -3.578 -10.100  0.00  0.00    -0.227 N 
HETATM   35  C           1     -24.487  -3.475 -10.561  0.00  0.00     0.665 C 
HETATM   36  N           1     -25.511  -3.661  -9.782  0.00  0.00    -0.235 N 
HETATM   37  N           1     -24.665  -3.191 -11.782  0.00  0.00    -0.235 N 
HETATM   38  H           1     -26.479  -3.576 -10.162  0.00  0.00     0.174 HD
HETATM   39  H           1     -25.364  -3.896  -8.774  0.00  0.00     0.174 HD
HETATM   40  H           1     -25.638  -3.106 -12.164  0.00  0.00     0.174 HD
HETATM   41  H           1     -23.838  -3.041 -12.411  0.00  0.00     0.174 HD
HETATM   42  H           1     -22.486  -3.427 -10.729  0.00  0.00     0.177 HD
ENDBRANCH  33  34
ENDBRANCH  32  33
ENDBRANCH  31  32
ENDBRANCH  26  31
ENDBRANCH  23  26
ENDBRANCH   1  22
TORSDOF 16
ENDMDL
MODEL 8
REMARK VINA RESULT:      -6.8      2.890      5.177
REMARK  16 active torsions:
REMARK  status: ('A' for Active; 'I' for Inactive)
REMARK       I    between atoms: N_1  and  C_15 
REMARK    1  A    between atoms: C_4  and  C_5 
REMARK    2  A    between atoms: C_5  and  C_6 
REMARK    3  A    between atoms: C_5  and  N_21 
REMARK    4  A    between atoms: C_6  and  C_7 
REMARK    5  A    between atoms: C_7  and  N_8 
REMARK    6  A    between atoms: N_8  and  C_34 
REMARK    7  A    between atoms: C_10  and  C_17 
REMARK    8  A    between atoms: C_10  and  N_24 
REMARK    9  A    between atoms: N_13  and  C_19 
REMARK       I    between atoms: N_14  and  C_15 
REMARK   10  A    between atoms: C_17  and  C_18 
REMARK   11  A    between atoms: C_18  and  C_19 
REMARK   12  A    between atoms: C_19  and  C_20 
REMARK       I    between atoms: C_20  and  N_21 
REMARK   13  A    between atoms: C_23  and  C_34 
REMARK   14  A    between atoms: C_29  and  O_30 
REMARK   15  A    between atoms: C_32  and  C_35 
REMARK   16  A    between atoms: C_34  and  C_35 
ROOT
HETATM    1  C           1     -21.104  -4.967  -7.335  0.00  0.00     0.187 C 
ENDROOT
BRANCH   1   2
HETATM    2  C           1     -19.668  -4.501  -7.383  0.00  0.00     0.196 C 
HETATM    3  O           1     -19.129  -4.249  -8.483  0.00  0.00    -0.646 OA
HETATM    4  O           1     -19.018  -4.371  -6.323  0.00  0.00    -0.646 OA
ENDBRANCH   1   2
BRANCH   1   5
HETATM    5  C           1     -21.145  -6.453  -7.008  0.00  0.00     0.066 C 
BRANCH   5   6
HETATM    6  C           1     -20.556  -6.685  -5.622  0.00  0.00     0.273 C 
BRANCH   6   7
HETATM    7  N           1     -19.784  -7.899  -5.626  0.00  0.00     0.098 N 
HETATM    8  H           1     -18.820  -7.687  -5.884  0.00  0.00     0.317 HD
BRANCH   7   9
HETATM    9  C           1     -19.815  -8.441  -4.295  0.00  0.00     0.324 C 
BRANCH   9  10
HETATM   10  C           1     -18.839  -9.587  -4.196  0.00  0.00     0.207 C 
HETATM   11  O           1     -19.125 -10.697  -4.694  0.00  0.00    -0.646 OA
HETATM   12  O           1     -17.744  -9.426  -3.614  0.00  0.00    -0.646 OA
ENDBRANCH   9  10
BRANCH   9  13
HETATM   13  C           1     -21.220  -8.941  -3.984  0.00  0.00     0.085 C 
BRANCH  13  14
HETATM   14  C           1     -21.562  -8.617  -2.564  0.00  0.00    -0.055 A 
HETATM   15  C           1     -21.571  -9.625  -1.600  0.00  0.00     0.010 A 
HETATM   16  C           1     -21.889  -9.323  -0.276  0.00  0.00     0.037 A 
HETATM   17  C           1     -22.200  -8.012   0.085  0.00  0.00     0.065 A 
HETATM   18  C           1     -22.192  -7.002  -0.879  0.00  0.00     0.037 A 
HETATM   19  C           1     -21.874  -7.306  -2.203  0.00  0.00     0.010 A 
BRANCH  17  20
HETATM   20  O           1     -22.511  -7.718   1.370  0.00  0.00    -0.361 OA
HETATM   21  H           1     -22.597  -8.555   1.857  0.00  0.00     0.217 HD
ENDBRANCH  17  20
ENDBRANCH  13  14
ENDBRANCH   9  13
ENDBRANCH   7   9
ENDBRANCH   6   7
ENDBRANCH   5   6
ENDBRANCH   1   5
BRANCH   1  22
HETATM   22  N           1     -21.727  -4.739  -8.624  0.00  0.00    -0.345 N 
HETATM   23  C           1     -23.039  -4.349  -8.691  0.00  0.00     0.249 C 
HETATM   24  O           1     -23.675  -4.196  -7.676  0.00  0.00    -0.271 OA
HETATM   25  H           1     -21.194  -4.868  -9.474  0.00  0.00     0.163 HD
BRANCH  23  26
HETATM   26  C           1     -23.688  -4.113 -10.032  0.00  0.00     0.274 C 
BRANCH  26  27
HETATM   27  N           1     -25.174  -4.007  -9.855  0.00  0.00    -0.067 N 
HETATM   28  H           1     -25.653  -4.592 -10.577  0.00  0.00     0.275 HD
HETATM   29  H           1     -25.436  -4.347  -8.903  0.00  0.00     0.275 HD
HETATM   30  H           1     -25.467  -3.010  -9.964  0.00  0.00     0.275 HD
ENDBRANCH  26  27
BRANCH  26  31
HETATM   31  C           1     -23.156  -2.819 -10.633  0.00  0.00     0.044 C 
BRANCH  31  32
HETATM   32  C           1     -22.429  -3.124 -11.936  0.00  0.00     0.023 C 
BRANCH  32  33
HETATM   33  C           1     -23.447  -3.362 -13.043  0.00  0.00     0.138 C 
BRANCH  33  34
HETATM   34  N           1     -24.022  -2.076 -13.467  0.00  0.00    -0.227 N 
HETATM   35  C           1     -23.703  -1.578 -14.586  0.00  0.00     0.665 C 
HETATM   36  N           1     -22.868  -2.204 -15.362  0.00  0.00    -0.235 N 
HETATM   37  N           1     -24.198  -0.472 -14.951  0.00  0.00    -0.235 N 
HETATM   38  H           1     -22.605  -1.794 -16.285  0.00  0.00     0.174 HD
HETATM   39  H           1     -22.459  -3.117 -15.061  0.00  0.00     0.174 HD
HETATM   40  H           1     -23.934  -0.059 -15.879  0.00  0.00     0.174 HD
HETATM   41  H           1     -24.872   0.033 -14.324  0.00  0.00     0.174 HD
HETATM   42  H           1     -24.696  -1.571 -12.840  0.00  0.00     0.177 HD
ENDBRANCH  33  34
ENDBRANCH  32  33
ENDBRANCH  31  32
ENDBRANCH  26  31
ENDBRANCH  23  26
ENDBRANCH   1  22
TORSDOF 16
ENDMDL
MODEL 9
REMARK VINA RESULT:      -6.8      2.804      9.174
REMARK  16 active torsions:
REMARK  status: ('A' for Active; 'I' for Inactive)
REMARK       I    between atoms: N_1  and  C_15 
REMARK    1  A    between atoms: C_4  and  C_5 
REMARK    2  A    between atoms: C_5  and  C_6 
REMARK    3  A    between atoms: C_5  and  N_21 
REMARK    4  A    between atoms: C_6  and  C_7 
REMARK    5  A    between atoms: C_7  and  N_8 
REMARK    6  A    between atoms: N_8  and  C_34 
REMARK    7  A    between atoms: C_10  and  C_17 
REMARK    8  A    between atoms: C_10  and  N_24 
REMARK    9  A    between atoms: N_13  and  C_19 
REMARK       I    between atoms: N_14  and  C_15 
REMARK   10  A    between atoms: C_17  and  C_18 
REMARK   11  A    between atoms: C_18  and  C_19 
REMARK   12  A    between atoms: C_19  and  C_20 
REMARK       I    between atoms: C_20  and  N_21 
REMARK   13  A    between atoms: C_23  and  C_34 
REMARK   14  A    between atoms: C_29  and  O_30 
REMARK   15  A    between atoms: C_32  and  C_35 
REMARK   16  A    between atoms: C_34  and  C_35 
ROOT
HETATM    1  C           1     -21.408  -7.203  -4.090  0.00  0.00     0.187 C 
ENDROOT
BRANCH   1   2
HETATM    2  C           1     -21.603  -6.859  -2.633  0.00  0.00     0.196 C 
HETATM    3  O           1     -22.456  -6.008  -2.301  0.00  0.00    -0.646 OA
HETATM    4  O           1     -20.910  -7.423  -1.760  0.00  0.00    -0.646 OA
ENDBRANCH   1   2
BRANCH   1   5
HETATM    5  C           1     -22.372  -6.387  -4.939  0.00  0.00     0.066 C 
BRANCH   5   6
HETATM    6  C           1     -21.584  -5.453  -5.849  0.00  0.00     0.273 C 
BRANCH   6   7
HETATM    7  N           1     -21.202  -6.157  -7.044  0.00  0.00     0.098 N 
HETATM    8  H           1     -21.959  -6.779  -7.328  0.00  0.00     0.317 HD
BRANCH   7   9
HETATM    9  C           1     -20.975  -5.180  -8.073  0.00  0.00     0.324 C 
BRANCH   9  10
HETATM   10  C           1     -19.623  -4.539  -7.868  0.00  0.00     0.207 C 
HETATM   11  O           1     -19.403  -3.391  -8.309  0.00  0.00    -0.646 OA
HETATM   12  O           1     -18.725  -5.158  -7.258  0.00  0.00    -0.646 OA
ENDBRANCH   9  10
BRANCH   9  13
HETATM   13  C           1     -22.059  -4.112  -8.006  0.00  0.00     0.085 C 
BRANCH  13  14
HETATM   14  C           1     -22.685  -3.951  -9.355  0.00  0.00    -0.055 A 
HETATM   15  C           1     -21.941  -4.211 -10.506  0.00  0.00     0.010 A 
HETATM   16  C           1     -22.525  -4.062 -11.764  0.00  0.00     0.037 A 
HETATM   17  C           1     -23.853  -3.651 -11.872  0.00  0.00     0.065 A 
HETATM   18  C           1     -24.598  -3.391 -10.721  0.00  0.00     0.037 A 
HETATM   19  C           1     -24.014  -3.540  -9.464  0.00  0.00     0.010 A 
BRANCH  17  20
HETATM   20  O           1     -24.420  -3.505 -13.093  0.00  0.00    -0.361 OA
HETATM   21  H           1     -23.858  -2.909 -13.617  0.00  0.00     0.217 HD
ENDBRANCH  17  20
ENDBRANCH  13  14
ENDBRANCH   9  13
ENDBRANCH   7   9
ENDBRANCH   6   7
ENDBRANCH   5   6
ENDBRANCH   1   5
BRANCH   1  22
HETATM   22  N           1     -21.666  -8.616  -4.290  0.00  0.00    -0.345 N 
HETATM   23  C           1     -20.886  -9.340  -5.152  0.00  0.00     0.249 C 
HETATM   24  O           1     -19.983  -8.801  -5.746  0.00  0.00    -0.271 OA
HETATM   25  H           1     -22.422  -9.067  -3.792  0.00  0.00     0.163 HD
BRANCH  23  26
HETATM   26  C           1     -21.155 -10.810  -5.361  0.00  0.00     0.274 C 
BRANCH  26  27
HETATM   27  N           1     -20.303 -11.318  -6.485  0.00  0.00    -0.067 N 
HETATM   28  H           1     -19.520 -11.893  -6.098  0.00  0.00     0.275 HD
HETATM   29  H           1     -20.883 -11.908  -7.123  0.00  0.00     0.275 HD
HETATM   30  H           1     -19.910 -10.510  -7.018  0.00  0.00     0.275 HD
ENDBRANCH  26  27
BRANCH  26  31
HETATM   31  C           1     -20.821 -11.573  -4.087  0.00  0.00     0.044 C 
BRANCH  31  32
HETATM   32  C           1     -22.103 -12.104  -3.460  0.00  0.00     0.023 C 
BRANCH  32  33
HETATM   33  C           1     -21.985 -12.054  -1.942  0.00  0.00     0.138 C 
BRANCH  33  34
HETATM   34  N           1     -22.831 -10.972  -1.418  0.00  0.00    -0.227 N 
HETATM   35  C           1     -22.344 -10.116  -0.622  0.00  0.00     0.665 C 
HETATM   36  N           1     -21.096 -10.194  -0.268  0.00  0.00    -0.235 N 
HETATM   37  N           1     -23.073  -9.184  -0.172  0.00  0.00    -0.235 N 
HETATM   38  H           1     -20.694  -9.488   0.388  0.00  0.00     0.174 HD
HETATM   39  H           1     -20.495 -10.964  -0.639  0.00  0.00     0.174 HD
HETATM   40  H           1     -22.670  -8.475   0.488  0.00  0.00     0.174 HD
HETATM   41  H           1     -24.081  -9.122  -0.458  0.00  0.00     0.174 HD
HETATM   42  H           1     -23.840 -10.909  -1.705  0.00  0.00     0.177 HD
ENDBRANCH  33  34
ENDBRANCH  32  33
ENDBRANCH  31  32
ENDBRANCH  26  31
ENDBRANCH  23  26
ENDBRANCH   1  22
TORSDOF 16
ENDMDL
