MODEL 1
REMARK VINA RESULT:      -6.0      0.000      0.000
REMARK  10 active torsions:
REMARK  status: ('A' for Active; 'I' for Inactive)
REMARK    1  A    between atoms: C_2  and  S_16 
REMARK    2  A    between atoms: C_2  and  C_3 
REMARK    3  A    between atoms: C_3  and  C_10 
REMARK    4  A    between atoms: C_4  and  C_15 
REMARK    5  A    between atoms: C_4  and  C_22 
REMARK    6  A    between atoms: C_4  and  N_23 
REMARK    7  A    between atoms: C_9  and  C_10 
REMARK    8  A    between atoms: C_10  and  N_12 
REMARK       I    between atoms: N_12  and  C_15 
REMARK       I    between atoms: N_19  and  C_20 
REMARK    9  A    between atoms: C_20  and  C_21 
REMARK   10  A    between atoms: C_21  and  C_22 
ROOT
HETATM    1  C           1     -23.851  -4.610 -10.382  0.00  0.00     0.275 C 
ENDROOT
BRANCH   1   2
HETATM    2  C           1     -23.150  -4.429  -9.059  0.00  0.00     0.249 C 
HETATM    3  O           1     -23.692  -3.823  -8.165  0.00  0.00    -0.271 OA
HETATM    4  N           1     -21.900  -4.954  -8.870  0.00  0.00    -0.345 N 
HETATM    5  H           1     -21.445  -5.463  -9.617  0.00  0.00     0.163 HD
BRANCH   4   6
HETATM    6  C           1     -21.226  -4.782  -7.597  0.00  0.00     0.186 C 
BRANCH   6   7
HETATM    7  C           1     -21.181  -6.115  -6.862  0.00  0.00     0.046 C 
BRANCH   7   8
HETATM    8  C           1     -21.959  -6.004  -5.558  0.00  0.00     0.076 C 
BRANCH   8   9
HETATM    9  S           1     -21.438  -7.323  -4.426  0.00  0.00    -0.173 SA
HETATM   10  C           1     -21.714  -6.391  -2.894  0.00  0.00     0.089 C 
ENDBRANCH   8   9
ENDBRANCH   7   8
ENDBRANCH   6   7
BRANCH   6  11
HETATM   11  C           1     -19.819  -4.291  -7.836  0.00  0.00     0.196 C 
HETATM   12  O           1     -19.574  -3.549  -8.811  0.00  0.00    -0.646 OA
HETATM   13  O           1     -18.900  -4.627  -7.058  0.00  0.00    -0.646 OA
ENDBRANCH   6  11
ENDBRANCH   4   6
ENDBRANCH   1   2
BRANCH   1  14
HETATM   14  C           1     -22.852  -4.420 -11.517  0.00  0.00     0.052 C 
BRANCH  14  15
HETATM   15  C           1     -22.800  -2.949 -11.908  0.00  0.00     0.105 C 
BRANCH  15  16
HETATM   16  C           1     -23.347  -2.779 -13.304  0.00  0.00     0.215 C 
HETATM   17  N           1     -22.546  -3.021 -14.388  0.00  0.00    -0.370 N 
HETATM   18  H           1     -22.913  -2.907 -15.323  0.00  0.00     0.159 HD
HETATM   19  H           1     -21.587  -3.314 -14.252  0.00  0.00     0.159 HD
HETATM   20  O           1     -24.492  -2.429 -13.466  0.00  0.00    -0.274 OA
ENDBRANCH  15  16
ENDBRANCH  14  15
ENDBRANCH   1  14
BRANCH   1  21
HETATM   21  N           1     -24.949  -3.597 -10.510  0.00  0.00    -0.066 N 
HETATM   22  H           1     -25.293  -3.576 -11.496  0.00  0.00     0.275 HD
HETATM   23  H           1     -25.736  -3.854  -9.871  0.00  0.00     0.275 HD
HETATM   24  H           1     -24.583  -2.653 -10.250  0.00  0.00     0.275 HD
ENDBRANCH   1  21
TORSDOF 10
ENDMDL
MODEL 2
REMARK VINA RESULT:      -5.6      1.961      2.326
REMARK  10 active torsions:
REMARK  status: ('A' for Active; 'I' for Inactive)
REMARK    1  A    between atoms: C_2  and  S_16 
REMARK    2  A    between atoms: C_2  and  C_3 
REMARK    3  A    between atoms: C_3  and  C_10 
REMARK    4  A    between atoms: C_4  and  C_15 
REMARK    5  A    between atoms: C_4  and  C_22 
REMARK    6  A    between atoms: C_4  and  N_23 
REMARK    7  A    between atoms: C_9  and  C_10 
REMARK    8  A    between atoms: C_10  and  N_12 
REMARK       I    between atoms: N_12  and  C_15 
REMARK       I    between atoms: N_19  and  C_20 
REMARK    9  A    between atoms: C_20  and  C_21 
REMARK   10  A    between atoms: C_21  and  C_22 
ROOT
HETATM    1  C           1     -21.995  -3.297 -11.484  0.00  0.00     0.275 C 
ENDROOT
BRANCH   1   2
HETATM    2  C           1     -22.242  -4.114 -10.241  0.00  0.00     0.249 C 
HETATM    3  O           1     -23.342  -4.563 -10.022  0.00  0.00    -0.271 OA
HETATM    4  N           1     -21.219  -4.348  -9.362  0.00  0.00    -0.345 N 
HETATM    5  H           1     -20.297  -3.973  -9.545  0.00  0.00     0.163 HD
BRANCH   4   6
HETATM    6  C           1     -21.457  -5.135  -8.167  0.00  0.00     0.186 C 
BRANCH   6   7
HETATM    7  C           1     -20.130  -5.657  -7.631  0.00  0.00     0.046 C 
BRANCH   7   8
HETATM    8  C           1     -20.182  -5.711  -6.110  0.00  0.00     0.076 C 
BRANCH   8   9
HETATM    9  S           1     -20.709  -7.365  -5.580  0.00  0.00    -0.173 SA
HETATM   10  C           1     -21.781  -6.807  -4.226  0.00  0.00     0.089 C 
ENDBRANCH   8   9
ENDBRANCH   7   8
ENDBRANCH   6   7
BRANCH   6  11
HETATM   11  C           1     -22.117  -4.271  -7.120  0.00  0.00     0.196 C 
HETATM   12  O           1     -23.176  -4.650  -6.575  0.00  0.00    -0.646 OA
HETATM   13  O           1     -21.605  -3.177  -6.799  0.00  0.00    -0.646 OA
ENDBRANCH   6  11
ENDBRANCH   4   6
ENDBRANCH   1   2
BRANCH   1  14
HETATM   14  C           1     -22.949  -3.743 -12.585  0.00  0.00     0.052 C 
BRANCH  14  15
HETATM   15  C           1     -23.844  -2.578 -12.985  0.00  0.00     0.105 C 
BRANCH  15  16
HETATM   16  C           1     -23.462  -2.100 -14.365  0.00  0.00     0.215 C 
HETATM   17  N           1     -23.999  -0.941 -14.861  0.00  0.00    -0.370 N 
HETATM   18  H           1     -23.743  -0.622 -15.785  0.00  0.00     0.159 HD
HETATM   19  H           1     -24.652  -0.407 -14.302  0.00  0.00     0.159 HD
HETATM   20  O           1     -22.684  -2.738 -15.031  0.00  0.00    -0.274 OA
ENDBRANCH  15  16
ENDBRANCH  14  15
ENDBRANCH   1  14
BRANCH   1  21
HETATM   21  N           1     -20.580  -3.494 -11.941  0.00  0.00    -0.066 N 
HETATM   22  H           1     -20.076  -2.580 -11.925  0.00  0.00     0.275 HD
HETATM   23  H           1     -20.099  -4.168 -11.302  0.00  0.00     0.275 HD
HETATM   24  H           1     -20.578  -3.876 -12.914  0.00  0.00     0.275 HD
ENDBRANCH   1  21
TORSDOF 10
ENDMDL
MODEL 3
REMARK VINA RESULT:      -5.6      3.244      5.029
REMARK  10 active torsions:
REMARK  status: ('A' for Active; 'I' for Inactive)
REMARK    1  A    between atoms: C_2  and  S_16 
REMARK    2  A    between atoms: C_2  and  C_3 
REMARK    3  A    between atoms: C_3  and  C_10 
REMARK    4  A    between atoms: C_4  and  C_15 
REMARK    5  A    between atoms: C_4  and  C_22 
REMARK    6  A    between atoms: C_4  and  N_23 
REMARK    7  A    between atoms: C_9  and  C_10 
REMARK    8  A    between atoms: C_10  and  N_12 
REMARK       I    between atoms: N_12  and  C_15 
REMARK       I    between atoms: N_19  and  C_20 
REMARK    9  A    between atoms: C_20  and  C_21 
REMARK   10  A    between atoms: C_21  and  C_22 
ROOT
HETATM    1  C           1     -20.439  -4.995  -6.579  0.00  0.00     0.275 C 
ENDROOT
BRANCH   1   2
HETATM    2  C           1     -21.362  -5.766  -5.667  0.00  0.00     0.249 C 
HETATM    3  O           1     -22.551  -5.557  -5.694  0.00  0.00    -0.271 OA
HETATM    4  N           1     -20.851  -6.703  -4.810  0.00  0.00    -0.345 N 
HETATM    5  H           1     -19.855  -6.879  -4.788  0.00  0.00     0.163 HD
BRANCH   4   6
HETATM    6  C           1     -21.738  -7.445  -3.935  0.00  0.00     0.186 C 
BRANCH   6   7
HETATM    7  C           1     -21.338  -8.914  -3.935  0.00  0.00     0.046 C 
BRANCH   7   8
HETATM    8  C           1     -20.144  -9.115  -4.857  0.00  0.00     0.076 C 
BRANCH   8   9
HETATM    9  S           1     -19.098 -10.451  -4.212  0.00  0.00    -0.173 SA
HETATM   10  C           1     -18.204  -9.437  -3.002  0.00  0.00     0.089 C 
ENDBRANCH   8   9
ENDBRANCH   7   8
ENDBRANCH   6   7
BRANCH   6  11
HETATM   11  C           1     -21.635  -6.894  -2.533  0.00  0.00     0.196 C 
HETATM   12  O           1     -20.875  -7.437  -1.703  0.00  0.00    -0.646 OA
HETATM   13  O           1     -22.309  -5.895  -2.203  0.00  0.00    -0.646 OA
ENDBRANCH   6  11
ENDBRANCH   4   6
ENDBRANCH   1   2
BRANCH   1  14
HETATM   14  C           1     -21.180  -3.797  -7.158  0.00  0.00     0.052 C 
BRANCH  14  15
HETATM   15  C           1     -21.408  -4.012  -8.648  0.00  0.00     0.105 C 
BRANCH  15  16
HETATM   16  C           1     -22.873  -3.828  -8.966  0.00  0.00     0.215 C 
HETATM   17  N           1     -23.818  -4.077  -8.006  0.00  0.00    -0.370 N 
HETATM   18  H           1     -24.798  -3.953  -8.220  0.00  0.00     0.159 HD
HETATM   19  H           1     -23.534  -4.385  -7.085  0.00  0.00     0.159 HD
HETATM   20  O           1     -23.210  -3.460 -10.065  0.00  0.00    -0.274 OA
ENDBRANCH  15  16
ENDBRANCH  14  15
ENDBRANCH   1  14
BRANCH   1  21
HETATM   21  N           1     -19.981  -5.885  -7.696  0.00  0.00    -0.066 N 
HETATM   22  H           1     -20.059  -6.885  -7.402  0.00  0.00     0.275 HD
HETATM   23  H           1     -20.578  -5.722  -8.539  0.00  0.00     0.275 HD
HETATM   24  H           1     -18.984  -5.668  -7.927  0.00  0.00     0.275 HD
ENDBRANCH   1  21
TORSDOF 10
ENDMDL
MODEL 4
REMARK VINA RESULT:      -5.6      3.238      7.072
REMARK  10 active torsions:
REMARK  status: ('A' for Active; 'I' for Inactive)
REMARK    1  A    between atoms: C_2  and  S_16 
REMARK    2  A    between atoms: C_2  and  C_3 
REMARK    3  A    between atoms: C_3  and  C_10 
REMARK    4  A    between atoms: C_4  and  C_15 
REMARK    5  A    between atoms: C_4  and  C_22 
REMARK    6  A    between atoms: C_4  and  N_23 
REMARK    7  A    between atoms: C_9  and  C_10 
REMARK    8  A    between atoms: C_10  and  N_12 
REMARK       I    between atoms: N_12  and  C_15 
REMARK       I    between atoms: N_19  and  C_20 
REMARK    9  A    between atoms: C_20  and  C_21 
REMARK   10  A    between atoms: C_21  and  C_22 
ROOT
HETATM    1  C           1     -20.154  -5.086  -8.427  0.00  0.00     0.275 C 
ENDROOT
BRANCH   1   2
HETATM    2  C           1     -21.055  -4.410  -9.431  0.00  0.00     0.249 C 
HETATM    3  O           1     -20.592  -3.638 -10.236  0.00  0.00    -0.271 OA
HETATM    4  N           1     -22.398  -4.675  -9.431  0.00  0.00    -0.345 N 
HETATM    5  H           1     -22.787  -5.323  -8.758  0.00  0.00     0.163 HD
BRANCH   4   6
HETATM    6  C           1     -23.265  -4.027 -10.397  0.00  0.00     0.186 C 
BRANCH   6   7
HETATM    7  C           1     -23.378  -4.898 -11.641  0.00  0.00     0.046 C 
BRANCH   7   8
HETATM    8  C           1     -23.912  -4.064 -12.798  0.00  0.00     0.076 C 
BRANCH   8   9
HETATM    9  S           1     -22.932  -2.544 -12.952  0.00  0.00    -0.173 SA
HETATM   10  C           1     -23.009  -2.440 -14.763  0.00  0.00     0.089 C 
ENDBRANCH   8   9
ENDBRANCH   7   8
ENDBRANCH   6   7
BRANCH   6  11
HETATM   11  C           1     -24.634  -3.832  -9.792  0.00  0.00     0.196 C 
HETATM   12  O           1     -25.063  -2.679  -9.578  0.00  0.00    -0.646 OA
HETATM   13  O           1     -25.337  -4.826  -9.505  0.00  0.00    -0.646 OA
ENDBRANCH   6  11
ENDBRANCH   4   6
ENDBRANCH   1   2
BRANCH   1  14
HETATM   14  C           1     -21.001  -5.829  -7.402  0.00  0.00     0.052 C 
BRANCH  14  15
HETATM   15  C           1     -20.554  -5.444  -5.998  0.00  0.00     0.105 C 
BRANCH  15  16
HETATM   16  C           1     -21.560  -5.950  -4.993  0.00  0.00     0.215 C 
HETATM   17  N           1     -21.145  -6.339  -3.747  0.00  0.00    -0.370 N 
HETATM   18  H           1     -21.819  -6.678  -3.073  0.00  0.00     0.159 HD
HETATM   19  H           1     -20.165  -6.288  -3.501  0.00  0.00     0.159 HD
HETATM   20  O           1     -22.729  -6.011  -5.286  0.00  0.00    -0.274 OA
ENDBRANCH  15  16
ENDBRANCH  14  15
ENDBRANCH   1  14
BRANCH   1  21
HETATM   21  N           1     -19.318  -4.054  -7.730  0.00  0.00    -0.066 N 
HETATM   22  H           1     -18.996  -3.339  -8.420  0.00  0.00     0.275 HD
HETATM   23  H           1     -19.889  -3.589  -6.987  0.00  0.00     0.275 HD
HETATM   24  H           1     -18.488  -4.515  -7.294  0.00  0.00     0.275 HD
ENDBRANCH   1  21
TORSDOF 10
ENDMDL
MODEL 5
REMARK VINA RESULT:      -5.5      2.477      3.620
REMARK  10 active torsions:
REMARK  status: ('A' for Active; 'I' for Inactive)
REMARK    1  A    between atoms: C_2  and  S_16 
REMARK    2  A    between atoms: C_2  and  C_3 
REMARK    3  A    between atoms: C_3  and  C_10 
REMARK    4  A    between atoms: C_4  and  C_15 
REMARK    5  A    between atoms: C_4  and  C_22 
REMARK    6  A    between atoms: C_4  and  N_23 
REMARK    7  A    between atoms: C_9  and  C_10 
REMARK    8  A    between atoms: C_10  and  N_12 
REMARK       I    between atoms: N_12  and  C_15 
REMARK       I    between atoms: N_19  and  C_20 
REMARK    9  A    between atoms: C_20  and  C_21 
REMARK   10  A    between atoms: C_21  and  C_22 
ROOT
HETATM    1  C           1     -21.347  -4.646  -8.409  0.00  0.00     0.275 C 
ENDROOT
BRANCH   1   2
HETATM    2  C           1     -20.768  -5.180  -7.122  0.00  0.00     0.249 C 
HETATM    3  O           1     -19.656  -4.856  -6.778  0.00  0.00    -0.271 OA
HETATM    4  N           1     -21.505  -6.032  -6.343  0.00  0.00    -0.345 N 
HETATM    5  H           1     -22.436  -6.303  -6.629  0.00  0.00     0.163 HD
BRANCH   4   6
HETATM    6  C           1     -20.949  -6.544  -5.104  0.00  0.00     0.186 C 
BRANCH   6   7
HETATM    7  C           1     -22.021  -6.527  -4.023  0.00  0.00     0.046 C 
BRANCH   7   8
HETATM    8  C           1     -21.421  -6.012  -2.721  0.00  0.00     0.076 C 
BRANCH   8   9
HETATM    9  S           1     -22.203  -6.857  -1.318  0.00  0.00    -0.173 SA
HETATM   10  C           1     -21.563  -8.511  -1.699  0.00  0.00     0.089 C 
ENDBRANCH   8   9
ENDBRANCH   7   8
ENDBRANCH   6   7
BRANCH   6  11
HETATM   11  C           1     -20.471  -7.960  -5.318  0.00  0.00     0.196 C 
HETATM   12  O           1     -19.313  -8.286  -4.977  0.00  0.00    -0.646 OA
HETATM   13  O           1     -21.233  -8.806  -5.834  0.00  0.00    -0.646 OA
ENDBRANCH   6  11
ENDBRANCH   4   6
ENDBRANCH   1   2
BRANCH   1  14
HETATM   14  C           1     -20.234  -4.035  -9.252  0.00  0.00     0.052 C 
BRANCH  14  15
HETATM   15  C           1     -20.323  -4.568 -10.675  0.00  0.00     0.105 C 
BRANCH  15  16
HETATM   16  C           1     -21.455  -3.881 -11.401  0.00  0.00     0.215 C 
HETATM   17  N           1     -22.317  -4.613 -12.173  0.00  0.00    -0.370 N 
HETATM   18  H           1     -23.075  -4.151 -12.659  0.00  0.00     0.159 HD
HETATM   19  H           1     -22.196  -5.614 -12.257  0.00  0.00     0.159 HD
HETATM   20  O           1     -21.599  -2.686 -11.300  0.00  0.00    -0.274 OA
ENDBRANCH  15  16
ENDBRANCH  14  15
ENDBRANCH   1  14
BRANCH   1  21
HETATM   21  N           1     -22.372  -3.597  -8.099  0.00  0.00    -0.066 N 
HETATM   22  H           1     -22.636  -3.096  -8.977  0.00  0.00     0.275 HD
HETATM   23  H           1     -23.220  -4.049  -7.687  0.00  0.00     0.275 HD
HETATM   24  H           1     -21.975  -2.913  -7.415  0.00  0.00     0.275 HD
ENDBRANCH   1  21
TORSDOF 10
ENDMDL
MODEL 6
REMARK VINA RESULT:      -5.5      4.358      8.421
REMARK  10 active torsions:
REMARK  status: ('A' for Active; 'I' for Inactive)
REMARK    1  A    between atoms: C_2  and  S_16 
REMARK    2  A    between atoms: C_2  and  C_3 
REMARK    3  A    between atoms: C_3  and  C_10 
REMARK    4  A    between atoms: C_4  and  C_15 
REMARK    5  A    between atoms: C_4  and  C_22 
REMARK    6  A    between atoms: C_4  and  N_23 
REMARK    7  A    between atoms: C_9  and  C_10 
REMARK    8  A    between atoms: C_10  and  N_12 
REMARK       I    between atoms: N_12  and  C_15 
REMARK       I    between atoms: N_19  and  C_20 
REMARK    9  A    between atoms: C_20  and  C_21 
REMARK   10  A    between atoms: C_21  and  C_22 
ROOT
HETATM    1  C           1     -21.339  -6.606  -2.810  0.00  0.00     0.275 C 
ENDROOT
BRANCH   1   2
HETATM    2  C           1     -21.480  -6.580  -4.312  0.00  0.00     0.249 C 
HETATM    3  O           1     -21.952  -7.529  -4.892  0.00  0.00    -0.271 OA
HETATM    4  N           1     -21.075  -5.479  -5.018  0.00  0.00    -0.345 N 
HETATM    5  H           1     -20.681  -4.683  -4.533  0.00  0.00     0.163 HD
BRANCH   4   6
HETATM    6  C           1     -21.212  -5.453  -6.462  0.00  0.00     0.186 C 
BRANCH   6   7
HETATM    7  C           1     -21.725  -4.087  -6.898  0.00  0.00     0.046 C 
BRANCH   7   8
HETATM    8  C           1     -22.908  -4.266  -7.840  0.00  0.00     0.076 C 
BRANCH   8   9
HETATM    9  S           1     -22.360  -4.026  -9.553  0.00  0.00    -0.173 SA
HETATM   10  C           1     -23.802  -4.803 -10.334  0.00  0.00     0.089 C 
ENDBRANCH   8   9
ENDBRANCH   7   8
ENDBRANCH   6   7
BRANCH   6  11
HETATM   11  C           1     -19.869  -5.714  -7.098  0.00  0.00     0.196 C 
HETATM   12  O           1     -19.380  -6.863  -7.076  0.00  0.00    -0.646 OA
HETATM   13  O           1     -19.246  -4.779  -7.647  0.00  0.00    -0.646 OA
ENDBRANCH   6  11
ENDBRANCH   4   6
ENDBRANCH   1   2
BRANCH   1  14
HETATM   14  C           1     -21.471  -8.040  -2.312  0.00  0.00     0.052 C 
BRANCH  14  15
HETATM   15  C           1     -21.324  -8.066  -0.797  0.00  0.00     0.105 C 
BRANCH  15  16
HETATM   16  C           1     -22.648  -8.429  -0.168  0.00  0.00     0.215 C 
HETATM   17  N           1     -23.011  -9.745  -0.050  0.00  0.00    -0.370 N 
HETATM   18  H           1     -23.899  -9.987   0.371  0.00  0.00     0.159 HD
HETATM   19  H           1     -22.393 -10.472  -0.383  0.00  0.00     0.159 HD
HETATM   20  O           1     -23.386  -7.561   0.230  0.00  0.00    -0.274 OA
ENDBRANCH  15  16
ENDBRANCH  14  15
ENDBRANCH   1  14
BRANCH   1  21
HETATM   21  N           1     -22.413  -5.762  -2.191  0.00  0.00    -0.066 N 
HETATM   22  H           1     -21.988  -4.899  -1.784  0.00  0.00     0.275 HD
HETATM   23  H           1     -23.111  -5.495  -2.923  0.00  0.00     0.275 HD
HETATM   24  H           1     -22.890  -6.305  -1.436  0.00  0.00     0.275 HD
ENDBRANCH   1  21
TORSDOF 10
ENDMDL
MODEL 7
REMARK VINA RESULT:      -5.1      3.735      5.761
REMARK  10 active torsions:
REMARK  status: ('A' for Active; 'I' for Inactive)
REMARK    1  A    between atoms: C_2  and  S_16 
REMARK    2  A    between atoms: C_2  and  C_3 
REMARK    3  A    between atoms: C_3  and  C_10 
REMARK    4  A    between atoms: C_4  and  C_15 
REMARK    5  A    between atoms: C_4  and  C_22 
REMARK    6  A    between atoms: C_4  and  N_23 
REMARK    7  A    between atoms: C_9  and  C_10 
REMARK    8  A    between atoms: C_10  and  N_12 
REMARK       I    between atoms: N_12  and  C_15 
REMARK       I    between atoms: N_19  and  C_20 
REMARK    9  A    between atoms: C_20  and  C_21 
REMARK   10  A    between atoms: C_21  and  C_22 
ROOT
HETATM    1  C           1     -20.639  -5.809  -6.049  0.00  0.00     0.275 C 
ENDROOT
BRANCH   1   2
HETATM    2  C           1     -21.074  -6.846  -5.043  0.00  0.00     0.249 C 
HETATM    3  O           1     -21.580  -7.877  -5.418  0.00  0.00    -0.271 OA
HETATM    4  N           1     -20.894  -6.619  -3.705  0.00  0.00    -0.345 N 
HETATM    5  H           1     -20.469  -5.756  -3.390  0.00  0.00     0.163 HD
BRANCH   4   6
HETATM    6  C           1     -21.311  -7.616  -2.738  0.00  0.00     0.186 C 
BRANCH   6   7
HETATM    7  C           1     -20.081  -8.287  -2.140  0.00  0.00     0.046 C 
BRANCH   7   8
HETATM    8  C           1     -19.931  -9.685  -2.725  0.00  0.00     0.076 C 
BRANCH   8   9
HETATM    9  S           1     -21.148 -10.795  -1.962  0.00  0.00    -0.173 SA
HETATM   10  C           1     -20.519 -10.644  -0.266  0.00  0.00     0.089 C 
ENDBRANCH   8   9
ENDBRANCH   7   8
ENDBRANCH   6   7
BRANCH   6  11
HETATM   11  C           1     -22.105  -6.950  -1.641  0.00  0.00     0.196 C 
HETATM   12  O           1     -22.502  -5.774  -1.784  0.00  0.00    -0.646 OA
HETATM   13  O           1     -22.364  -7.575  -0.589  0.00  0.00    -0.646 OA
ENDBRANCH   6  11
ENDBRANCH   4   6
ENDBRANCH   1   2
BRANCH   1  14
HETATM   14  C           1     -21.865  -5.103  -6.614  0.00  0.00     0.052 C 
BRANCH  14  15
HETATM   15  C           1     -21.424  -3.895  -7.430  0.00  0.00     0.105 C 
BRANCH  15  16
HETATM   16  C           1     -22.242  -3.817  -8.696  0.00  0.00     0.215 C 
HETATM   17  N           1     -23.580  -3.532  -8.630  0.00  0.00    -0.370 N 
HETATM   18  H           1     -24.127  -3.480  -9.479  0.00  0.00     0.159 HD
HETATM   19  H           1     -24.020  -3.375  -7.733  0.00  0.00     0.159 HD
HETATM   20  O           1     -21.717  -4.005  -9.767  0.00  0.00    -0.274 OA
ENDBRANCH  15  16
ENDBRANCH  14  15
ENDBRANCH   1  14
BRANCH   1  21
HETATM   21  N           1     -19.890  -6.476  -7.164  0.00  0.00    -0.066 N 
HETATM   22  H           1     -20.170  -6.053  -8.076  0.00  0.00     0.275 HD
HETATM   23  H           1     -18.862  -6.346  -7.019  0.00  0.00     0.275 HD
HETATM   24  H           1     -20.113  -7.498  -7.171  0.00  0.00     0.275 HD
ENDBRANCH   1  21
TORSDOF 10
ENDMDL
MODEL 8
REMARK VINA RESULT:      -4.9      3.686      7.673
REMARK  10 active torsions:
REMARK  status: ('A' for Active; 'I' for Inactive)
REMARK    1  A    between atoms: C_2  and  S_16 
REMARK    2  A    between atoms: C_2  and  C_3 
REMARK    3  A    between atoms: C_3  and  C_10 
REMARK    4  A    between atoms: C_4  and  C_15 
REMARK    5  A    between atoms: C_4  and  C_22 
REMARK    6  A    between atoms: C_4  and  N_23 
REMARK    7  A    between atoms: C_9  and  C_10 
REMARK    8  A    between atoms: C_10  and  N_12 
REMARK       I    between atoms: N_12  and  C_15 
REMARK       I    between atoms: N_19  and  C_20 
REMARK    9  A    between atoms: C_20  and  C_21 
REMARK   10  A    between atoms: C_21  and  C_22 
ROOT
HETATM    1  C           1     -21.027  -6.418  -4.623  0.00  0.00     0.275 C 
ENDROOT
BRANCH   1   2
HETATM    2  C           1     -21.170  -6.246  -6.114  0.00  0.00     0.249 C 
HETATM    3  O           1     -21.144  -7.211  -6.840  0.00  0.00    -0.271 OA
HETATM    4  N           1     -21.332  -4.994  -6.646  0.00  0.00    -0.345 N 
HETATM    5  H           1     -21.355  -4.185  -6.038  0.00  0.00     0.163 HD
BRANCH   4   6
HETATM    6  C           1     -21.471  -4.828  -8.080  0.00  0.00     0.186 C 
BRANCH   6   7
HETATM    7  C           1     -22.375  -3.637  -8.367  0.00  0.00     0.046 C 
BRANCH   7   8
HETATM    8  C           1     -23.727  -4.132  -8.861  0.00  0.00     0.076 C 
BRANCH   8   9
HETATM    9  S           1     -23.560  -4.765 -10.553  0.00  0.00    -0.173 SA
HETATM   10  C           1     -22.892  -3.237 -11.272  0.00  0.00     0.089 C 
ENDBRANCH   8   9
ENDBRANCH   7   8
ENDBRANCH   6   7
BRANCH   6  11
HETATM   11  C           1     -20.112  -4.590  -8.692  0.00  0.00     0.196 C 
HETATM   12  O           1     -19.931  -4.796  -9.911  0.00  0.00    -0.646 OA
HETATM   13  O           1     -19.169  -4.185  -7.978  0.00  0.00    -0.646 OA
ENDBRANCH   6  11
ENDBRANCH   4   6
ENDBRANCH   1   2
BRANCH   1  14
HETATM   14  C           1     -20.628  -7.856  -4.312  0.00  0.00     0.052 C 
BRANCH  14  15
HETATM   15  C           1     -21.387  -8.340  -3.084  0.00  0.00     0.105 C 
BRANCH  15  16
HETATM   16  C           1     -20.406  -8.700  -1.995  0.00  0.00     0.215 C 
HETATM   17  N           1     -19.167  -9.183  -2.323  0.00  0.00    -0.370 N 
HETATM   18  H           1     -18.510  -9.424  -1.593  0.00  0.00     0.159 HD
HETATM   19  H           1     -18.909  -9.297  -3.295  0.00  0.00     0.159 HD
HETATM   20  O           1     -20.714  -8.564  -0.836  0.00  0.00    -0.274 OA
ENDBRANCH  15  16
ENDBRANCH  14  15
ENDBRANCH   1  14
BRANCH   1  21
HETATM   21  N           1     -22.333  -6.107  -3.954  0.00  0.00    -0.066 N 
HETATM   22  H           1     -22.943  -5.570  -4.611  0.00  0.00     0.275 HD
HETATM   23  H           1     -22.809  -7.000  -3.688  0.00  0.00     0.275 HD
HETATM   24  H           1     -22.158  -5.537  -3.096  0.00  0.00     0.275 HD
ENDBRANCH   1  21
TORSDOF 10
ENDMDL
MODEL 9
REMARK VINA RESULT:      -4.8      6.348      8.607
REMARK  10 active torsions:
REMARK  status: ('A' for Active; 'I' for Inactive)
REMARK    1  A    between atoms: C_2  and  S_16 
REMARK    2  A    between atoms: C_2  and  C_3 
REMARK    3  A    between atoms: C_3  and  C_10 
REMARK    4  A    between atoms: C_4  and  C_15 
REMARK    5  A    between atoms: C_4  and  C_22 
REMARK    6  A    between atoms: C_4  and  N_23 
REMARK    7  A    between atoms: C_9  and  C_10 
REMARK    8  A    between atoms: C_10  and  N_12 
REMARK       I    between atoms: N_12  and  C_15 
REMARK       I    between atoms: N_19  and  C_20 
REMARK    9  A    between atoms: C_20  and  C_21 
REMARK   10  A    between atoms: C_21  and  C_22 
ROOT
HETATM    1  C           1     -20.439  -9.497  -4.347  0.00  0.00     0.275 C 
ENDROOT
BRANCH   1   2
HETATM    2  C           1     -21.438  -9.680  -3.232  0.00  0.00     0.249 C 
HETATM    3  O           1     -22.427 -10.352  -3.410  0.00  0.00    -0.271 OA
HETATM    4  N           1     -21.224  -9.087  -2.017  0.00  0.00    -0.345 N 
HETATM    5  H           1     -20.396  -8.525  -1.866  0.00  0.00     0.163 HD
BRANCH   4   6
HETATM    6  C           1     -22.185  -9.265  -0.944  0.00  0.00     0.186 C 
BRANCH   6   7
HETATM    7  C           1     -21.667 -10.314   0.031  0.00  0.00     0.046 C 
BRANCH   7   8
HETATM    8  C           1     -22.567 -11.542  -0.021  0.00  0.00     0.076 C 
BRANCH   8   9
HETATM    9  S           1     -21.696 -12.896  -0.858  0.00  0.00    -0.173 SA
HETATM   10  C           1     -23.127 -13.506  -1.792  0.00  0.00     0.089 C 
ENDBRANCH   8   9
ENDBRANCH   7   8
ENDBRANCH   6   7
BRANCH   6  11
HETATM   11  C           1     -22.375  -7.954  -0.220  0.00  0.00     0.196 C 
HETATM   12  O           1     -22.195  -7.892   1.015  0.00  0.00    -0.646 OA
HETATM   13  O           1     -22.713  -6.932  -0.856  0.00  0.00    -0.646 OA
ENDBRANCH   6  11
ENDBRANCH   4   6
ENDBRANCH   1   2
BRANCH   1  14
HETATM   14  C           1     -20.167  -8.011  -4.548  0.00  0.00     0.052 C 
BRANCH  14  15
HETATM   15  C           1     -21.227  -7.421  -5.468  0.00  0.00     0.105 C 
BRANCH  15  16
HETATM   16  C           1     -22.097  -6.465  -4.687  0.00  0.00     0.215 C 
HETATM   17  N           1     -21.671  -5.985  -3.477  0.00  0.00    -0.370 N 
HETATM   18  H           1     -22.255  -5.345  -2.955  0.00  0.00     0.159 HD
HETATM   19  H           1     -20.774  -6.271  -3.107  0.00  0.00     0.159 HD
HETATM   20  O           1     -23.168  -6.125  -5.129  0.00  0.00    -0.274 OA
ENDBRANCH  15  16
ENDBRANCH  14  15
ENDBRANCH   1  14
BRANCH   1  21
HETATM   21  N           1     -20.990 -10.079  -5.614  0.00  0.00    -0.066 N 
HETATM   22  H           1     -20.291  -9.969  -6.383  0.00  0.00     0.275 HD
HETATM   23  H           1     -21.194 -11.095  -5.471  0.00  0.00     0.275 HD
HETATM   24  H           1     -21.871  -9.580  -5.872  0.00  0.00     0.275 HD
ENDBRANCH   1  21
TORSDOF 10
ENDMDL
