MODEL 1
REMARK VINA RESULT:      -6.5      0.000      0.000
REMARK  9 active torsions:
REMARK  status: ('A' for Active; 'I' for Inactive)
REMARK    1  A    between atoms: C_2  and  C_9 
REMARK    2  A    between atoms: N_3  and  C_9 
REMARK       I    between atoms: N_3  and  C_4 
REMARK    3  A    between atoms: C_4  and  C_10 
REMARK    4  A    between atoms: S_5  and  C_11 
REMARK    5  A    between atoms: N_6  and  C_10 
REMARK    6  A    between atoms: C_9  and  C_20 
REMARK    7  A    between atoms: C_10  and  C_11 
REMARK    8  A    between atoms: C_12  and  C_20 
REMARK    9  A    between atoms: O_14  and  C_15 
ROOT
HETATM    1  C           1     -21.015  -5.245  -6.608  0.00  0.00     0.189 C 
ENDROOT
BRANCH   1   2
HETATM    2  C           1     -19.631  -5.544  -7.129  0.00  0.00     0.197 C 
HETATM    3  O           1     -18.823  -4.613  -7.327  0.00  0.00    -0.646 OA
HETATM    4  O           1     -19.294  -6.726  -7.364  0.00  0.00    -0.646 OA
ENDBRANCH   1   2
BRANCH   1   5
HETATM    5  N           1     -20.983  -5.184  -5.160  0.00  0.00    -0.344 N 
HETATM    6  C           1     -21.334  -6.282  -4.421  0.00  0.00     0.249 C 
HETATM    7  O           1     -21.669  -7.301  -4.975  0.00  0.00    -0.271 OA
HETATM    8  H           1     -20.702  -4.330  -4.695  0.00  0.00     0.163 HD
BRANCH   6   9
HETATM    9  C           1     -21.300  -6.219  -2.913  0.00  0.00     0.283 C 
BRANCH   9  10
HETATM   10  N           1     -22.667  -5.877  -2.398  0.00  0.00    -0.066 N 
HETATM   11  H           1     -22.601  -5.600  -1.392  0.00  0.00     0.275 HD
HETATM   12  H           1     -23.060  -5.083  -2.952  0.00  0.00     0.275 HD
HETATM   13  H           1     -23.292  -6.710  -2.489  0.00  0.00     0.275 HD
ENDBRANCH   9  10
BRANCH   9  14
HETATM   14  C           1     -20.872  -7.571  -2.358  0.00  0.00     0.113 C 
BRANCH  14  15
HETATM   15  S           1     -21.800  -7.923  -0.839  0.00  0.00    -0.180 SA
HETATM   16  H           1     -22.832  -7.104  -1.112  0.00  0.00     0.101 HD
ENDBRANCH  14  15
ENDBRANCH   9  14
ENDBRANCH   6   9
ENDBRANCH   1   5
BRANCH   1  17
HETATM   17  C           1     -21.489  -3.907  -7.161  0.00  0.00     0.074 C 
BRANCH  17  18
HETATM   18  C           1     -22.055  -4.106  -8.533  0.00  0.00    -0.056 A 
HETATM   19  C           1     -23.421  -4.337  -8.696  0.00  0.00     0.010 A 
HETATM   20  C           1     -23.949  -4.522  -9.974  0.00  0.00     0.037 A 
HETATM   21  C           1     -23.110  -4.476 -11.088  0.00  0.00     0.065 A 
HETATM   22  C           1     -21.745  -4.244 -10.924  0.00  0.00     0.037 A 
HETATM   23  C           1     -21.217  -4.059  -9.647  0.00  0.00     0.010 A 
BRANCH  21  24
HETATM   24  O           1     -23.624  -4.656 -12.330  0.00  0.00    -0.361 OA
HETATM   25  H           1     -23.005  -5.214 -12.832  0.00  0.00     0.217 HD
ENDBRANCH  21  24
ENDBRANCH  17  18
ENDBRANCH   1  17
TORSDOF 9
ENDMDL
MODEL 2
REMARK VINA RESULT:      -5.9      3.719      7.364
REMARK  9 active torsions:
REMARK  status: ('A' for Active; 'I' for Inactive)
REMARK    1  A    between atoms: C_2  and  C_9 
REMARK    2  A    between atoms: N_3  and  C_9 
REMARK       I    between atoms: N_3  and  C_4 
REMARK    3  A    between atoms: C_4  and  C_10 
REMARK    4  A    between atoms: S_5  and  C_11 
REMARK    5  A    between atoms: N_6  and  C_10 
REMARK    6  A    between atoms: C_9  and  C_20 
REMARK    7  A    between atoms: C_10  and  C_11 
REMARK    8  A    between atoms: C_12  and  C_20 
REMARK    9  A    between atoms: O_14  and  C_15 
ROOT
HETATM    1  C           1     -20.388  -7.769  -4.894  0.00  0.00     0.189 C 
ENDROOT
BRANCH   1   2
HETATM    2  C           1     -19.175  -8.651  -5.060  0.00  0.00     0.197 C 
HETATM    3  O           1     -18.629  -9.158  -4.057  0.00  0.00    -0.646 OA
HETATM    4  O           1     -18.716  -8.872  -6.202  0.00  0.00    -0.646 OA
ENDBRANCH   1   2
BRANCH   1   5
HETATM    5  N           1     -20.739  -7.185  -6.173  0.00  0.00    -0.344 N 
HETATM    6  C           1     -21.007  -5.845  -6.263  0.00  0.00     0.249 C 
HETATM    7  O           1     -20.950  -5.151  -5.277  0.00  0.00    -0.271 OA
HETATM    8  H           1     -20.786  -7.767  -7.000  0.00  0.00     0.163 HD
BRANCH   6   9
HETATM    9  C           1     -21.371  -5.236  -7.595  0.00  0.00     0.283 C 
BRANCH   9  10
HETATM   10  N           1     -22.206  -4.010  -7.371  0.00  0.00    -0.066 N 
HETATM   11  H           1     -22.258  -3.457  -8.257  0.00  0.00     0.275 HD
HETATM   12  H           1     -23.170  -4.292  -7.081  0.00  0.00     0.275 HD
HETATM   13  H           1     -21.772  -3.425  -6.621  0.00  0.00     0.275 HD
ENDBRANCH   9  10
BRANCH   9  14
HETATM   14  C           1     -20.101  -4.856  -8.344  0.00  0.00     0.113 C 
BRANCH  14  15
HETATM   15  S           1     -20.526  -4.331 -10.028  0.00  0.00    -0.180 SA
HETATM   16  H           1     -19.979  -5.393 -10.648  0.00  0.00     0.101 HD
ENDBRANCH  14  15
ENDBRANCH   9  14
ENDBRANCH   6   9
ENDBRANCH   1   5
BRANCH   1  17
HETATM   17  C           1     -21.556  -8.602  -4.380  0.00  0.00     0.074 C 
BRANCH  17  18
HETATM   18  C           1     -21.717  -8.382  -2.907  0.00  0.00    -0.056 A 
HETATM   19  C           1     -21.715  -9.471  -2.035  0.00  0.00     0.010 A 
HETATM   20  C           1     -21.865  -9.266  -0.664  0.00  0.00     0.037 A 
HETATM   21  C           1     -22.018  -7.972  -0.165  0.00  0.00     0.065 A 
HETATM   22  C           1     -22.019  -6.884  -1.037  0.00  0.00     0.037 A 
HETATM   23  C           1     -21.869  -7.089  -2.408  0.00  0.00     0.010 A 
BRANCH  21  24
HETATM   24  O           1     -22.164  -7.774   1.168  0.00  0.00    -0.361 OA
HETATM   25  H           1     -21.745  -8.520   1.630  0.00  0.00     0.217 HD
ENDBRANCH  21  24
ENDBRANCH  17  18
ENDBRANCH   1  17
TORSDOF 9
ENDMDL
MODEL 3
REMARK VINA RESULT:      -5.8      3.665      6.628
REMARK  9 active torsions:
REMARK  status: ('A' for Active; 'I' for Inactive)
REMARK    1  A    between atoms: C_2  and  C_9 
REMARK    2  A    between atoms: N_3  and  C_9 
REMARK       I    between atoms: N_3  and  C_4 
REMARK    3  A    between atoms: C_4  and  C_10 
REMARK    4  A    between atoms: S_5  and  C_11 
REMARK    5  A    between atoms: N_6  and  C_10 
REMARK    6  A    between atoms: C_9  and  C_20 
REMARK    7  A    between atoms: C_10  and  C_11 
REMARK    8  A    between atoms: C_12  and  C_20 
REMARK    9  A    between atoms: O_14  and  C_15 
ROOT
HETATM    1  C           1     -20.912  -5.087  -7.130  0.00  0.00     0.189 C 
ENDROOT
BRANCH   1   2
HETATM    2  C           1     -19.585  -4.417  -7.384  0.00  0.00     0.197 C 
HETATM    3  O           1     -18.633  -4.596  -6.595  0.00  0.00    -0.646 OA
HETATM    4  O           1     -19.438  -3.683  -8.386  0.00  0.00    -0.646 OA
ENDBRANCH   1   2
BRANCH   1   5
HETATM    5  N           1     -21.774  -4.905  -8.281  0.00  0.00    -0.344 N 
HETATM    6  C           1     -23.080  -4.533  -8.107  0.00  0.00     0.249 C 
HETATM    7  O           1     -23.514  -4.358  -6.994  0.00  0.00    -0.271 OA
HETATM    8  H           1     -21.410  -5.053  -9.215  0.00  0.00     0.163 HD
BRANCH   6   9
HETATM    9  C           1     -23.977  -4.343  -9.306  0.00  0.00     0.283 C 
BRANCH   9  10
HETATM   10  N           1     -24.824  -3.121  -9.107  0.00  0.00    -0.066 N 
HETATM   11  H           1     -25.751  -3.261  -9.568  0.00  0.00     0.275 HD
HETATM   12  H           1     -24.964  -2.957  -8.085  0.00  0.00     0.275 HD
HETATM   13  H           1     -24.346  -2.294  -9.532  0.00  0.00     0.275 HD
ENDBRANCH   9  10
BRANCH   9  14
HETATM   14  C           1     -23.123  -4.171 -10.556  0.00  0.00     0.113 C 
BRANCH  14  15
HETATM   15  S           1     -24.048  -3.221 -11.795  0.00  0.00    -0.180 SA
HETATM   16  H           1     -23.295  -3.592 -12.847  0.00  0.00     0.101 HD
ENDBRANCH  14  15
ENDBRANCH   9  14
ENDBRANCH   6   9
ENDBRANCH   1   5
BRANCH   1  17
HETATM   17  C           1     -20.694  -6.576  -6.891  0.00  0.00     0.074 C 
BRANCH  17  18
HETATM   18  C           1     -20.804  -6.869  -5.426  0.00  0.00    -0.056 A 
HETATM   19  C           1     -21.399  -5.940  -4.573  0.00  0.00     0.010 A 
HETATM   20  C           1     -21.502  -6.213  -3.209  0.00  0.00     0.037 A 
HETATM   21  C           1     -21.009  -7.415  -2.699  0.00  0.00     0.065 A 
HETATM   22  C           1     -20.414  -8.343  -3.554  0.00  0.00     0.037 A 
HETATM   23  C           1     -20.311  -8.070  -4.917  0.00  0.00     0.010 A 
BRANCH  21  24
HETATM   24  O           1     -21.109  -7.680  -1.373  0.00  0.00    -0.361 OA
HETATM   25  H           1     -20.911  -8.622  -1.241  0.00  0.00     0.217 HD
ENDBRANCH  21  24
ENDBRANCH  17  18
ENDBRANCH   1  17
TORSDOF 9
ENDMDL
MODEL 4
REMARK VINA RESULT:      -5.6      4.404      7.507
REMARK  9 active torsions:
REMARK  status: ('A' for Active; 'I' for Inactive)
REMARK    1  A    between atoms: C_2  and  C_9 
REMARK    2  A    between atoms: N_3  and  C_9 
REMARK       I    between atoms: N_3  and  C_4 
REMARK    3  A    between atoms: C_4  and  C_10 
REMARK    4  A    between atoms: S_5  and  C_11 
REMARK    5  A    between atoms: N_6  and  C_10 
REMARK    6  A    between atoms: C_9  and  C_20 
REMARK    7  A    between atoms: C_10  and  C_11 
REMARK    8  A    between atoms: C_12  and  C_20 
REMARK    9  A    between atoms: O_14  and  C_15 
ROOT
HETATM    1  C           1     -21.102  -8.538  -4.906  0.00  0.00     0.189 C 
ENDROOT
BRANCH   1   2
HETATM    2  C           1     -21.152  -7.247  -5.686  0.00  0.00     0.197 C 
HETATM    3  O           1     -20.266  -6.992  -6.528  0.00  0.00    -0.646 OA
HETATM    4  O           1     -22.081  -6.433  -5.487  0.00  0.00    -0.646 OA
ENDBRANCH   1   2
BRANCH   1   5
HETATM    5  N           1     -20.523  -9.579  -5.731  0.00  0.00    -0.344 N 
HETATM    6  C           1     -20.987 -10.864  -5.638  0.00  0.00     0.249 C 
HETATM    7  O           1     -21.878 -11.129  -4.868  0.00  0.00    -0.271 OA
HETATM    8  H           1     -19.776  -9.356  -6.378  0.00  0.00     0.163 HD
BRANCH   6   9
HETATM    9  C           1     -20.384 -11.948  -6.498  0.00  0.00     0.283 C 
BRANCH   9  10
HETATM   10  N           1     -19.099 -11.455  -7.095  0.00  0.00    -0.066 N 
HETATM   11  H           1     -18.908 -10.484  -6.759  0.00  0.00     0.275 HD
HETATM   12  H           1     -18.317 -12.084  -6.806  0.00  0.00     0.275 HD
HETATM   13  H           1     -19.179 -11.451  -8.138  0.00  0.00     0.275 HD
ENDBRANCH   9  10
BRANCH   9  14
HETATM   14  C           1     -20.108 -13.179  -5.645  0.00  0.00     0.113 C 
BRANCH  14  15
HETATM   15  S           1     -18.643 -12.885  -4.615  0.00  0.00    -0.180 SA
HETATM   16  H           1     -18.568 -14.134  -4.119  0.00  0.00     0.101 HD
ENDBRANCH  14  15
ENDBRANCH   9  14
ENDBRANCH   6   9
ENDBRANCH   1   5
BRANCH   1  17
HETATM   17  C           1     -20.249  -8.346  -3.659  0.00  0.00     0.074 C 
BRANCH  17  18
HETATM   18  C           1     -21.136  -8.243  -2.456  0.00  0.00    -0.056 A 
HETATM   19  C           1     -21.561  -9.400  -1.803  0.00  0.00     0.010 A 
HETATM   20  C           1     -22.386  -9.304  -0.683  0.00  0.00     0.037 A 
HETATM   21  C           1     -22.788  -8.052  -0.218  0.00  0.00     0.065 A 
HETATM   22  C           1     -22.362  -6.895  -0.872  0.00  0.00     0.037 A 
HETATM   23  C           1     -21.537  -6.992  -1.992  0.00  0.00     0.010 A 
BRANCH  21  24
HETATM   24  O           1     -23.591  -7.959   0.871  0.00  0.00    -0.361 OA
HETATM   25  H           1     -23.863  -8.858   1.119  0.00  0.00     0.217 HD
ENDBRANCH  21  24
ENDBRANCH  17  18
ENDBRANCH   1  17
TORSDOF 9
ENDMDL
MODEL 5
REMARK VINA RESULT:      -5.5      3.258      4.568
REMARK  9 active torsions:
REMARK  status: ('A' for Active; 'I' for Inactive)
REMARK    1  A    between atoms: C_2  and  C_9 
REMARK    2  A    between atoms: N_3  and  C_9 
REMARK       I    between atoms: N_3  and  C_4 
REMARK    3  A    between atoms: C_4  and  C_10 
REMARK    4  A    between atoms: S_5  and  C_11 
REMARK    5  A    between atoms: N_6  and  C_10 
REMARK    6  A    between atoms: C_9  and  C_20 
REMARK    7  A    between atoms: C_10  and  C_11 
REMARK    8  A    between atoms: C_12  and  C_20 
REMARK    9  A    between atoms: O_14  and  C_15 
ROOT
HETATM    1  C           1     -21.304  -7.080  -4.184  0.00  0.00     0.189 C 
ENDROOT
BRANCH   1   2
HETATM    2  C           1     -21.498  -6.817  -2.711  0.00  0.00     0.197 C 
HETATM    3  O           1     -20.814  -7.438  -1.870  0.00  0.00    -0.646 OA
HETATM    4  O           1     -22.345  -5.978  -2.333  0.00  0.00    -0.646 OA
ENDBRANCH   1   2
BRANCH   1   5
HETATM    5  N           1     -21.415  -8.502  -4.439  0.00  0.00    -0.344 N 
HETATM    6  C           1     -20.312  -9.216  -4.825  0.00  0.00     0.249 C 
HETATM    7  O           1     -19.248  -8.661  -4.952  0.00  0.00    -0.271 OA
HETATM    8  H           1     -22.308  -8.968  -4.333  0.00  0.00     0.163 HD
BRANCH   6   9
HETATM    9  C           1     -20.428 -10.698  -5.091  0.00  0.00     0.283 C 
BRANCH   9  10
HETATM   10  N           1     -21.120 -10.917  -6.403  0.00  0.00    -0.066 N 
HETATM   11  H           1     -21.985 -11.484  -6.251  0.00  0.00     0.275 HD
HETATM   12  H           1     -21.379  -9.994  -6.819  0.00  0.00     0.275 HD
HETATM   13  H           1     -20.480 -11.427  -7.054  0.00  0.00     0.275 HD
ENDBRANCH   9  10
BRANCH   9  14
HETATM   14  C           1     -19.036 -11.314  -5.142  0.00  0.00     0.113 C 
BRANCH  14  15
HETATM   15  S           1     -18.704 -11.922  -6.819  0.00  0.00    -0.180 SA
HETATM   16  H           1     -19.097 -10.802  -7.454  0.00  0.00     0.101 HD
ENDBRANCH  14  15
ENDBRANCH   9  14
ENDBRANCH   6   9
ENDBRANCH   1   5
BRANCH   1  17
HETATM   17  C           1     -22.371  -6.337  -4.978  0.00  0.00     0.074 C 
BRANCH  17  18
HETATM   18  C           1     -21.733  -5.633  -6.136  0.00  0.00    -0.056 A 
HETATM   19  C           1     -22.504  -4.823  -6.969  0.00  0.00     0.010 A 
HETATM   20  C           1     -21.910  -4.167  -8.047  0.00  0.00     0.037 A 
HETATM   21  C           1     -20.545  -4.322  -8.292  0.00  0.00     0.065 A 
HETATM   22  C           1     -19.775  -5.132  -7.458  0.00  0.00     0.037 A 
HETATM   23  C           1     -20.369  -5.788  -6.380  0.00  0.00     0.010 A 
BRANCH  21  24
HETATM   24  O           1     -19.968  -3.684  -9.340  0.00  0.00    -0.361 OA
HETATM   25  H           1     -20.677  -3.311  -9.890  0.00  0.00     0.217 HD
ENDBRANCH  21  24
ENDBRANCH  17  18
ENDBRANCH   1  17
TORSDOF 9
ENDMDL
MODEL 6
REMARK VINA RESULT:      -5.5     11.067     13.571
REMARK  9 active torsions:
REMARK  status: ('A' for Active; 'I' for Inactive)
REMARK    1  A    between atoms: C_2  and  C_9 
REMARK    2  A    between atoms: N_3  and  C_9 
REMARK       I    between atoms: N_3  and  C_4 
REMARK    3  A    between atoms: C_4  and  C_10 
REMARK    4  A    between atoms: S_5  and  C_11 
REMARK    5  A    between atoms: N_6  and  C_10 
REMARK    6  A    between atoms: C_9  and  C_20 
REMARK    7  A    between atoms: C_10  and  C_11 
REMARK    8  A    between atoms: C_12  and  C_20 
REMARK    9  A    between atoms: O_14  and  C_15 
ROOT
HETATM    1  C           1     -26.531  -6.403 -16.661  0.00  0.00     0.189 C 
ENDROOT
BRANCH   1   2
HETATM    2  C           1     -25.393  -6.338 -15.673  0.00  0.00     0.197 C 
HETATM    3  O           1     -24.958  -7.386 -15.150  0.00  0.00    -0.646 OA
HETATM    4  O           1     -24.885  -5.234 -15.378  0.00  0.00    -0.646 OA
ENDBRANCH   1   2
BRANCH   1   5
HETATM    5  N           1     -26.021  -6.800 -17.959  0.00  0.00    -0.344 N 
HETATM    6  C           1     -26.608  -6.321 -19.100  0.00  0.00     0.249 C 
HETATM    7  O           1     -27.550  -5.570 -19.025  0.00  0.00    -0.271 OA
HETATM    8  H           1     -25.231  -7.430 -18.022  0.00  0.00     0.163 HD
BRANCH   6   9
HETATM    9  C           1     -26.077  -6.734 -20.452  0.00  0.00     0.283 C 
BRANCH   9  10
HETATM   10  N           1     -25.519  -5.533 -21.156  0.00  0.00    -0.066 N 
HETATM   11  H           1     -25.832  -4.664 -20.667  0.00  0.00     0.275 HD
HETATM   12  H           1     -24.475  -5.579 -21.150  0.00  0.00     0.275 HD
HETATM   13  H           1     -25.862  -5.519 -22.144  0.00  0.00     0.275 HD
ENDBRANCH   9  10
BRANCH   9  14
HETATM   14  C           1     -24.978  -7.773 -20.270  0.00  0.00     0.113 C 
BRANCH  14  15
HETATM   15  S           1     -24.047  -7.946 -21.817  0.00  0.00    -0.180 SA
HETATM   16  H           1     -24.138  -9.287 -21.886  0.00  0.00     0.101 HD
ENDBRANCH  14  15
ENDBRANCH   9  14
ENDBRANCH   6   9
ENDBRANCH   1   5
BRANCH   1  17
HETATM   17  C           1     -27.559  -7.422 -16.187  0.00  0.00     0.074 C 
BRANCH  17  18
HETATM   18  C           1     -28.938  -6.886 -16.419  0.00  0.00    -0.056 A 
HETATM   19  C           1     -29.768  -7.484 -17.367  0.00  0.00     0.010 A 
HETATM   20  C           1     -31.052  -6.985 -17.582  0.00  0.00     0.037 A 
HETATM   21  C           1     -31.506  -5.888 -16.850  0.00  0.00     0.065 A 
HETATM   22  C           1     -30.675  -5.291 -15.901  0.00  0.00     0.037 A 
HETATM   23  C           1     -29.391  -5.790 -15.686  0.00  0.00     0.010 A 
BRANCH  21  24
HETATM   24  O           1     -32.755  -5.403 -17.059  0.00  0.00    -0.361 OA
HETATM   25  H           1     -33.284  -5.586 -16.265  0.00  0.00     0.217 HD
ENDBRANCH  21  24
ENDBRANCH  17  18
ENDBRANCH   1  17
TORSDOF 9
ENDMDL
MODEL 7
REMARK VINA RESULT:      -5.5      6.012      8.776
REMARK  9 active torsions:
REMARK  status: ('A' for Active; 'I' for Inactive)
REMARK    1  A    between atoms: C_2  and  C_9 
REMARK    2  A    between atoms: N_3  and  C_9 
REMARK       I    between atoms: N_3  and  C_4 
REMARK    3  A    between atoms: C_4  and  C_10 
REMARK    4  A    between atoms: S_5  and  C_11 
REMARK    5  A    between atoms: N_6  and  C_10 
REMARK    6  A    between atoms: C_9  and  C_20 
REMARK    7  A    between atoms: C_10  and  C_11 
REMARK    8  A    between atoms: C_12  and  C_20 
REMARK    9  A    between atoms: O_14  and  C_15 
ROOT
HETATM    1  C           1     -21.626  -8.084  -1.967  0.00  0.00     0.189 C 
ENDROOT
BRANCH   1   2
HETATM    2  C           1     -21.995  -6.630  -2.129  0.00  0.00     0.197 C 
HETATM    3  O           1     -22.430  -5.983  -1.153  0.00  0.00    -0.646 OA
HETATM    4  O           1     -21.865  -6.073  -3.241  0.00  0.00    -0.646 OA
ENDBRANCH   1   2
BRANCH   1   5
HETATM    5  N           1     -20.426  -8.365  -2.729  0.00  0.00    -0.344 N 
HETATM    6  C           1     -20.394  -9.431  -3.589  0.00  0.00     0.249 C 
HETATM    7  O           1     -21.367 -10.136  -3.711  0.00  0.00    -0.271 OA
HETATM    8  H           1     -19.610  -7.774  -2.627  0.00  0.00     0.163 HD
BRANCH   6   9
HETATM    9  C           1     -19.145  -9.723  -4.383  0.00  0.00     0.283 C 
BRANCH   9  10
HETATM   10  N           1     -19.114  -8.853  -5.604  0.00  0.00    -0.066 N 
HETATM   11  H           1     -20.084  -8.541  -5.835  0.00  0.00     0.275 HD
HETATM   12  H           1     -18.513  -8.018  -5.422  0.00  0.00     0.275 HD
HETATM   13  H           1     -18.724  -9.396  -6.409  0.00  0.00     0.275 HD
ENDBRANCH   9  10
BRANCH   9  14
HETATM   14  C           1     -17.919  -9.437  -3.525  0.00  0.00     0.113 C 
BRANCH  14  15
HETATM   15  S           1     -17.625 -10.833  -2.404  0.00  0.00    -0.180 SA
HETATM   16  H           1     -17.390 -11.741  -3.370  0.00  0.00     0.101 HD
ENDBRANCH  14  15
ENDBRANCH   9  14
ENDBRANCH   6   9
ENDBRANCH   1   5
BRANCH   1  17
HETATM   17  C           1     -21.374  -8.384  -0.495  0.00  0.00     0.074 C 
BRANCH  17  18
HETATM   18  C           1     -21.932  -9.732  -0.157  0.00  0.00    -0.056 A 
HETATM   19  C           1     -23.280 -10.006  -0.389  0.00  0.00     0.010 A 
HETATM   20  C           1     -23.799 -11.262  -0.073  0.00  0.00     0.037 A 
HETATM   21  C           1     -22.971 -12.242   0.474  0.00  0.00     0.065 A 
HETATM   22  C           1     -21.623 -11.967   0.705  0.00  0.00     0.037 A 
HETATM   23  C           1     -21.104 -10.712   0.390  0.00  0.00     0.010 A 
BRANCH  21  24
HETATM   24  O           1     -23.477 -13.462   0.780  0.00  0.00    -0.361 OA
HETATM   25  H           1     -22.896 -14.134   0.385  0.00  0.00     0.217 HD
ENDBRANCH  21  24
ENDBRANCH  17  18
ENDBRANCH   1  17
TORSDOF 9
ENDMDL
MODEL 8
REMARK VINA RESULT:      -5.1      5.759      7.353
REMARK  9 active torsions:
REMARK  status: ('A' for Active; 'I' for Inactive)
REMARK    1  A    between atoms: C_2  and  C_9 
REMARK    2  A    between atoms: N_3  and  C_9 
REMARK       I    between atoms: N_3  and  C_4 
REMARK    3  A    between atoms: C_4  and  C_10 
REMARK    4  A    between atoms: S_5  and  C_11 
REMARK    5  A    between atoms: N_6  and  C_10 
REMARK    6  A    between atoms: C_9  and  C_20 
REMARK    7  A    between atoms: C_10  and  C_11 
REMARK    8  A    between atoms: C_12  and  C_20 
REMARK    9  A    between atoms: O_14  and  C_15 
ROOT
HETATM    1  C           1     -21.240  -8.075  -2.351  0.00  0.00     0.189 C 
ENDROOT
BRANCH   1   2
HETATM    2  C           1     -21.899  -6.722  -2.247  0.00  0.00     0.197 C 
HETATM    3  O           1     -22.464  -6.382  -1.186  0.00  0.00    -0.646 OA
HETATM    4  O           1     -21.880  -5.941  -3.224  0.00  0.00    -0.646 OA
ENDBRANCH   1   2
BRANCH   1   5
HETATM    5  N           1     -22.135  -9.089  -1.831  0.00  0.00    -0.344 N 
HETATM    6  C           1     -21.878  -9.673  -0.619  0.00  0.00     0.249 C 
HETATM    7  O           1     -20.906  -9.342   0.016  0.00  0.00    -0.271 OA
HETATM    8  H           1     -22.951  -9.367  -2.364  0.00  0.00     0.163 HD
BRANCH   6   9
HETATM    9  C           1     -22.811 -10.729  -0.078  0.00  0.00     0.283 C 
BRANCH   9  10
HETATM   10  N           1     -23.751 -11.167  -1.161  0.00  0.00    -0.066 N 
HETATM   11  H           1     -24.737 -10.995  -0.858  0.00  0.00     0.275 HD
HETATM   12  H           1     -23.556 -10.626  -2.033  0.00  0.00     0.275 HD
HETATM   13  H           1     -23.618 -12.188  -1.346  0.00  0.00     0.275 HD
ENDBRANCH   9  10
BRANCH   9  14
HETATM   14  C           1     -21.999 -11.924   0.404  0.00  0.00     0.113 C 
BRANCH  14  15
HETATM   15  S           1     -23.120 -13.206   1.030  0.00  0.00    -0.180 SA
HETATM   16  H           1     -23.377 -13.765  -0.168  0.00  0.00     0.101 HD
ENDBRANCH  14  15
ENDBRANCH   9  14
ENDBRANCH   6   9
ENDBRANCH   1   5
BRANCH   1  17
HETATM   17  C           1     -20.925  -8.376  -3.811  0.00  0.00     0.074 C 
BRANCH  17  18
HETATM   18  C           1     -19.527  -8.901  -3.923  0.00  0.00    -0.056 A 
HETATM   19  C           1     -18.751  -9.066  -2.775  0.00  0.00     0.010 A 
HETATM   20  C           1     -17.449  -9.555  -2.880  0.00  0.00     0.037 A 
HETATM   21  C           1     -16.923  -9.877  -4.131  0.00  0.00     0.065 A 
HETATM   22  C           1     -17.700  -9.712  -5.278  0.00  0.00     0.037 A 
HETATM   23  C           1     -19.002  -9.223  -5.173  0.00  0.00     0.010 A 
BRANCH  21  24
HETATM   24  O           1     -15.657 -10.352  -4.232  0.00  0.00    -0.361 OA
HETATM   25  H           1     -15.106  -9.875  -3.589  0.00  0.00     0.217 HD
ENDBRANCH  21  24
ENDBRANCH  17  18
ENDBRANCH   1  17
TORSDOF 9
ENDMDL
MODEL 9
REMARK VINA RESULT:      -5.0      7.170      9.473
REMARK  9 active torsions:
REMARK  status: ('A' for Active; 'I' for Inactive)
REMARK    1  A    between atoms: C_2  and  C_9 
REMARK    2  A    between atoms: N_3  and  C_9 
REMARK       I    between atoms: N_3  and  C_4 
REMARK    3  A    between atoms: C_4  and  C_10 
REMARK    4  A    between atoms: S_5  and  C_11 
REMARK    5  A    between atoms: N_6  and  C_10 
REMARK    6  A    between atoms: C_9  and  C_20 
REMARK    7  A    between atoms: C_10  and  C_11 
REMARK    8  A    between atoms: C_12  and  C_20 
REMARK    9  A    between atoms: O_14  and  C_15 
ROOT
HETATM    1  C           1     -21.424 -11.679  -0.379  0.00  0.00     0.189 C 
ENDROOT
BRANCH   1   2
HETATM    2  C           1     -21.065 -12.298  -1.707  0.00  0.00     0.197 C 
HETATM    3  O           1     -21.950 -12.834  -2.407  0.00  0.00    -0.646 OA
HETATM    4  O           1     -19.880 -12.273  -2.107  0.00  0.00    -0.646 OA
ENDBRANCH   1   2
BRANCH   1   5
HETATM    5  N           1     -21.352 -12.689   0.659  0.00  0.00    -0.344 N 
HETATM    6  C           1     -22.502 -13.186   1.212  0.00  0.00     0.249 C 
HETATM    7  O           1     -23.576 -12.783   0.835  0.00  0.00    -0.271 OA
HETATM    8  H           1     -20.451 -13.026   0.975  0.00  0.00     0.163 HD
BRANCH   6   9
HETATM    9  C           1     -22.426 -14.237   2.292  0.00  0.00     0.283 C 
BRANCH   9  10
HETATM   10  N           1     -23.780 -14.413   2.913  0.00  0.00    -0.066 N 
HETATM   11  H           1     -23.962 -15.430   3.071  0.00  0.00     0.275 HD
HETATM   12  H           1     -23.814 -13.908   3.827  0.00  0.00     0.275 HD
HETATM   13  H           1     -24.510 -14.026   2.272  0.00  0.00     0.275 HD
ENDBRANCH   9  10
BRANCH   9  14
HETATM   14  C           1     -21.970 -15.557   1.685  0.00  0.00     0.113 C 
BRANCH  14  15
HETATM   15  S           1     -20.488 -16.143   2.552  0.00  0.00    -0.180 SA
HETATM   16  H           1     -19.648 -15.994   1.511  0.00  0.00     0.101 HD
ENDBRANCH  14  15
ENDBRANCH   9  14
ENDBRANCH   6   9
ENDBRANCH   1   5
BRANCH   1  17
HETATM   17  C           1     -20.449 -10.554  -0.061  0.00  0.00     0.074 C 
BRANCH  17  18
HETATM   18  C           1     -21.005  -9.254  -0.555  0.00  0.00    -0.056 A 
HETATM   19  C           1     -20.473  -8.658  -1.698  0.00  0.00     0.010 A 
HETATM   20  C           1     -20.991  -7.448  -2.159  0.00  0.00     0.037 A 
HETATM   21  C           1     -22.041  -6.834  -1.475  0.00  0.00     0.065 A 
HETATM   22  C           1     -22.573  -7.431  -0.333  0.00  0.00     0.037 A 
HETATM   23  C           1     -22.055  -8.641   0.127  0.00  0.00     0.010 A 
BRANCH  21  24
HETATM   24  O           1     -22.545  -5.658  -1.923  0.00  0.00    -0.361 OA
HETATM   25  H           1     -23.344  -5.852  -2.441  0.00  0.00     0.217 HD
ENDBRANCH  21  24
ENDBRANCH  17  18
ENDBRANCH   1  17
TORSDOF 9
ENDMDL
