MODEL 1
REMARK VINA RESULT:      -6.9      0.000      0.000
REMARK  15 active torsions:
REMARK  status: ('A' for Active; 'I' for Inactive)
REMARK    1  A    between atoms: C_10  and  C_34 
REMARK    2  A    between atoms: N_11  and  C_14 
REMARK       I    between atoms: N_12  and  C_25 
REMARK    3  A    between atoms: C_13  and  C_14 
REMARK    4  A    between atoms: C_13  and  C_33 
REMARK    5  A    between atoms: C_14  and  C_15 
REMARK       I    between atoms: C_15  and  N_17 
REMARK    6  A    between atoms: N_17  and  C_21 
REMARK    7  A    between atoms: C_20  and  C_21 
REMARK    8  A    between atoms: C_21  and  C_22 
REMARK    9  A    between atoms: C_22  and  C_23 
REMARK   10  A    between atoms: C_23  and  N_27 
REMARK   11  A    between atoms: C_24  and  C_33 
REMARK   12  A    between atoms: C_24  and  N_29 
REMARK       I    between atoms: C_25  and  N_26 
REMARK   13  A    between atoms: N_27  and  C_34 
REMARK   14  A    between atoms: C_34  and  C_35 
REMARK   15  A    between atoms: C_35  and  S_36 
ROOT
HETATM    1  C           1     -21.109  -5.097  -6.999  0.00  0.00     0.249 C 
HETATM    2  N           1     -21.465  -6.280  -6.408  0.00  0.00    -0.345 N 
HETATM    3  H           1     -22.133  -6.890  -6.860  0.00  0.00     0.163 HD
HETATM    4  O           1     -20.311  -4.368  -6.459  0.00  0.00    -0.271 OA
ENDROOT
BRANCH   1   5
HETATM    5  C           1     -21.714  -4.703  -8.324  0.00  0.00     0.274 C 
BRANCH   5   6
HETATM    6  N           1     -22.888  -3.799  -8.089  0.00  0.00    -0.067 N 
HETATM    7  H           1     -22.578  -2.959  -7.552  0.00  0.00     0.275 HD
HETATM    8  H           1     -23.618  -4.312  -7.544  0.00  0.00     0.275 HD
HETATM    9  H           1     -23.286  -3.499  -9.007  0.00  0.00     0.275 HD
ENDBRANCH   5   6
BRANCH   5  10
HETATM   10  C           1     -20.672  -3.975  -9.162  0.00  0.00     0.044 C 
BRANCH  10  11
HETATM   11  C           1     -20.850  -4.345 -10.628  0.00  0.00     0.023 C 
BRANCH  11  12
HETATM   12  C           1     -21.891  -3.430 -11.262  0.00  0.00     0.138 C 
BRANCH  12  13
HETATM   13  N           1     -21.803  -3.528 -12.726  0.00  0.00    -0.227 N 
HETATM   14  H           1     -21.030  -4.083 -13.170  0.00  0.00     0.177 HD
HETATM   15  C           1     -22.658  -2.941 -13.452  0.00  0.00     0.665 C 
HETATM   16  N           1     -23.615  -2.253 -12.902  0.00  0.00    -0.235 N 
HETATM   17  N           1     -22.583  -3.024 -14.713  0.00  0.00    -0.235 N 
HETATM   18  H           1     -23.677  -2.184 -11.861  0.00  0.00     0.174 HD
HETATM   19  H           1     -24.321  -1.769 -13.501  0.00  0.00     0.174 HD
HETATM   20  H           1     -21.810  -3.580 -15.157  0.00  0.00     0.174 HD
HETATM   21  H           1     -23.292  -2.537 -15.315  0.00  0.00     0.174 HD
ENDBRANCH  12  13
ENDBRANCH  11  12
ENDBRANCH  10  11
ENDBRANCH   5  10
ENDBRANCH   1   5
BRANCH   2  22
HETATM   22  C           1     -20.884  -6.657  -5.134  0.00  0.00     0.187 C 
BRANCH  22  23
HETATM   23  C           1     -20.437  -8.097  -5.193  0.00  0.00     0.196 C 
HETATM   24  O           1     -21.197  -8.969  -5.667  0.00  0.00    -0.646 OA
HETATM   25  O           1     -19.307  -8.419  -4.767  0.00  0.00    -0.646 OA
ENDBRANCH  22  23
BRANCH  22  26
HETATM   26  C           1     -21.924  -6.492  -4.034  0.00  0.00     0.066 C 
BRANCH  26  27
HETATM   27  C           1     -21.231  -6.482  -2.678  0.00  0.00     0.273 C 
BRANCH  27  28
HETATM   28  N           1     -22.201  -6.718  -1.642  0.00  0.00     0.099 N 
HETATM   29  H           1     -23.140  -6.641  -2.032  0.00  0.00     0.317 HD
BRANCH  28  30
HETATM   30  C           1     -21.996  -8.052  -1.146  0.00  0.00     0.329 C 
BRANCH  30  31
HETATM   31  C           1     -22.309  -8.092   0.330  0.00  0.00     0.208 C 
HETATM   32  O           1     -21.382  -8.188   1.163  0.00  0.00    -0.646 OA
HETATM   33  O           1     -23.495  -8.028   0.719  0.00  0.00    -0.646 OA
ENDBRANCH  30  31
BRANCH  30  34
HETATM   34  C           1     -20.546  -8.459  -1.370  0.00  0.00     0.117 C 
BRANCH  34  35
HETATM   35  S           1     -20.477 -10.203  -1.870  0.00  0.00    -0.180 SA
HETATM   36  H           1     -19.352 -10.096  -2.600  0.00  0.00     0.101 HD
ENDBRANCH  34  35
ENDBRANCH  30  34
ENDBRANCH  28  30
ENDBRANCH  27  28
ENDBRANCH  26  27
ENDBRANCH  22  26
ENDBRANCH   2  22
TORSDOF 15
ENDMDL
MODEL 2
REMARK VINA RESULT:      -6.9      3.637      8.625
REMARK  15 active torsions:
REMARK  status: ('A' for Active; 'I' for Inactive)
REMARK    1  A    between atoms: C_10  and  C_34 
REMARK    2  A    between atoms: N_11  and  C_14 
REMARK       I    between atoms: N_12  and  C_25 
REMARK    3  A    between atoms: C_13  and  C_14 
REMARK    4  A    between atoms: C_13  and  C_33 
REMARK    5  A    between atoms: C_14  and  C_15 
REMARK       I    between atoms: C_15  and  N_17 
REMARK    6  A    between atoms: N_17  and  C_21 
REMARK    7  A    between atoms: C_20  and  C_21 
REMARK    8  A    between atoms: C_21  and  C_22 
REMARK    9  A    between atoms: C_22  and  C_23 
REMARK   10  A    between atoms: C_23  and  N_27 
REMARK   11  A    between atoms: C_24  and  C_33 
REMARK   12  A    between atoms: C_24  and  N_29 
REMARK       I    between atoms: C_25  and  N_26 
REMARK   13  A    between atoms: N_27  and  C_34 
REMARK   14  A    between atoms: C_34  and  C_35 
REMARK   15  A    between atoms: C_35  and  S_36 
ROOT
HETATM    1  C           1     -21.497  -6.643  -4.306  0.00  0.00     0.249 C 
HETATM    2  N           1     -21.113  -5.553  -5.041  0.00  0.00    -0.345 N 
HETATM    3  H           1     -20.710  -4.748  -4.578  0.00  0.00     0.163 HD
HETATM    4  O           1     -21.977  -7.605  -4.859  0.00  0.00    -0.271 OA
ENDROOT
BRANCH   1   5
HETATM    5  C           1     -21.321  -6.644  -2.808  0.00  0.00     0.274 C 
BRANCH   5   6
HETATM    6  N           1     -22.426  -5.853  -2.174  0.00  0.00    -0.067 N 
HETATM    7  H           1     -22.546  -6.154  -1.181  0.00  0.00     0.275 HD
HETATM    8  H           1     -23.316  -6.017  -2.699  0.00  0.00     0.275 HD
HETATM    9  H           1     -22.188  -4.836  -2.204  0.00  0.00     0.275 HD
ENDBRANCH   5   6
BRANCH   5  10
HETATM   10  C           1     -21.362  -8.076  -2.292  0.00  0.00     0.044 C 
BRANCH  10  11
HETATM   11  C           1     -19.941  -8.577  -2.070  0.00  0.00     0.023 C 
BRANCH  11  12
HETATM   12  C           1     -19.696  -9.813  -2.925  0.00  0.00     0.138 C 
BRANCH  12  13
HETATM   13  N           1     -18.732  -9.492  -3.987  0.00  0.00    -0.227 N 
HETATM   14  H           1     -17.755  -9.197  -3.737  0.00  0.00     0.177 HD
HETATM   15  C           1     -19.079  -9.570  -5.202  0.00  0.00     0.665 C 
HETATM   16  N           1     -20.288  -9.935  -5.511  0.00  0.00    -0.235 N 
HETATM   17  N           1     -18.249  -9.293  -6.117  0.00  0.00    -0.235 N 
HETATM   18  H           1     -20.973 -10.163  -4.755  0.00  0.00     0.174 HD
HETATM   19  H           1     -20.574 -10.000  -6.513  0.00  0.00     0.174 HD
HETATM   20  H           1     -17.272  -8.999  -5.868  0.00  0.00     0.174 HD
HETATM   21  H           1     -18.536  -9.358  -7.125  0.00  0.00     0.174 HD
ENDBRANCH  12  13
ENDBRANCH  11  12
ENDBRANCH  10  11
ENDBRANCH   5  10
ENDBRANCH   1   5
BRANCH   2  22
HETATM   22  C           1     -21.283  -5.553  -6.481  0.00  0.00     0.187 C 
BRANCH  22  23
HETATM   23  C           1     -19.934  -5.667  -7.145  0.00  0.00     0.196 C 
HETATM   24  O           1     -19.362  -6.776  -7.214  0.00  0.00    -0.646 OA
HETATM   25  O           1     -19.386  -4.652  -7.627  0.00  0.00    -0.646 OA
ENDBRANCH  22  23
BRANCH  22  26
HETATM   26  C           1     -21.954  -4.255  -6.911  0.00  0.00     0.066 C 
BRANCH  26  27
HETATM   27  C           1     -22.887  -4.529  -8.082  0.00  0.00     0.273 C 
BRANCH  27  28
HETATM   28  N           1     -23.399  -3.286  -8.590  0.00  0.00     0.099 N 
HETATM   29  H           1     -22.869  -2.511  -8.191  0.00  0.00     0.317 HD
BRANCH  28  30
HETATM   30  C           1     -23.233  -3.294 -10.019  0.00  0.00     0.329 C 
BRANCH  30  31
HETATM   31  C           1     -24.589  -3.298 -10.682  0.00  0.00     0.208 C 
HETATM   32  O           1     -24.676  -3.372 -11.926  0.00  0.00    -0.646 OA
HETATM   33  O           1     -25.624  -3.228  -9.985  0.00  0.00    -0.646 OA
ENDBRANCH  30  31
BRANCH  30  34
HETATM   34  C           1     -22.460  -4.539 -10.432  0.00  0.00     0.117 C 
BRANCH  34  35
HETATM   35  S           1     -20.904  -4.050 -11.228  0.00  0.00    -0.180 SA
HETATM   36  H           1     -20.279  -5.228 -11.052  0.00  0.00     0.101 HD
ENDBRANCH  34  35
ENDBRANCH  30  34
ENDBRANCH  28  30
ENDBRANCH  27  28
ENDBRANCH  26  27
ENDBRANCH  22  26
ENDBRANCH   2  22
TORSDOF 15
ENDMDL
MODEL 3
REMARK VINA RESULT:      -6.5      2.275      3.069
REMARK  15 active torsions:
REMARK  status: ('A' for Active; 'I' for Inactive)
REMARK    1  A    between atoms: C_10  and  C_34 
REMARK    2  A    between atoms: N_11  and  C_14 
REMARK       I    between atoms: N_12  and  C_25 
REMARK    3  A    between atoms: C_13  and  C_14 
REMARK    4  A    between atoms: C_13  and  C_33 
REMARK    5  A    between atoms: C_14  and  C_15 
REMARK       I    between atoms: C_15  and  N_17 
REMARK    6  A    between atoms: N_17  and  C_21 
REMARK    7  A    between atoms: C_20  and  C_21 
REMARK    8  A    between atoms: C_21  and  C_22 
REMARK    9  A    between atoms: C_22  and  C_23 
REMARK   10  A    between atoms: C_23  and  N_27 
REMARK   11  A    between atoms: C_24  and  C_33 
REMARK   12  A    between atoms: C_24  and  N_29 
REMARK       I    between atoms: C_25  and  N_26 
REMARK   13  A    between atoms: N_27  and  C_34 
REMARK   14  A    between atoms: C_34  and  C_35 
REMARK   15  A    between atoms: C_35  and  S_36 
ROOT
HETATM    1  C           1     -20.427  -6.866  -5.614  0.00  0.00     0.249 C 
HETATM    2  N           1     -20.591  -7.734  -4.567  0.00  0.00    -0.345 N 
HETATM    3  H           1     -21.184  -7.480  -3.788  0.00  0.00     0.163 HD
HETATM    4  O           1     -19.720  -7.169  -6.545  0.00  0.00    -0.271 OA
ENDROOT
BRANCH   1   5
HETATM    5  C           1     -21.128  -5.530  -5.602  0.00  0.00     0.274 C 
BRANCH   5   6
HETATM    6  N           1     -20.114  -4.434  -5.467  0.00  0.00    -0.067 N 
HETATM    7  H           1     -20.285  -3.907  -4.581  0.00  0.00     0.275 HD
HETATM    8  H           1     -20.194  -3.783  -6.281  0.00  0.00     0.275 HD
HETATM    9  H           1     -19.155  -4.847  -5.446  0.00  0.00     0.275 HD
ENDBRANCH   5   6
BRANCH   5  10
HETATM   10  C           1     -21.899  -5.350  -6.904  0.00  0.00     0.044 C 
BRANCH  10  11
HETATM   11  C           1     -21.802  -3.898  -7.355  0.00  0.00     0.023 C 
BRANCH  11  12
HETATM   12  C           1     -22.398  -3.757  -8.749  0.00  0.00     0.138 C 
BRANCH  12  13
HETATM   13  N           1     -23.866  -3.767  -8.658  0.00  0.00    -0.227 N 
HETATM   14  H           1     -24.333  -3.990  -7.744  0.00  0.00     0.177 HD
HETATM   15  C           1     -24.565  -3.507  -9.680  0.00  0.00     0.665 C 
HETATM   16  N           1     -23.986  -3.230 -10.811  0.00  0.00    -0.235 N 
HETATM   17  N           1     -25.829  -3.516  -9.603  0.00  0.00    -0.235 N 
HETATM   18  H           1     -22.942  -3.224 -10.875  0.00  0.00     0.174 HD
HETATM   19  H           1     -24.563  -3.016 -11.655  0.00  0.00     0.174 HD
HETATM   20  H           1     -26.297  -3.739  -8.690  0.00  0.00     0.174 HD
HETATM   21  H           1     -26.409  -3.300 -10.451  0.00  0.00     0.174 HD
ENDBRANCH  12  13
ENDBRANCH  11  12
ENDBRANCH  10  11
ENDBRANCH   5  10
ENDBRANCH   1   5
BRANCH   2  22
HETATM   22  C           1     -19.917  -9.018  -4.578  0.00  0.00     0.187 C 
BRANCH  22  23
HETATM   23  C           1     -20.894 -10.095  -4.979  0.00  0.00     0.196 C 
HETATM   24  O           1     -21.583 -10.670  -4.109  0.00  0.00    -0.646 OA
HETATM   25  O           1     -21.014 -10.413  -6.182  0.00  0.00    -0.646 OA
ENDBRANCH  22  23
BRANCH  22  26
HETATM   26  C           1     -19.374  -9.316  -3.187  0.00  0.00     0.066 C 
BRANCH  26  27
HETATM   27  C           1     -20.152  -8.511  -2.155  0.00  0.00     0.273 C 
BRANCH  27  28
HETATM   28  N           1     -20.650  -9.392  -1.133  0.00  0.00     0.099 N 
HETATM   29  H           1     -20.169  -9.200  -0.254  0.00  0.00     0.317 HD
BRANCH  28  30
HETATM   30  C           1     -22.055  -9.132  -0.977  0.00  0.00     0.329 C 
BRANCH  30  31
HETATM   31  C           1     -22.245  -7.836  -0.227  0.00  0.00     0.208 C 
HETATM   32  O           1     -21.908  -7.753   0.973  0.00  0.00    -0.646 OA
HETATM   33  O           1     -22.741  -6.845  -0.807  0.00  0.00    -0.646 OA
ENDBRANCH  30  31
BRANCH  30  34
HETATM   34  C           1     -22.698 -10.270  -0.197  0.00  0.00     0.117 C 
BRANCH  34  35
HETATM   35  S           1     -23.744 -11.251  -1.309  0.00  0.00    -0.180 SA
HETATM   36  H           1     -24.659 -10.289  -1.527  0.00  0.00     0.101 HD
ENDBRANCH  34  35
ENDBRANCH  30  34
ENDBRANCH  28  30
ENDBRANCH  27  28
ENDBRANCH  26  27
ENDBRANCH  22  26
ENDBRANCH   2  22
TORSDOF 15
ENDMDL
MODEL 4
REMARK VINA RESULT:      -6.3      2.368      4.475
REMARK  15 active torsions:
REMARK  status: ('A' for Active; 'I' for Inactive)
REMARK    1  A    between atoms: C_10  and  C_34 
REMARK    2  A    between atoms: N_11  and  C_14 
REMARK       I    between atoms: N_12  and  C_25 
REMARK    3  A    between atoms: C_13  and  C_14 
REMARK    4  A    between atoms: C_13  and  C_33 
REMARK    5  A    between atoms: C_14  and  C_15 
REMARK       I    between atoms: C_15  and  N_17 
REMARK    6  A    between atoms: N_17  and  C_21 
REMARK    7  A    between atoms: C_20  and  C_21 
REMARK    8  A    between atoms: C_21  and  C_22 
REMARK    9  A    between atoms: C_22  and  C_23 
REMARK   10  A    between atoms: C_23  and  N_27 
REMARK   11  A    between atoms: C_24  and  C_33 
REMARK   12  A    between atoms: C_24  and  N_29 
REMARK       I    between atoms: C_25  and  N_26 
REMARK   13  A    between atoms: N_27  and  C_34 
REMARK   14  A    between atoms: C_34  and  C_35 
REMARK   15  A    between atoms: C_35  and  S_36 
ROOT
HETATM    1  C           1     -21.543  -6.241  -4.912  0.00  0.00     0.249 C 
HETATM    2  N           1     -21.068  -6.895  -3.806  0.00  0.00    -0.345 N 
HETATM    3  H           1     -20.072  -6.953  -3.642  0.00  0.00     0.163 HD
HETATM    4  O           1     -22.733  -6.171  -5.108  0.00  0.00    -0.271 OA
ENDROOT
BRANCH   1   5
HETATM    5  C           1     -20.579  -5.608  -5.886  0.00  0.00     0.274 C 
BRANCH   5   6
HETATM    6  N           1     -19.896  -6.681  -6.681  0.00  0.00    -0.067 N 
HETATM    7  H           1     -18.996  -6.939  -6.218  0.00  0.00     0.275 HD
HETATM    8  H           1     -19.704  -6.329  -7.647  0.00  0.00     0.275 HD
HETATM    9  H           1     -20.514  -7.522  -6.735  0.00  0.00     0.275 HD
ENDBRANCH   5   6
BRANCH   5  10
HETATM   10  C           1     -21.341  -4.685  -6.828  0.00  0.00     0.044 C 
BRANCH  10  11
HETATM   11  C           1     -21.019  -5.054  -8.270  0.00  0.00     0.023 C 
BRANCH  11  12
HETATM   12  C           1     -21.504  -3.948  -9.198  0.00  0.00     0.138 C 
BRANCH  12  13
HETATM   13  N           1     -22.823  -3.476  -8.751  0.00  0.00    -0.227 N 
HETATM   14  H           1     -22.922  -3.000  -7.820  0.00  0.00     0.177 HD
HETATM   15  C           1     -23.838  -3.644  -9.488  0.00  0.00     0.665 C 
HETATM   16  N           1     -23.716  -4.233 -10.641  0.00  0.00    -0.235 N 
HETATM   17  N           1     -24.974  -3.238  -9.103  0.00  0.00    -0.235 N 
HETATM   18  H           1     -22.778  -4.569 -10.958  0.00  0.00     0.174 HD
HETATM   19  H           1     -24.553  -4.372 -11.249  0.00  0.00     0.174 HD
HETATM   20  H           1     -25.074  -2.762  -8.172  0.00  0.00     0.174 HD
HETATM   21  H           1     -25.817  -3.377  -9.714  0.00  0.00     0.174 HD
ENDBRANCH  12  13
ENDBRANCH  11  12
ENDBRANCH  10  11
ENDBRANCH   5  10
ENDBRANCH   1   5
BRANCH   2  22
HETATM   22  C           1     -21.995  -7.502  -2.871  0.00  0.00     0.187 C 
BRANCH  22  23
HETATM   23  C           1     -22.230  -6.562  -1.715  0.00  0.00     0.196 C 
HETATM   24  O           1     -21.902  -5.359  -1.810  0.00  0.00    -0.646 OA
HETATM   25  O           1     -22.753  -6.985  -0.661  0.00  0.00    -0.646 OA
ENDBRANCH  22  23
BRANCH  22  26
HETATM   26  C           1     -21.407  -8.808  -2.352  0.00  0.00     0.066 C 
BRANCH  26  27
HETATM   27  C           1     -19.889  -8.695  -2.296  0.00  0.00     0.273 C 
BRANCH  27  28
HETATM   28  N           1     -19.300  -9.802  -2.999  0.00  0.00     0.099 N 
HETATM   29  H           1     -20.023 -10.298  -3.521  0.00  0.00     0.317 HD
BRANCH  28  30
HETATM   30  C           1     -18.325  -9.272  -3.914  0.00  0.00     0.329 C 
BRANCH  30  31
HETATM   31  C           1     -18.855  -9.373  -5.324  0.00  0.00     0.208 C 
HETATM   32  O           1     -20.082  -9.490  -5.524  0.00  0.00    -0.646 OA
HETATM   33  O           1     -18.064  -9.338  -6.291  0.00  0.00    -0.646 OA
ENDBRANCH  30  31
BRANCH  30  34
HETATM   34  C           1     -17.034 -10.069  -3.797  0.00  0.00     0.117 C 
BRANCH  34  35
HETATM   35  S           1     -17.424 -11.830  -3.600  0.00  0.00    -0.180 SA
HETATM   36  H           1     -18.284 -11.900  -4.633  0.00  0.00     0.101 HD
ENDBRANCH  34  35
ENDBRANCH  30  34
ENDBRANCH  28  30
ENDBRANCH  27  28
ENDBRANCH  26  27
ENDBRANCH  22  26
ENDBRANCH   2  22
TORSDOF 15
ENDMDL
MODEL 5
REMARK VINA RESULT:      -6.3      1.725      2.134
REMARK  15 active torsions:
REMARK  status: ('A' for Active; 'I' for Inactive)
REMARK    1  A    between atoms: C_10  and  C_34 
REMARK    2  A    between atoms: N_11  and  C_14 
REMARK       I    between atoms: N_12  and  C_25 
REMARK    3  A    between atoms: C_13  and  C_14 
REMARK    4  A    between atoms: C_13  and  C_33 
REMARK    5  A    between atoms: C_14  and  C_15 
REMARK       I    between atoms: C_15  and  N_17 
REMARK    6  A    between atoms: N_17  and  C_21 
REMARK    7  A    between atoms: C_20  and  C_21 
REMARK    8  A    between atoms: C_21  and  C_22 
REMARK    9  A    between atoms: C_22  and  C_23 
REMARK   10  A    between atoms: C_23  and  N_27 
REMARK   11  A    between atoms: C_24  and  C_33 
REMARK   12  A    between atoms: C_24  and  N_29 
REMARK       I    between atoms: C_25  and  N_26 
REMARK   13  A    between atoms: N_27  and  C_34 
REMARK   14  A    between atoms: C_34  and  C_35 
REMARK   15  A    between atoms: C_35  and  S_36 
ROOT
HETATM    1  C           1     -21.417  -6.166  -5.862  0.00  0.00     0.249 C 
HETATM    2  N           1     -20.994  -7.461  -6.000  0.00  0.00    -0.345 N 
HETATM    3  H           1     -20.913  -7.872  -6.921  0.00  0.00     0.163 HD
HETATM    4  O           1     -21.513  -5.675  -4.763  0.00  0.00    -0.271 OA
ENDROOT
BRANCH   1   5
HETATM    5  C           1     -21.763  -5.352  -7.085  0.00  0.00     0.274 C 
BRANCH   5   6
HETATM    6  N           1     -22.907  -4.435  -6.768  0.00  0.00    -0.067 N 
HETATM    7  H           1     -23.694  -4.988  -6.360  0.00  0.00     0.275 HD
HETATM    8  H           1     -23.229  -3.965  -7.644  0.00  0.00     0.275 HD
HETATM    9  H           1     -22.595  -3.713  -6.081  0.00  0.00     0.275 HD
ENDBRANCH   5   6
BRANCH   5  10
HETATM   10  C           1     -20.553  -4.527  -7.505  0.00  0.00     0.044 C 
BRANCH  10  11
HETATM   11  C           1     -20.200  -4.844  -8.952  0.00  0.00     0.023 C 
BRANCH  11  12
HETATM   12  C           1     -20.887  -3.846  -9.875  0.00  0.00     0.138 C 
BRANCH  12  13
HETATM   13  N           1     -22.102  -4.453 -10.437  0.00  0.00    -0.227 N 
HETATM   14  H           1     -22.778  -4.953  -9.808  0.00  0.00     0.177 HD
HETATM   15  C           1     -22.332  -4.375 -11.679  0.00  0.00     0.665 C 
HETATM   16  N           1     -21.494  -3.757 -12.458  0.00  0.00    -0.235 N 
HETATM   17  N           1     -23.378  -4.898 -12.165  0.00  0.00    -0.235 N 
HETATM   18  H           1     -20.630  -3.325 -12.058  0.00  0.00     0.174 HD
HETATM   19  H           1     -21.683  -3.692 -13.483  0.00  0.00     0.174 HD
HETATM   20  H           1     -24.054  -5.398 -11.535  0.00  0.00     0.174 HD
HETATM   21  H           1     -23.568  -4.834 -13.195  0.00  0.00     0.174 HD
ENDBRANCH  12  13
ENDBRANCH  11  12
ENDBRANCH  10  11
ENDBRANCH   5  10
ENDBRANCH   1   5
BRANCH   2  22
HETATM   22  C           1     -20.662  -8.243  -4.824  0.00  0.00     0.187 C 
BRANCH  22  23
HETATM   23  C           1     -19.241  -8.737  -4.935  0.00  0.00     0.196 C 
HETATM   24  O           1     -18.718  -8.892  -6.060  0.00  0.00    -0.646 OA
HETATM   25  O           1     -18.585  -8.992  -3.902  0.00  0.00    -0.646 OA
ENDBRANCH  22  23
BRANCH  22  26
HETATM   26  C           1     -21.607  -9.433  -4.725  0.00  0.00     0.066 C 
BRANCH  26  27
HETATM   27  C           1     -21.754  -9.844  -3.266  0.00  0.00     0.273 C 
BRANCH  27  28
HETATM   28  N           1     -21.541  -8.700  -2.421  0.00  0.00     0.099 N 
HETATM   29  H           1     -22.094  -7.915  -2.766  0.00  0.00     0.317 HD
BRANCH  28  30
HETATM   30  C           1     -21.977  -9.047  -1.095  0.00  0.00     0.329 C 
BRANCH  30  31
HETATM   31  C           1     -22.254  -7.787  -0.312  0.00  0.00     0.208 C 
HETATM   32  O           1     -22.672  -6.766  -0.899  0.00  0.00    -0.646 OA
HETATM   33  O           1     -22.065  -7.765   0.923  0.00  0.00    -0.646 OA
ENDBRANCH  30  31
BRANCH  30  34
HETATM   34  C           1     -20.888  -9.851  -0.398  0.00  0.00     0.117 C 
BRANCH  34  35
HETATM   35  S           1     -21.612 -11.348   0.329  0.00  0.00    -0.180 SA
HETATM   36  H           1     -20.560 -11.648   1.111  0.00  0.00     0.101 HD
ENDBRANCH  34  35
ENDBRANCH  30  34
ENDBRANCH  28  30
ENDBRANCH  27  28
ENDBRANCH  26  27
ENDBRANCH  22  26
ENDBRANCH   2  22
TORSDOF 15
ENDMDL
MODEL 6
REMARK VINA RESULT:      -6.3      2.609      4.293
REMARK  15 active torsions:
REMARK  status: ('A' for Active; 'I' for Inactive)
REMARK    1  A    between atoms: C_10  and  C_34 
REMARK    2  A    between atoms: N_11  and  C_14 
REMARK       I    between atoms: N_12  and  C_25 
REMARK    3  A    between atoms: C_13  and  C_14 
REMARK    4  A    between atoms: C_13  and  C_33 
REMARK    5  A    between atoms: C_14  and  C_15 
REMARK       I    between atoms: C_15  and  N_17 
REMARK    6  A    between atoms: N_17  and  C_21 
REMARK    7  A    between atoms: C_20  and  C_21 
REMARK    8  A    between atoms: C_21  and  C_22 
REMARK    9  A    between atoms: C_22  and  C_23 
REMARK   10  A    between atoms: C_23  and  N_27 
REMARK   11  A    between atoms: C_24  and  C_33 
REMARK   12  A    between atoms: C_24  and  N_29 
REMARK       I    between atoms: C_25  and  N_26 
REMARK   13  A    between atoms: N_27  and  C_34 
REMARK   14  A    between atoms: C_34  and  C_35 
REMARK   15  A    between atoms: C_35  and  S_36 
ROOT
HETATM    1  C           1     -21.475  -5.533  -5.671  0.00  0.00     0.249 C 
HETATM    2  N           1     -20.820  -6.361  -4.798  0.00  0.00    -0.345 N 
HETATM    3  H           1     -19.816  -6.298  -4.699  0.00  0.00     0.163 HD
HETATM    4  O           1     -22.675  -5.607  -5.789  0.00  0.00    -0.271 OA
ENDROOT
BRANCH   1   5
HETATM    5  C           1     -20.697  -4.528  -6.485  0.00  0.00     0.274 C 
BRANCH   5   6
HETATM    6  N           1     -19.586  -5.226  -7.211  0.00  0.00    -0.067 N 
HETATM    7  H           1     -19.506  -4.841  -8.179  0.00  0.00     0.275 HD
HETATM    8  H           1     -19.792  -6.250  -7.259  0.00  0.00     0.275 HD
HETATM    9  H           1     -18.688  -5.075  -6.701  0.00  0.00     0.275 HD
ENDBRANCH   5   6
BRANCH   5  10
HETATM   10  C           1     -21.625  -3.865  -7.495  0.00  0.00     0.044 C 
BRANCH  10  11
HETATM   11  C           1     -21.122  -4.140  -8.905  0.00  0.00     0.023 C 
BRANCH  11  12
HETATM   12  C           1     -22.307  -4.342  -9.839  0.00  0.00     0.138 C 
BRANCH  12  13
HETATM   13  N           1     -21.852  -4.257 -11.234  0.00  0.00    -0.227 N 
HETATM   14  H           1     -21.010  -4.801 -11.546  0.00  0.00     0.177 HD
HETATM   15  C           1     -22.475  -3.527 -12.060  0.00  0.00     0.665 C 
HETATM   16  N           1     -23.518  -2.853 -11.674  0.00  0.00    -0.235 N 
HETATM   17  N           1     -22.084  -3.453 -13.262  0.00  0.00    -0.235 N 
HETATM   18  H           1     -23.841  -2.914 -10.682  0.00  0.00     0.174 HD
HETATM   19  H           1     -24.032  -2.251 -12.355  0.00  0.00     0.174 HD
HETATM   20  H           1     -21.241  -3.997 -13.573  0.00  0.00     0.174 HD
HETATM   21  H           1     -22.600  -2.847 -13.946  0.00  0.00     0.174 HD
ENDBRANCH  12  13
ENDBRANCH  11  12
ENDBRANCH  10  11
ENDBRANCH   5  10
ENDBRANCH   1   5
BRANCH   2  22
HETATM   22  C           1     -21.568  -7.326  -4.016  0.00  0.00     0.187 C 
BRANCH  22  23
HETATM   23  C           1     -21.663  -6.850  -2.588  0.00  0.00     0.196 C 
HETATM   24  O           1     -22.418  -5.897  -2.295  0.00  0.00    -0.646 OA
HETATM   25  O           1     -20.987  -7.407  -1.697  0.00  0.00    -0.646 OA
ENDBRANCH  22  23
BRANCH  22  26
HETATM   26  C           1     -20.855  -8.671  -4.057  0.00  0.00     0.066 C 
BRANCH  26  27
HETATM   27  C           1     -19.642  -8.576  -4.973  0.00  0.00     0.273 C 
BRANCH  27  28
HETATM   28  N           1     -18.535  -9.274  -4.378  0.00  0.00     0.099 N 
HETATM   29  H           1     -18.886 -10.040  -3.802  0.00  0.00     0.317 HD
BRANCH  28  30
HETATM   30  C           1     -17.729  -9.806  -5.443  0.00  0.00     0.329 C 
BRANCH  30  31
HETATM   31  C           1     -18.361 -11.072  -5.967  0.00  0.00     0.208 C 
HETATM   32  O           1     -18.668 -11.164  -7.175  0.00  0.00    -0.646 OA
HETATM   33  O           1     -18.577 -12.029  -5.192  0.00  0.00    -0.646 OA
ENDBRANCH  30  31
BRANCH  30  34
HETATM   34  C           1     -16.333 -10.113  -4.918  0.00  0.00     0.117 C 
BRANCH  34  35
HETATM   35  S           1     -16.257  -9.735  -3.145  0.00  0.00    -0.180 SA
HETATM   36  H           1     -17.409 -10.350  -2.820  0.00  0.00     0.101 HD
ENDBRANCH  34  35
ENDBRANCH  30  34
ENDBRANCH  28  30
ENDBRANCH  27  28
ENDBRANCH  26  27
ENDBRANCH  22  26
ENDBRANCH   2  22
TORSDOF 15
ENDMDL
MODEL 7
REMARK VINA RESULT:      -6.2      2.259      2.746
REMARK  15 active torsions:
REMARK  status: ('A' for Active; 'I' for Inactive)
REMARK    1  A    between atoms: C_10  and  C_34 
REMARK    2  A    between atoms: N_11  and  C_14 
REMARK       I    between atoms: N_12  and  C_25 
REMARK    3  A    between atoms: C_13  and  C_14 
REMARK    4  A    between atoms: C_13  and  C_33 
REMARK    5  A    between atoms: C_14  and  C_15 
REMARK       I    between atoms: C_15  and  N_17 
REMARK    6  A    between atoms: N_17  and  C_21 
REMARK    7  A    between atoms: C_20  and  C_21 
REMARK    8  A    between atoms: C_21  and  C_22 
REMARK    9  A    between atoms: C_22  and  C_23 
REMARK   10  A    between atoms: C_23  and  N_27 
REMARK   11  A    between atoms: C_24  and  C_33 
REMARK   12  A    between atoms: C_24  and  N_29 
REMARK       I    between atoms: C_25  and  N_26 
REMARK   13  A    between atoms: N_27  and  C_34 
REMARK   14  A    between atoms: C_34  and  C_35 
REMARK   15  A    between atoms: C_35  and  S_36 
ROOT
HETATM    1  C           1     -21.494  -5.651  -5.687  0.00  0.00     0.249 C 
HETATM    2  N           1     -20.817  -6.517  -4.869  0.00  0.00    -0.345 N 
HETATM    3  H           1     -19.805  -6.531  -4.876  0.00  0.00     0.163 HD
HETATM    4  O           1     -22.702  -5.634  -5.679  0.00  0.00    -0.271 OA
ENDROOT
BRANCH   1   5
HETATM    5  C           1     -20.732  -4.720  -6.597  0.00  0.00     0.274 C 
BRANCH   5   6
HETATM    6  N           1     -19.830  -5.521  -7.489  0.00  0.00    -0.067 N 
HETATM    7  H           1     -20.144  -5.424  -8.480  0.00  0.00     0.275 HD
HETATM    8  H           1     -19.867  -6.527  -7.207  0.00  0.00     0.275 HD
HETATM    9  H           1     -18.850  -5.171  -7.397  0.00  0.00     0.275 HD
ENDBRANCH   5   6
BRANCH   5  10
HETATM   10  C           1     -21.714  -3.927  -7.449  0.00  0.00     0.044 C 
BRANCH  10  11
HETATM   11  C           1     -21.425  -4.178  -8.923  0.00  0.00     0.023 C 
BRANCH  11  12
HETATM   12  C           1     -22.624  -3.748  -9.758  0.00  0.00     0.138 C 
BRANCH  12  13
HETATM   13  N           1     -22.160  -3.234 -11.054  0.00  0.00    -0.227 N 
HETATM   14  H           1     -21.507  -2.412 -11.090  0.00  0.00     0.177 HD
HETATM   15  C           1     -22.548  -3.780 -12.128  0.00  0.00     0.665 C 
HETATM   16  N           1     -23.357  -4.798 -12.084  0.00  0.00    -0.235 N 
HETATM   17  N           1     -22.149  -3.337 -13.245  0.00  0.00    -0.235 N 
HETATM   18  H           1     -23.687  -5.163 -11.162  0.00  0.00     0.174 HD
HETATM   19  H           1     -23.677  -5.249 -12.970  0.00  0.00     0.174 HD
HETATM   20  H           1     -21.496  -2.516 -13.280  0.00  0.00     0.174 HD
HETATM   21  H           1     -22.471  -3.791 -14.136  0.00  0.00     0.174 HD
ENDBRANCH  12  13
ENDBRANCH  11  12
ENDBRANCH  10  11
ENDBRANCH   5  10
ENDBRANCH   1   5
BRANCH   2  22
HETATM   22  C           1     -21.550  -7.412  -3.995  0.00  0.00     0.187 C 
BRANCH  22  23
HETATM   23  C           1     -21.607  -6.822  -2.607  0.00  0.00     0.196 C 
HETATM   24  O           1     -22.487  -5.982  -2.320  0.00  0.00    -0.646 OA
HETATM   25  O           1     -20.773  -7.173  -1.745  0.00  0.00    -0.646 OA
ENDBRANCH  22  23
BRANCH  22  26
HETATM   26  C           1     -20.845  -8.761  -3.945  0.00  0.00     0.066 C 
BRANCH  26  27
HETATM   27  C           1     -21.802  -9.814  -3.404  0.00  0.00     0.273 C 
BRANCH  27  28
HETATM   28  N           1     -21.424 -10.161  -2.061  0.00  0.00     0.099 N 
HETATM   29  H           1     -21.364  -9.315  -1.495  0.00  0.00     0.317 HD
BRANCH  28  30
HETATM   30  C           1     -22.445 -11.023  -1.527  0.00  0.00     0.329 C 
BRANCH  30  31
HETATM   31  C           1     -23.264 -10.262  -0.513  0.00  0.00     0.208 C 
HETATM   32  O           1     -24.298 -10.774  -0.035  0.00  0.00    -0.646 OA
HETATM   33  O           1     -22.907  -9.120  -0.153  0.00  0.00    -0.646 OA
ENDBRANCH  30  31
BRANCH  30  34
HETATM   34  C           1     -21.794 -12.225  -0.857  0.00  0.00     0.117 C 
BRANCH  34  35
HETATM   35  S           1     -20.260 -11.705  -0.038  0.00  0.00    -0.180 SA
HETATM   36  H           1     -20.278 -10.440  -0.496  0.00  0.00     0.101 HD
ENDBRANCH  34  35
ENDBRANCH  30  34
ENDBRANCH  28  30
ENDBRANCH  27  28
ENDBRANCH  26  27
ENDBRANCH  22  26
ENDBRANCH   2  22
TORSDOF 15
ENDMDL
MODEL 8
REMARK VINA RESULT:      -6.2      2.427      3.110
REMARK  15 active torsions:
REMARK  status: ('A' for Active; 'I' for Inactive)
REMARK    1  A    between atoms: C_10  and  C_34 
REMARK    2  A    between atoms: N_11  and  C_14 
REMARK       I    between atoms: N_12  and  C_25 
REMARK    3  A    between atoms: C_13  and  C_14 
REMARK    4  A    between atoms: C_13  and  C_33 
REMARK    5  A    between atoms: C_14  and  C_15 
REMARK       I    between atoms: C_15  and  N_17 
REMARK    6  A    between atoms: N_17  and  C_21 
REMARK    7  A    between atoms: C_20  and  C_21 
REMARK    8  A    between atoms: C_21  and  C_22 
REMARK    9  A    between atoms: C_22  and  C_23 
REMARK   10  A    between atoms: C_23  and  N_27 
REMARK   11  A    between atoms: C_24  and  C_33 
REMARK   12  A    between atoms: C_24  and  N_29 
REMARK       I    between atoms: C_25  and  N_26 
REMARK   13  A    between atoms: N_27  and  C_34 
REMARK   14  A    between atoms: C_34  and  C_35 
REMARK   15  A    between atoms: C_35  and  S_36 
ROOT
HETATM    1  C           1     -21.600  -5.646  -5.644  0.00  0.00     0.249 C 
HETATM    2  N           1     -20.872  -6.464  -4.821  0.00  0.00    -0.345 N 
HETATM    3  H           1     -19.861  -6.409  -4.819  0.00  0.00     0.163 HD
HETATM    4  O           1     -22.806  -5.711  -5.645  0.00  0.00    -0.271 OA
ENDROOT
BRANCH   1   5
HETATM    5  C           1     -20.895  -4.666  -6.549  0.00  0.00     0.274 C 
BRANCH   5   6
HETATM    6  N           1     -19.766  -5.359  -7.253  0.00  0.00    -0.067 N 
HETATM    7  H           1     -20.150  -5.989  -7.992  0.00  0.00     0.275 HD
HETATM    8  H           1     -19.220  -5.922  -6.562  0.00  0.00     0.275 HD
HETATM    9  H           1     -19.141  -4.647  -7.692  0.00  0.00     0.275 HD
ENDBRANCH   5   6
BRANCH   5  10
HETATM   10  C           1     -21.880  -4.127  -7.578  0.00  0.00     0.044 C 
BRANCH  10  11
HETATM   11  C           1     -21.224  -4.117  -8.953  0.00  0.00     0.023 C 
BRANCH  11  12
HETATM   12  C           1     -22.268  -3.793 -10.013  0.00  0.00     0.138 C 
BRANCH  12  13
HETATM   13  N           1     -23.598  -3.736  -9.390  0.00  0.00    -0.227 N 
HETATM   14  H           1     -23.697  -3.857  -8.352  0.00  0.00     0.177 HD
HETATM   15  C           1     -24.624  -3.543 -10.106  0.00  0.00     0.665 C 
HETATM   16  N           1     -24.502  -3.393 -11.392  0.00  0.00    -0.235 N 
HETATM   17  N           1     -25.771  -3.493  -9.571  0.00  0.00    -0.235 N 
HETATM   18  H           1     -23.555  -3.434 -11.834  0.00  0.00     0.174 HD
HETATM   19  H           1     -25.348  -3.233 -11.983  0.00  0.00     0.174 HD
HETATM   20  H           1     -25.870  -3.614  -8.532  0.00  0.00     0.174 HD
HETATM   21  H           1     -26.622  -3.333 -10.164  0.00  0.00     0.174 HD
ENDBRANCH  12  13
ENDBRANCH  11  12
ENDBRANCH  10  11
ENDBRANCH   5  10
ENDBRANCH   1   5
BRANCH   2  22
HETATM   22  C           1     -21.549  -7.406  -3.951  0.00  0.00     0.187 C 
BRANCH  22  23
HETATM   23  C           1     -21.581  -6.858  -2.546  0.00  0.00     0.196 C 
HETATM   24  O           1     -22.426  -5.993  -2.230  0.00  0.00    -0.646 OA
HETATM   25  O           1     -20.761  -7.269  -1.696  0.00  0.00    -0.646 OA
ENDBRANCH  22  23
BRANCH  22  26
HETATM   26  C           1     -20.802  -8.733  -3.963  0.00  0.00     0.066 C 
BRANCH  26  27
HETATM   27  C           1     -21.717  -9.835  -3.445  0.00  0.00     0.273 C 
BRANCH  27  28
HETATM   28  N           1     -21.138 -10.427  -2.270  0.00  0.00     0.099 N 
HETATM   29  H           1     -20.567  -9.733  -1.786  0.00  0.00     0.317 HD
BRANCH  28  30
HETATM   30  C           1     -22.215 -10.842  -1.412  0.00  0.00     0.329 C 
BRANCH  30  31
HETATM   31  C           1     -22.240  -9.972  -0.179  0.00  0.00     0.208 C 
HETATM   32  O           1     -21.370 -10.118   0.706  0.00  0.00    -0.646 OA
HETATM   33  O           1     -23.131  -9.106  -0.045  0.00  0.00    -0.646 OA
ENDBRANCH  30  31
BRANCH  30  34
HETATM   34  C           1     -22.008 -12.295  -1.006  0.00  0.00     0.117 C 
BRANCH  34  35
HETATM   35  S           1     -22.852 -13.381  -2.190  0.00  0.00    -0.180 SA
HETATM   36  H           1     -21.734 -13.838  -2.784  0.00  0.00     0.101 HD
ENDBRANCH  34  35
ENDBRANCH  30  34
ENDBRANCH  28  30
ENDBRANCH  27  28
ENDBRANCH  26  27
ENDBRANCH  22  26
ENDBRANCH   2  22
TORSDOF 15
ENDMDL
MODEL 9
REMARK VINA RESULT:      -6.1      2.814      4.296
REMARK  15 active torsions:
REMARK  status: ('A' for Active; 'I' for Inactive)
REMARK    1  A    between atoms: C_10  and  C_34 
REMARK    2  A    between atoms: N_11  and  C_14 
REMARK       I    between atoms: N_12  and  C_25 
REMARK    3  A    between atoms: C_13  and  C_14 
REMARK    4  A    between atoms: C_13  and  C_33 
REMARK    5  A    between atoms: C_14  and  C_15 
REMARK       I    between atoms: C_15  and  N_17 
REMARK    6  A    between atoms: N_17  and  C_21 
REMARK    7  A    between atoms: C_20  and  C_21 
REMARK    8  A    between atoms: C_21  and  C_22 
REMARK    9  A    between atoms: C_22  and  C_23 
REMARK   10  A    between atoms: C_23  and  N_27 
REMARK   11  A    between atoms: C_24  and  C_33 
REMARK   12  A    between atoms: C_24  and  N_29 
REMARK       I    between atoms: C_25  and  N_26 
REMARK   13  A    between atoms: N_27  and  C_34 
REMARK   14  A    between atoms: C_34  and  C_35 
REMARK   15  A    between atoms: C_35  and  S_36 
ROOT
HETATM    1  C           1     -21.632  -5.994  -5.559  0.00  0.00     0.249 C 
HETATM    2  N           1     -20.948  -6.837  -4.725  0.00  0.00    -0.345 N 
HETATM    3  H           1     -19.941  -6.908  -4.792  0.00  0.00     0.163 HD
HETATM    4  O           1     -22.834  -5.908  -5.479  0.00  0.00    -0.271 OA
ENDROOT
BRANCH   1   5
HETATM    5  C           1     -20.884  -5.172  -6.580  0.00  0.00     0.274 C 
BRANCH   5   6
HETATM    6  N           1     -20.033  -6.075  -7.423  0.00  0.00    -0.067 N 
HETATM    7  H           1     -20.079  -5.767  -8.420  0.00  0.00     0.275 HD
HETATM    8  H           1     -20.386  -7.056  -7.345  0.00  0.00     0.275 HD
HETATM    9  H           1     -19.044  -6.033  -7.090  0.00  0.00     0.275 HD
ENDBRANCH   5   6
BRANCH   5  10
HETATM   10  C           1     -21.879  -4.436  -7.469  0.00  0.00     0.044 C 
BRANCH  10  11
HETATM   11  C           1     -21.220  -4.104  -8.801  0.00  0.00     0.023 C 
BRANCH  11  12
HETATM   12  C           1     -22.234  -4.270  -9.925  0.00  0.00     0.138 C 
BRANCH  12  13
HETATM   13  N           1     -23.593  -4.106  -9.389  0.00  0.00    -0.227 N 
HETATM   14  H           1     -23.806  -4.396  -8.402  0.00  0.00     0.177 HD
HETATM   15  C           1     -24.505  -3.617 -10.116  0.00  0.00     0.665 C 
HETATM   16  N           1     -24.241  -3.258 -11.338  0.00  0.00    -0.235 N 
HETATM   17  N           1     -25.676  -3.475  -9.655  0.00  0.00    -0.235 N 
HETATM   18  H           1     -23.275  -3.375 -11.719  0.00  0.00     0.174 HD
HETATM   19  H           1     -24.994  -2.854 -11.939  0.00  0.00     0.174 HD
HETATM   20  H           1     -25.890  -3.765  -8.669  0.00  0.00     0.174 HD
HETATM   21  H           1     -26.434  -3.070 -10.259  0.00  0.00     0.174 HD
ENDBRANCH  12  13
ENDBRANCH  11  12
ENDBRANCH  10  11
ENDBRANCH   5  10
ENDBRANCH   1   5
BRANCH   2  22
HETATM   22  C           1     -21.668  -7.627  -3.745  0.00  0.00     0.187 C 
BRANCH  22  23
HETATM   23  C           1     -21.568  -6.963  -2.394  0.00  0.00     0.196 C 
HETATM   24  O           1     -22.195  -5.906  -2.168  0.00  0.00    -0.646 OA
HETATM   25  O           1     -20.856  -7.470  -1.500  0.00  0.00    -0.646 OA
ENDBRANCH  22  23
BRANCH  22  26
HETATM   26  C           1     -21.059  -9.021  -3.672  0.00  0.00     0.066 C 
BRANCH  26  27
HETATM   27  C           1     -19.664  -8.999  -4.283  0.00  0.00     0.273 C 
BRANCH  27  28
HETATM   28  N           1     -18.682  -9.127  -3.241  0.00  0.00     0.099 N 
HETATM   29  H           1     -19.152  -9.245  -2.343  0.00  0.00     0.317 HD
BRANCH  28  30
HETATM   30  C           1     -17.892 -10.295  -3.525  0.00  0.00     0.329 C 
BRANCH  30  31
HETATM   31  C           1     -16.428  -9.931  -3.490  0.00  0.00     0.208 C 
HETATM   32  O           1     -15.798  -9.976  -2.411  0.00  0.00    -0.646 OA
HETATM   33  O           1     -15.845  -9.584  -4.540  0.00  0.00    -0.646 OA
ENDBRANCH  30  31
BRANCH  30  34
HETATM   34  C           1     -18.251 -10.827  -4.905  0.00  0.00     0.117 C 
BRANCH  34  35
HETATM   35  S           1     -18.443 -12.630  -4.828  0.00  0.00    -0.180 SA
HETATM   36  H           1     -17.134 -12.916  -4.944  0.00  0.00     0.101 HD
ENDBRANCH  34  35
ENDBRANCH  30  34
ENDBRANCH  28  30
ENDBRANCH  27  28
ENDBRANCH  26  27
ENDBRANCH  22  26
ENDBRANCH   2  22
TORSDOF 15
ENDMDL
