MODEL 1
REMARK VINA RESULT:      -7.0      0.000      0.000
REMARK  8 active torsions:
REMARK  status: ('A' for Active; 'I' for Inactive)
REMARK    1  A    between atoms: C_2  and  C_6 
REMARK    2  A    between atoms: C_4  and  C_5 
REMARK    3  A    between atoms: C_5  and  C_6 
REMARK    4  A    between atoms: C_6  and  N_10 
REMARK       I    between atoms: N_10  and  C_11 
REMARK    5  A    between atoms: C_11  and  C_18 
REMARK    6  A    between atoms: N_16  and  C_18 
REMARK    7  A    between atoms: C_18  and  C_24 
REMARK    8  A    between atoms: C_23  and  C_24 
ROOT
HETATM    1  N           1     -22.986  -4.851 -11.178  0.00  0.00    -0.344 N 
HETATM    2  C           1     -22.395  -3.895 -11.959  0.00  0.00     0.249 C 
HETATM    3  O           1     -21.193  -3.866 -12.074  0.00  0.00    -0.271 OA
HETATM    4  H           1     -23.257  -5.739 -11.582  0.00  0.00     0.163 HD
ENDROOT
BRANCH   1   5
HETATM    5  C           1     -23.223  -4.592  -9.770  0.00  0.00     0.189 C 
BRANCH   5   6
HETATM    6  C           1     -24.628  -4.072  -9.586  0.00  0.00     0.197 C 
HETATM    7  O           1     -25.587  -4.870  -9.525  0.00  0.00    -0.646 OA
HETATM    8  O           1     -24.832  -2.842  -9.494  0.00  0.00    -0.646 OA
ENDBRANCH   5   6
BRANCH   5   9
HETATM    9  C           1     -22.227  -3.552  -9.272  0.00  0.00     0.074 C 
BRANCH   9  10
HETATM   10  C           1     -21.403  -4.139  -8.169  0.00  0.00    -0.056 A 
HETATM   11  C           1     -22.026  -4.702  -7.056  0.00  0.00     0.007 A 
HETATM   12  C           1     -21.257  -5.249  -6.028  0.00  0.00     0.001 A 
HETATM   13  C           1     -19.865  -5.234  -6.115  0.00  0.00     0.000 A 
HETATM   14  C           1     -19.242  -4.670  -7.228  0.00  0.00     0.001 A 
HETATM   15  C           1     -20.011  -4.123  -8.256  0.00  0.00     0.007 A 
ENDBRANCH   9  10
ENDBRANCH   5   9
ENDBRANCH   1   5
BRANCH   2  16
HETATM   16  C           1     -23.247  -2.877 -12.679  0.00  0.00     0.284 C 
BRANCH  16  17
HETATM   17  N           1     -22.649  -1.513 -12.502  0.00  0.00    -0.066 N 
HETATM   18  H           1     -23.209  -0.976 -11.802  0.00  0.00     0.275 HD
HETATM   19  H           1     -21.666  -1.606 -12.162  0.00  0.00     0.275 HD
HETATM   20  H           1     -22.657  -1.007 -13.416  0.00  0.00     0.275 HD
ENDBRANCH  16  17
BRANCH  16  21
HETATM   21  C           1     -23.300  -3.218 -14.163  0.00  0.00     0.155 C 
BRANCH  21  22
HETATM   22  C           1     -23.442  -1.951 -14.968  0.00  0.00     0.175 C 
HETATM   23  O           1     -22.525  -1.593 -15.737  0.00  0.00    -0.648 OA
HETATM   24  O           1     -24.478  -1.258 -14.866  0.00  0.00    -0.648 OA
ENDBRANCH  21  22
ENDBRANCH  16  21
ENDBRANCH   2  16
TORSDOF 8
ENDMDL
MODEL 2
REMARK VINA RESULT:      -6.6      7.217     10.420
REMARK  8 active torsions:
REMARK  status: ('A' for Active; 'I' for Inactive)
REMARK    1  A    between atoms: C_2  and  C_6 
REMARK    2  A    between atoms: C_4  and  C_5 
REMARK    3  A    between atoms: C_5  and  C_6 
REMARK    4  A    between atoms: C_6  and  N_10 
REMARK       I    between atoms: N_10  and  C_11 
REMARK    5  A    between atoms: C_11  and  C_18 
REMARK    6  A    between atoms: N_16  and  C_18 
REMARK    7  A    between atoms: C_18  and  C_24 
REMARK    8  A    between atoms: C_23  and  C_24 
ROOT
HETATM    1  N           1     -19.690  -8.201  -4.622  0.00  0.00    -0.344 N 
HETATM    2  C           1     -19.339  -9.516  -4.764  0.00  0.00     0.249 C 
HETATM    3  O           1     -19.509 -10.076  -5.822  0.00  0.00    -0.271 OA
HETATM    4  H           1     -19.018  -7.472  -4.828  0.00  0.00     0.163 HD
ENDROOT
BRANCH   1   5
HETATM    5  C           1     -21.025  -7.852  -4.176  0.00  0.00     0.189 C 
BRANCH   5   6
HETATM    6  C           1     -21.701  -7.007  -5.229  0.00  0.00     0.197 C 
HETATM    7  O           1     -22.680  -6.292  -4.924  0.00  0.00    -0.646 OA
HETATM    8  O           1     -21.280  -7.021  -6.406  0.00  0.00    -0.646 OA
ENDBRANCH   5   6
BRANCH   5   9
HETATM    9  C           1     -20.937  -7.066  -2.874  0.00  0.00     0.074 C 
BRANCH   9  10
HETATM   10  C           1     -21.691  -7.791  -1.803  0.00  0.00    -0.056 A 
HETATM   11  C           1     -21.767  -9.183  -1.823  0.00  0.00     0.007 A 
HETATM   12  C           1     -22.471  -9.857  -0.824  0.00  0.00     0.001 A 
HETATM   13  C           1     -23.097  -9.139   0.194  0.00  0.00     0.000 A 
HETATM   14  C           1     -23.020  -7.747   0.214  0.00  0.00     0.001 A 
HETATM   15  C           1     -22.317  -7.072  -0.785  0.00  0.00     0.007 A 
ENDBRANCH   9  10
ENDBRANCH   5   9
ENDBRANCH   1   5
BRANCH   2  16
HETATM   16  C           1     -18.736 -10.267  -3.601  0.00  0.00     0.284 C 
BRANCH  16  17
HETATM   17  N           1     -17.984 -11.459  -4.114  0.00  0.00    -0.066 N 
HETATM   18  H           1     -18.247 -11.635  -5.110  0.00  0.00     0.275 HD
HETATM   19  H           1     -16.958 -11.275  -4.054  0.00  0.00     0.275 HD
HETATM   20  H           1     -18.224 -12.298  -3.538  0.00  0.00     0.275 HD
ENDBRANCH  16  17
BRANCH  16  21
HETATM   21  C           1     -17.781  -9.352  -2.847  0.00  0.00     0.155 C 
BRANCH  21  22
HETATM   22  C           1     -16.359  -9.773  -3.117  0.00  0.00     0.175 C 
HETATM   23  O           1     -15.709 -10.382  -2.240  0.00  0.00    -0.648 OA
HETATM   24  O           1     -15.828  -9.515  -4.219  0.00  0.00    -0.648 OA
ENDBRANCH  21  22
ENDBRANCH  16  21
ENDBRANCH   2  16
TORSDOF 8
ENDMDL
MODEL 3
REMARK VINA RESULT:      -6.5      7.732     10.377
REMARK  8 active torsions:
REMARK  status: ('A' for Active; 'I' for Inactive)
REMARK    1  A    between atoms: C_2  and  C_6 
REMARK    2  A    between atoms: C_4  and  C_5 
REMARK    3  A    between atoms: C_5  and  C_6 
REMARK    4  A    between atoms: C_6  and  N_10 
REMARK       I    between atoms: N_10  and  C_11 
REMARK    5  A    between atoms: C_11  and  C_18 
REMARK    6  A    between atoms: N_16  and  C_18 
REMARK    7  A    between atoms: C_18  and  C_24 
REMARK    8  A    between atoms: C_23  and  C_24 
ROOT
HETATM    1  N           1     -21.111  -7.614  -1.881  0.00  0.00    -0.344 N 
HETATM    2  C           1     -21.730  -6.795  -2.787  0.00  0.00     0.249 C 
HETATM    3  O           1     -22.175  -5.728  -2.432  0.00  0.00    -0.271 OA
HETATM    4  H           1     -20.114  -7.536  -1.727  0.00  0.00     0.163 HD
ENDROOT
BRANCH   1   5
HETATM    5  C           1     -21.886  -8.593  -1.143  0.00  0.00     0.189 C 
BRANCH   5   6
HETATM    6  C           1     -22.304  -8.006   0.183  0.00  0.00     0.197 C 
HETATM    7  O           1     -23.455  -7.541   0.325  0.00  0.00    -0.646 OA
HETATM    8  O           1     -21.499  -7.985   1.138  0.00  0.00    -0.646 OA
ENDBRANCH   5   6
BRANCH   5   9
HETATM    9  C           1     -21.036  -9.835  -0.903  0.00  0.00     0.074 C 
BRANCH   9  10
HETATM   10  C           1     -21.916 -10.963  -0.461  0.00  0.00    -0.056 A 
HETATM   11  C           1     -23.119 -11.209  -1.121  0.00  0.00     0.007 A 
HETATM   12  C           1     -23.939 -12.260  -0.709  0.00  0.00     0.001 A 
HETATM   13  C           1     -23.554 -13.065   0.364  0.00  0.00     0.000 A 
HETATM   14  C           1     -22.352 -12.817   1.024  0.00  0.00     0.001 A 
HETATM   15  C           1     -21.531 -11.767   0.612  0.00  0.00     0.007 A 
ENDBRANCH   9  10
ENDBRANCH   5   9
ENDBRANCH   1   5
BRANCH   2  16
HETATM   16  C           1     -21.856  -7.223  -4.229  0.00  0.00     0.284 C 
BRANCH  16  17
HETATM   17  N           1     -22.709  -6.235  -4.968  0.00  0.00    -0.066 N 
HETATM   18  H           1     -22.194  -5.331  -5.062  0.00  0.00     0.275 HD
HETATM   19  H           1     -22.929  -6.609  -5.919  0.00  0.00     0.275 HD
HETATM   20  H           1     -23.597  -6.076  -4.441  0.00  0.00     0.275 HD
ENDBRANCH  16  17
BRANCH  16  21
HETATM   21  C           1     -20.474  -7.274  -4.866  0.00  0.00     0.155 C 
BRANCH  21  22
HETATM   22  C           1     -20.347  -6.173  -5.888  0.00  0.00     0.175 C 
HETATM   23  O           1     -20.124  -5.000  -5.519  0.00  0.00    -0.648 OA
HETATM   24  O           1     -20.463  -6.433  -7.105  0.00  0.00    -0.648 OA
ENDBRANCH  21  22
ENDBRANCH  16  21
ENDBRANCH   2  16
TORSDOF 8
ENDMDL
MODEL 4
REMARK VINA RESULT:      -6.5      3.322      5.070
REMARK  8 active torsions:
REMARK  status: ('A' for Active; 'I' for Inactive)
REMARK    1  A    between atoms: C_2  and  C_6 
REMARK    2  A    between atoms: C_4  and  C_5 
REMARK    3  A    between atoms: C_5  and  C_6 
REMARK    4  A    between atoms: C_6  and  N_10 
REMARK       I    between atoms: N_10  and  C_11 
REMARK    5  A    between atoms: C_11  and  C_18 
REMARK    6  A    between atoms: N_16  and  C_18 
REMARK    7  A    between atoms: C_18  and  C_24 
REMARK    8  A    between atoms: C_23  and  C_24 
ROOT
HETATM    1  N           1     -21.254  -5.880  -7.970  0.00  0.00    -0.344 N 
HETATM    2  C           1     -21.607  -4.748  -8.654  0.00  0.00     0.249 C 
HETATM    3  O           1     -20.757  -3.969  -9.014  0.00  0.00    -0.271 OA
HETATM    4  H           1     -21.046  -6.733  -8.475  0.00  0.00     0.163 HD
ENDROOT
BRANCH   1   5
HETATM    5  C           1     -21.177  -5.858  -6.522  0.00  0.00     0.189 C 
BRANCH   5   6
HETATM    6  C           1     -19.938  -5.108  -6.097  0.00  0.00     0.197 C 
HETATM    7  O           1     -19.972  -4.357  -5.098  0.00  0.00    -0.646 OA
HETATM    8  O           1     -18.877  -5.237  -6.745  0.00  0.00    -0.646 OA
ENDBRANCH   5   6
BRANCH   5   9
HETATM    9  C           1     -21.113  -7.285  -5.995  0.00  0.00     0.074 C 
BRANCH   9  10
HETATM   10  C           1     -21.187  -7.269  -4.500  0.00  0.00    -0.056 A 
HETATM   11  C           1     -20.337  -8.081  -3.750  0.00  0.00     0.007 A 
HETATM   12  C           1     -20.407  -8.065  -2.356  0.00  0.00     0.001 A 
HETATM   13  C           1     -21.328  -7.237  -1.714  0.00  0.00     0.000 A 
HETATM   14  C           1     -22.178  -6.426  -2.464  0.00  0.00     0.001 A 
HETATM   15  C           1     -22.108  -6.441  -3.858  0.00  0.00     0.007 A 
ENDBRANCH   9  10
ENDBRANCH   5   9
ENDBRANCH   1   5
BRANCH   2  16
HETATM   16  C           1     -23.060  -4.473  -8.959  0.00  0.00     0.284 C 
BRANCH  16  17
HETATM   17  N           1     -23.770  -4.086  -7.696  0.00  0.00    -0.066 N 
HETATM   18  H           1     -24.068  -4.948  -7.186  0.00  0.00     0.275 HD
HETATM   19  H           1     -23.125  -3.530  -7.091  0.00  0.00     0.275 HD
HETATM   20  H           1     -24.612  -3.512  -7.930  0.00  0.00     0.275 HD
ENDBRANCH  16  17
BRANCH  16  21
HETATM   21  C           1     -23.161  -3.335  -9.966  0.00  0.00     0.155 C 
BRANCH  21  22
HETATM   22  C           1     -24.535  -3.330 -10.587  0.00  0.00     0.175 C 
HETATM   23  O           1     -24.663  -3.429 -11.826  0.00  0.00    -0.648 OA
HETATM   24  O           1     -25.548  -3.228  -9.861  0.00  0.00    -0.648 OA
ENDBRANCH  21  22
ENDBRANCH  16  21
ENDBRANCH   2  16
TORSDOF 8
ENDMDL
MODEL 5
REMARK VINA RESULT:      -6.3      4.684      6.783
REMARK  8 active torsions:
REMARK  status: ('A' for Active; 'I' for Inactive)
REMARK    1  A    between atoms: C_2  and  C_6 
REMARK    2  A    between atoms: C_4  and  C_5 
REMARK    3  A    between atoms: C_5  and  C_6 
REMARK    4  A    between atoms: C_6  and  N_10 
REMARK       I    between atoms: N_10  and  C_11 
REMARK    5  A    between atoms: C_11  and  C_18 
REMARK    6  A    between atoms: N_16  and  C_18 
REMARK    7  A    between atoms: C_18  and  C_24 
REMARK    8  A    between atoms: C_23  and  C_24 
ROOT
HETATM    1  N           1     -19.676  -7.067  -6.627  0.00  0.00    -0.344 N 
HETATM    2  C           1     -20.058  -5.784  -6.917  0.00  0.00     0.249 C 
HETATM    3  O           1     -19.269  -4.877  -6.799  0.00  0.00    -0.271 OA
HETATM    4  H           1     -19.281  -7.653  -7.351  0.00  0.00     0.163 HD
ENDROOT
BRANCH   1   5
HETATM    5  C           1     -19.838  -7.584  -5.282  0.00  0.00     0.189 C 
BRANCH   5   6
HETATM    6  C           1     -19.053  -8.865  -5.139  0.00  0.00     0.197 C 
HETATM    7  O           1     -18.381  -9.075  -4.107  0.00  0.00    -0.646 OA
HETATM    8  O           1     -19.075  -9.716  -6.054  0.00  0.00    -0.646 OA
ENDBRANCH   5   6
BRANCH   5   9
HETATM    9  C           1     -21.313  -7.861  -5.020  0.00  0.00     0.074 C 
BRANCH   9  10
HETATM   10  C           1     -21.609  -7.652  -3.567  0.00  0.00    -0.056 A 
HETATM   11  C           1     -21.622  -8.740  -2.695  0.00  0.00     0.007 A 
HETATM   12  C           1     -21.898  -8.545  -1.341  0.00  0.00     0.001 A 
HETATM   13  C           1     -22.160  -7.262  -0.860  0.00  0.00     0.000 A 
HETATM   14  C           1     -22.147  -6.175  -1.733  0.00  0.00     0.001 A 
HETATM   15  C           1     -21.871  -6.369  -3.087  0.00  0.00     0.007 A 
ENDBRANCH   9  10
ENDBRANCH   5   9
ENDBRANCH   1   5
BRANCH   2  16
HETATM   16  C           1     -21.466  -5.504  -7.386  0.00  0.00     0.284 C 
BRANCH  16  17
HETATM   17  N           1     -22.218  -4.788  -6.303  0.00  0.00    -0.066 N 
HETATM   18  H           1     -21.924  -3.785  -6.280  0.00  0.00     0.275 HD
HETATM   19  H           1     -23.243  -4.845  -6.496  0.00  0.00     0.275 HD
HETATM   20  H           1     -22.010  -5.233  -5.381  0.00  0.00     0.275 HD
ENDBRANCH  16  17
BRANCH  16  21
HETATM   21  C           1     -21.421  -4.631  -8.633  0.00  0.00     0.155 C 
BRANCH  21  22
HETATM   22  C           1     -22.812  -4.481  -9.195  0.00  0.00     0.175 C 
HETATM   23  O           1     -23.635  -3.727  -8.634  0.00  0.00    -0.648 OA
HETATM   24  O           1     -23.142  -5.110 -10.224  0.00  0.00    -0.648 OA
ENDBRANCH  21  22
ENDBRANCH  16  21
ENDBRANCH   2  16
TORSDOF 8
ENDMDL
MODEL 6
REMARK VINA RESULT:      -6.3      4.865      8.383
REMARK  8 active torsions:
REMARK  status: ('A' for Active; 'I' for Inactive)
REMARK    1  A    between atoms: C_2  and  C_6 
REMARK    2  A    between atoms: C_4  and  C_5 
REMARK    3  A    between atoms: C_5  and  C_6 
REMARK    4  A    between atoms: C_6  and  N_10 
REMARK       I    between atoms: N_10  and  C_11 
REMARK    5  A    between atoms: C_11  and  C_18 
REMARK    6  A    between atoms: N_16  and  C_18 
REMARK    7  A    between atoms: C_18  and  C_24 
REMARK    8  A    between atoms: C_23  and  C_24 
ROOT
HETATM    1  N           1     -22.200  -5.641  -5.704  0.00  0.00    -0.344 N 
HETATM    2  C           1     -21.602  -6.390  -4.726  0.00  0.00     0.249 C 
HETATM    3  O           1     -20.864  -5.864  -3.928  0.00  0.00    -0.271 OA
HETATM    4  H           1     -23.102  -5.214  -5.534  0.00  0.00     0.163 HD
ENDROOT
BRANCH   1   5
HETATM    5  C           1     -21.540  -5.460  -6.983  0.00  0.00     0.189 C 
BRANCH   5   6
HETATM    6  C           1     -20.045  -5.541  -6.791  0.00  0.00     0.197 C 
HETATM    7  O           1     -19.442  -6.613  -7.017  0.00  0.00    -0.646 OA
HETATM    8  O           1     -19.409  -4.536  -6.407  0.00  0.00    -0.646 OA
ENDBRANCH   5   6
BRANCH   5   9
HETATM    9  C           1     -21.905  -4.096  -7.553  0.00  0.00     0.074 C 
BRANCH   9  10
HETATM   10  C           1     -21.953  -4.177  -9.047  0.00  0.00    -0.056 A 
HETATM   11  C           1     -20.799  -3.948  -9.796  0.00  0.00     0.007 A 
HETATM   12  C           1     -20.845  -4.023 -11.189  0.00  0.00     0.001 A 
HETATM   13  C           1     -22.045  -4.328 -11.831  0.00  0.00     0.000 A 
HETATM   14  C           1     -23.198  -4.556 -11.082  0.00  0.00     0.001 A 
HETATM   15  C           1     -23.154  -4.481  -9.690  0.00  0.00     0.007 A 
ENDBRANCH   9  10
ENDBRANCH   5   9
ENDBRANCH   1   5
BRANCH   2  16
HETATM   16  C           1     -21.867  -7.874  -4.645  0.00  0.00     0.284 C 
BRANCH  16  17
HETATM   17  N           1     -21.061  -8.582  -5.694  0.00  0.00    -0.066 N 
HETATM   18  H           1     -21.417  -8.320  -6.641  0.00  0.00     0.275 HD
HETATM   19  H           1     -20.058  -8.302  -5.610  0.00  0.00     0.275 HD
HETATM   20  H           1     -21.149  -9.615  -5.564  0.00  0.00     0.275 HD
ENDBRANCH  16  17
BRANCH  16  21
HETATM   21  C           1     -21.467  -8.387  -3.268  0.00  0.00     0.155 C 
BRANCH  21  22
HETATM   22  C           1     -20.318  -9.355  -3.403  0.00  0.00     0.175 C 
HETATM   23  O           1     -20.542 -10.579  -3.515  0.00  0.00    -0.648 OA
HETATM   24  O           1     -19.141  -8.933  -3.405  0.00  0.00    -0.648 OA
ENDBRANCH  21  22
ENDBRANCH  16  21
ENDBRANCH   2  16
TORSDOF 8
ENDMDL
MODEL 7
REMARK VINA RESULT:      -6.3      6.927     10.458
REMARK  8 active torsions:
REMARK  status: ('A' for Active; 'I' for Inactive)
REMARK    1  A    between atoms: C_2  and  C_6 
REMARK    2  A    between atoms: C_4  and  C_5 
REMARK    3  A    between atoms: C_5  and  C_6 
REMARK    4  A    between atoms: C_6  and  N_10 
REMARK       I    between atoms: N_10  and  C_11 
REMARK    5  A    between atoms: C_11  and  C_18 
REMARK    6  A    between atoms: N_16  and  C_18 
REMARK    7  A    between atoms: C_18  and  C_24 
REMARK    8  A    between atoms: C_23  and  C_24 
ROOT
HETATM    1  N           1     -21.658  -7.664  -3.889  0.00  0.00    -0.344 N 
HETATM    2  C           1     -21.733  -7.043  -2.671  0.00  0.00     0.249 C 
HETATM    3  O           1     -22.069  -5.885  -2.602  0.00  0.00    -0.271 OA
HETATM    4  H           1     -22.468  -8.139  -4.266  0.00  0.00     0.163 HD
ENDROOT
BRANCH   1   5
HETATM    5  C           1     -20.417  -7.638  -4.640  0.00  0.00     0.189 C 
BRANCH   5   6
HETATM    6  C           1     -20.594  -6.785  -5.872  0.00  0.00     0.197 C 
HETATM    7  O           1     -21.611  -6.068  -5.997  0.00  0.00    -0.646 OA
HETATM    8  O           1     -19.724  -6.796  -6.769  0.00  0.00    -0.646 OA
ENDBRANCH   5   6
BRANCH   5   9
HETATM    9  C           1     -20.045  -9.056  -5.053  0.00  0.00     0.074 C 
BRANCH   9  10
HETATM   10  C           1     -18.640  -9.347  -4.625  0.00  0.00    -0.056 A 
HETATM   11  C           1     -18.294  -9.279  -3.276  0.00  0.00     0.007 A 
HETATM   12  C           1     -16.984  -9.551  -2.877  0.00  0.00     0.001 A 
HETATM   13  C           1     -16.022  -9.890  -3.828  0.00  0.00     0.000 A 
HETATM   14  C           1     -16.369  -9.957  -5.177  0.00  0.00     0.001 A 
HETATM   15  C           1     -17.678  -9.686  -5.576  0.00  0.00     0.007 A 
ENDBRANCH   9  10
ENDBRANCH   5   9
ENDBRANCH   1   5
BRANCH   2  16
HETATM   16  C           1     -21.398  -7.808  -1.413  0.00  0.00     0.284 C 
BRANCH  16  17
HETATM   17  N           1     -22.214  -7.273  -0.273  0.00  0.00    -0.066 N 
HETATM   18  H           1     -22.869  -8.014   0.064  0.00  0.00     0.275 HD
HETATM   19  H           1     -21.578  -6.991   0.507  0.00  0.00     0.275 HD
HETATM   20  H           1     -22.762  -6.444  -0.595  0.00  0.00     0.275 HD
ENDBRANCH  16  17
BRANCH  16  21
HETATM   21  C           1     -21.717  -9.283  -1.615  0.00  0.00     0.155 C 
BRANCH  21  22
HETATM   22  C           1     -22.289  -9.856  -0.343  0.00  0.00     0.175 C 
HETATM   23  O           1     -23.524 -10.005  -0.223  0.00  0.00    -0.648 OA
HETATM   24  O           1     -21.527 -10.183   0.594  0.00  0.00    -0.648 OA
ENDBRANCH  21  22
ENDBRANCH  16  21
ENDBRANCH   2  16
TORSDOF 8
ENDMDL
MODEL 8
REMARK VINA RESULT:      -6.2      5.966      8.322
REMARK  8 active torsions:
REMARK  status: ('A' for Active; 'I' for Inactive)
REMARK    1  A    between atoms: C_2  and  C_6 
REMARK    2  A    between atoms: C_4  and  C_5 
REMARK    3  A    between atoms: C_5  and  C_6 
REMARK    4  A    between atoms: C_6  and  N_10 
REMARK       I    between atoms: N_10  and  C_11 
REMARK    5  A    between atoms: C_11  and  C_18 
REMARK    6  A    between atoms: N_16  and  C_18 
REMARK    7  A    between atoms: C_18  and  C_24 
REMARK    8  A    between atoms: C_23  and  C_24 
ROOT
HETATM    1  N           1     -20.438  -8.686  -5.337  0.00  0.00    -0.344 N 
HETATM    2  C           1     -20.271  -7.476  -5.955  0.00  0.00     0.249 C 
HETATM    3  O           1     -19.193  -7.174  -6.411  0.00  0.00    -0.271 OA
HETATM    4  H           1     -20.723  -9.494  -5.874  0.00  0.00     0.163 HD
ENDROOT
BRANCH   1   5
HETATM    5  C           1     -20.207  -8.807  -3.910  0.00  0.00     0.189 C 
BRANCH   5   6
HETATM    6  C           1     -18.857  -9.440  -3.673  0.00  0.00     0.197 C 
HETATM    7  O           1     -18.209  -9.161  -2.641  0.00  0.00    -0.646 OA
HETATM    8  O           1     -18.387 -10.241  -4.508  0.00  0.00    -0.646 OA
ENDBRANCH   5   6
BRANCH   5   9
HETATM    9  C           1     -21.292  -9.681  -3.293  0.00  0.00     0.074 C 
BRANCH   9  10
HETATM   10  C           1     -21.822  -9.021  -2.058  0.00  0.00    -0.056 A 
HETATM   11  C           1     -22.378  -9.792  -1.039  0.00  0.00     0.007 A 
HETATM   12  C           1     -22.872  -9.176   0.112  0.00  0.00     0.001 A 
HETATM   13  C           1     -22.808  -7.788   0.242  0.00  0.00     0.000 A 
HETATM   14  C           1     -22.252  -7.018  -0.778  0.00  0.00     0.001 A 
HETATM   15  C           1     -21.758  -7.633  -1.929  0.00  0.00     0.007 A 
ENDBRANCH   9  10
ENDBRANCH   5   9
ENDBRANCH   1   5
BRANCH   2  16
HETATM   16  C           1     -21.433  -6.519  -6.069  0.00  0.00     0.284 C 
BRANCH  16  17
HETATM   17  N           1     -21.420  -5.579  -4.901  0.00  0.00    -0.066 N 
HETATM   18  H           1     -22.403  -5.348  -4.629  0.00  0.00     0.275 HD
HETATM   19  H           1     -20.934  -6.032  -4.095  0.00  0.00     0.275 HD
HETATM   20  H           1     -20.918  -4.701  -5.165  0.00  0.00     0.275 HD
ENDBRANCH  16  17
BRANCH  16  21
HETATM   21  C           1     -21.311  -5.724  -7.362  0.00  0.00     0.155 C 
BRANCH  21  22
HETATM   22  C           1     -22.047  -4.415  -7.221  0.00  0.00     0.175 C 
HETATM   23  O           1     -21.409  -3.345  -7.134  0.00  0.00    -0.648 OA
HETATM   24  O           1     -23.297  -4.401  -7.194  0.00  0.00    -0.648 OA
ENDBRANCH  21  22
ENDBRANCH  16  21
ENDBRANCH   2  16
TORSDOF 8
ENDMDL
MODEL 9
REMARK VINA RESULT:      -6.2      9.455     11.569
REMARK  8 active torsions:
REMARK  status: ('A' for Active; 'I' for Inactive)
REMARK    1  A    between atoms: C_2  and  C_6 
REMARK    2  A    between atoms: C_4  and  C_5 
REMARK    3  A    between atoms: C_5  and  C_6 
REMARK    4  A    between atoms: C_6  and  N_10 
REMARK       I    between atoms: N_10  and  C_11 
REMARK    5  A    between atoms: C_11  and  C_18 
REMARK    6  A    between atoms: N_16  and  C_18 
REMARK    7  A    between atoms: C_18  and  C_24 
REMARK    8  A    between atoms: C_23  and  C_24 
ROOT
HETATM    1  N           1     -20.098  -8.163  -2.389  0.00  0.00    -0.344 N 
HETATM    2  C           1     -19.883  -8.892  -3.529  0.00  0.00     0.249 C 
HETATM    3  O           1     -20.093  -8.397  -4.611  0.00  0.00    -0.271 OA
HETATM    4  H           1     -19.351  -7.604  -1.997  0.00  0.00     0.163 HD
ENDROOT
BRANCH   1   5
HETATM    5  C           1     -21.398  -8.193  -1.746  0.00  0.00     0.189 C 
BRANCH   5   6
HETATM    6  C           1     -22.025  -6.822  -1.817  0.00  0.00     0.197 C 
HETATM    7  O           1     -22.657  -6.372  -0.838  0.00  0.00    -0.646 OA
HETATM    8  O           1     -21.911  -6.137  -2.856  0.00  0.00    -0.646 OA
ENDBRANCH   5   6
BRANCH   5   9
HETATM    9  C           1     -21.232  -8.600  -0.287  0.00  0.00     0.074 C 
BRANCH   9  10
HETATM   10  C           1     -21.962  -9.884  -0.041  0.00  0.00    -0.056 A 
HETATM   11  C           1     -23.331  -9.966  -0.291  0.00  0.00     0.007 A 
HETATM   12  C           1     -24.011 -11.163  -0.061  0.00  0.00     0.001 A 
HETATM   13  C           1     -23.320 -12.277   0.417  0.00  0.00     0.000 A 
HETATM   14  C           1     -21.951 -12.194   0.666  0.00  0.00     0.001 A 
HETATM   15  C           1     -21.271 -10.997   0.437  0.00  0.00     0.007 A 
ENDBRANCH   9  10
ENDBRANCH   5   9
ENDBRANCH   1   5
BRANCH   2  16
HETATM   16  C           1     -19.381 -10.312  -3.433  0.00  0.00     0.284 C 
BRANCH  16  17
HETATM   17  N           1     -18.569 -10.636  -4.651  0.00  0.00    -0.066 N 
HETATM   18  H           1     -18.757  -9.926  -5.395  0.00  0.00     0.275 HD
HETATM   19  H           1     -17.553 -10.621  -4.406  0.00  0.00     0.275 HD
HETATM   20  H           1     -18.830 -11.585  -5.003  0.00  0.00     0.275 HD
ENDBRANCH  16  17
BRANCH  16  21
HETATM   21  C           1     -18.513 -10.461  -2.191  0.00  0.00     0.155 C 
BRANCH  21  22
HETATM   22  C           1     -17.057 -10.407  -2.583  0.00  0.00     0.175 C 
HETATM   23  O           1     -16.414 -11.465  -2.748  0.00  0.00    -0.648 OA
HETATM   24  O           1     -16.493  -9.302  -2.743  0.00  0.00    -0.648 OA
ENDBRANCH  21  22
ENDBRANCH  16  21
ENDBRANCH   2  16
TORSDOF 8
ENDMDL
