MODEL 1
REMARK VINA RESULT:      -5.9      0.000      0.000
REMARK  9 active torsions:
REMARK  status: ('A' for Active; 'I' for Inactive)
REMARK    1  A    between atoms: C_1  and  C_2 
REMARK    2  A    between atoms: C_1  and  C_8 
REMARK    3  A    between atoms: C_1  and  N_14 
REMARK       I    between atoms: C_2  and  N_3 
REMARK    4  A    between atoms: N_3  and  C_21 
REMARK    5  A    between atoms: Se_6  and  C_7 
REMARK    6  A    between atoms: C_7  and  C_8 
REMARK    7  A    between atoms: C_10  and  C_21 
REMARK    8  A    between atoms: C_18  and  C_20 
REMARK    9  A    between atoms: C_20  and  C_21 
ROOT
HETATM    1  C           1     -21.691  -4.687  -7.714  0.00  0.00     0.249 C 
HETATM    2  N           1     -22.292  -4.877  -8.929  0.00  0.00    -0.344 N 
HETATM    3  O           1     -21.587  -3.573  -7.260  0.00  0.00    -0.271 OA
HETATM    4  H           1     -22.379  -5.811  -9.310  0.00  0.00     0.163 HD
ENDROOT
BRANCH   1   5
HETATM    5  C           1     -21.154  -5.869  -6.945  0.00  0.00     0.274 C 
BRANCH   5   6
HETATM    6  C           1     -21.186  -5.562  -5.454  0.00  0.00     0.042 C 
BRANCH   6   7
HETATM    7  C           1     -22.150  -6.513  -4.758  0.00  0.00     0.003 C 
BRANCH   7   8
HETATM    8 Se           1     -21.266  -7.330  -3.225  0.00  0.00     0.000 Se
HETATM    9  C           1     -22.197  -6.246  -1.901  0.00  0.00     0.000 C 
ENDBRANCH   7   8
ENDBRANCH   6   7
ENDBRANCH   5   6
BRANCH   5  10
HETATM   10  N           1     -19.742  -6.143  -7.368  0.00  0.00    -0.067 N 
HETATM   11  H           1     -19.556  -7.170  -7.320  0.00  0.00     0.275 HD
HETATM   12  H           1     -19.603  -5.810  -8.349  0.00  0.00     0.275 HD
HETATM   13  H           1     -19.084  -5.639  -6.732  0.00  0.00     0.275 HD
ENDBRANCH   5  10
ENDBRANCH   1   5
BRANCH   2  14
HETATM   14  C           1     -22.808  -3.742  -9.668  0.00  0.00     0.195 C 
BRANCH  14  15
HETATM   15  C           1     -24.315  -3.797  -9.689  0.00  0.00     0.197 C 
HETATM   16  O           1     -24.898  -4.885  -9.887  0.00  0.00    -0.646 OA
HETATM   17  O           1     -24.982  -2.755  -9.507  0.00  0.00    -0.646 OA
ENDBRANCH  14  15
BRANCH  14  18
HETATM   18  C           1     -22.277  -3.783 -11.095  0.00  0.00     0.149 C 
BRANCH  18  19
HETATM   19  C           1     -20.774  -3.661 -11.078  0.00  0.00     0.175 C 
HETATM   20  O           1     -20.067  -4.670 -10.865  0.00  0.00    -0.648 OA
HETATM   21  O           1     -20.234  -2.550 -11.277  0.00  0.00    -0.648 OA
ENDBRANCH  18  19
ENDBRANCH  14  18
ENDBRANCH   2  14
TORSDOF 9
ENDMDL
MODEL 2
REMARK VINA RESULT:      -5.7      1.739      3.168
REMARK  9 active torsions:
REMARK  status: ('A' for Active; 'I' for Inactive)
REMARK    1  A    between atoms: C_1  and  C_2 
REMARK    2  A    between atoms: C_1  and  C_8 
REMARK    3  A    between atoms: C_1  and  N_14 
REMARK       I    between atoms: C_2  and  N_3 
REMARK    4  A    between atoms: N_3  and  C_21 
REMARK    5  A    between atoms: Se_6  and  C_7 
REMARK    6  A    between atoms: C_7  and  C_8 
REMARK    7  A    between atoms: C_10  and  C_21 
REMARK    8  A    between atoms: C_18  and  C_20 
REMARK    9  A    between atoms: C_20  and  C_21 
ROOT
HETATM    1  C           1     -20.675  -4.351  -9.078  0.00  0.00     0.249 C 
HETATM    2  N           1     -21.815  -3.893  -9.681  0.00  0.00    -0.344 N 
HETATM    3  O           1     -19.968  -5.147  -9.648  0.00  0.00    -0.271 OA
HETATM    4  H           1     -22.407  -3.226  -9.204  0.00  0.00     0.163 HD
ENDROOT
BRANCH   1   5
HETATM    5  C           1     -20.302  -3.862  -7.700  0.00  0.00     0.274 C 
BRANCH   5   6
HETATM    6  C           1     -19.793  -5.031  -6.867  0.00  0.00     0.042 C 
BRANCH   6   7
HETATM    7  C           1     -20.359  -4.935  -5.456  0.00  0.00     0.003 C 
BRANCH   7   8
HETATM    8 Se           1     -21.520  -6.464  -5.115  0.00  0.00     0.000 Se
HETATM    9  C           1     -21.490  -6.263  -3.177  0.00  0.00     0.000 C 
ENDBRANCH   7   8
ENDBRANCH   6   7
ENDBRANCH   5   6
BRANCH   5  10
HETATM   10  N           1     -21.509  -3.265  -7.038  0.00  0.00    -0.067 N 
HETATM   11  H           1     -22.121  -2.825  -7.761  0.00  0.00     0.275 HD
HETATM   12  H           1     -22.040  -4.017  -6.543  0.00  0.00     0.275 HD
HETATM   13  H           1     -21.206  -2.540  -6.349  0.00  0.00     0.275 HD
ENDBRANCH   5  10
ENDBRANCH   1   5
BRANCH   2  14
HETATM   14  C           1     -22.173  -4.363 -11.006  0.00  0.00     0.195 C 
BRANCH  14  15
HETATM   15  C           1     -22.041  -3.230 -11.993  0.00  0.00     0.197 C 
HETATM   16  O           1     -22.611  -3.300 -13.104  0.00  0.00    -0.646 OA
HETATM   17  O           1     -21.362  -2.221 -11.702  0.00  0.00    -0.646 OA
ENDBRANCH  14  15
BRANCH  14  18
HETATM   18  C           1     -23.611  -4.863 -10.995  0.00  0.00     0.149 C 
BRANCH  18  19
HETATM   19  C           1     -24.437  -4.002 -10.070  0.00  0.00     0.175 C 
HETATM   20  O           1     -25.285  -3.214 -10.542  0.00  0.00    -0.648 OA
HETATM   21  O           1     -24.274  -4.078  -8.833  0.00  0.00    -0.648 OA
ENDBRANCH  18  19
ENDBRANCH  14  18
ENDBRANCH   2  14
TORSDOF 9
ENDMDL
MODEL 3
REMARK VINA RESULT:      -5.4     11.262     13.103
REMARK  9 active torsions:
REMARK  status: ('A' for Active; 'I' for Inactive)
REMARK    1  A    between atoms: C_1  and  C_2 
REMARK    2  A    between atoms: C_1  and  C_8 
REMARK    3  A    between atoms: C_1  and  N_14 
REMARK       I    between atoms: C_2  and  N_3 
REMARK    4  A    between atoms: N_3  and  C_21 
REMARK    5  A    between atoms: Se_6  and  C_7 
REMARK    6  A    between atoms: C_7  and  C_8 
REMARK    7  A    between atoms: C_10  and  C_21 
REMARK    8  A    between atoms: C_18  and  C_20 
REMARK    9  A    between atoms: C_20  and  C_21 
ROOT
HETATM    1  C           1     -27.090  -6.429 -17.486  0.00  0.00     0.249 C 
HETATM    2  N           1     -28.067  -6.810 -18.365  0.00  0.00    -0.344 N 
HETATM    3  O           1     -27.371  -6.193 -16.335  0.00  0.00    -0.271 OA
HETATM    4  H           1     -27.832  -7.008 -19.329  0.00  0.00     0.163 HD
ENDROOT
BRANCH   1   5
HETATM    5  C           1     -25.661  -6.303 -17.956  0.00  0.00     0.274 C 
BRANCH   5   6
HETATM    6  C           1     -25.577  -6.667 -19.432  0.00  0.00     0.042 C 
BRANCH   6   7
HETATM    7  C           1     -24.261  -7.381 -19.706  0.00  0.00     0.003 C 
BRANCH   7   8
HETATM    8 Se           1     -24.223  -7.989 -21.558  0.00  0.00     0.000 Se
HETATM    9  C           1     -22.390  -8.644 -21.478  0.00  0.00     0.000 C 
ENDBRANCH   7   8
ENDBRANCH   6   7
ENDBRANCH   5   6
BRANCH   5  10
HETATM   10  N           1     -24.790  -7.231 -17.162  0.00  0.00    -0.067 N 
HETATM   11  H           1     -25.376  -7.760 -16.478  0.00  0.00     0.275 HD
HETATM   12  H           1     -24.319  -7.903 -17.809  0.00  0.00     0.275 HD
HETATM   13  H           1     -24.069  -6.677 -16.648  0.00  0.00     0.275 HD
ENDBRANCH   5  10
ENDBRANCH   1   5
BRANCH   2  14
HETATM   14  C           1     -29.440  -6.931 -17.915  0.00  0.00     0.195 C 
BRANCH  14  15
HETATM   15  C           1     -30.146  -7.986 -18.730  0.00  0.00     0.197 C 
HETATM   16  O           1     -31.395  -8.012 -18.773  0.00  0.00    -0.646 OA
HETATM   17  O           1     -29.481  -8.835 -19.365  0.00  0.00    -0.646 OA
ENDBRANCH  14  15
BRANCH  14  18
HETATM   18  C           1     -30.151  -5.596 -18.087  0.00  0.00     0.149 C 
BRANCH  18  19
HETATM   19  C           1     -30.892  -5.252 -16.819  0.00  0.00     0.175 C 
HETATM   20  O           1     -30.299  -5.286 -15.719  0.00  0.00    -0.648 OA
HETATM   21  O           1     -32.100  -4.932 -16.867  0.00  0.00    -0.648 OA
ENDBRANCH  18  19
ENDBRANCH  14  18
ENDBRANCH   2  14
TORSDOF 9
ENDMDL
MODEL 4
REMARK VINA RESULT:      -5.3      1.699      2.046
REMARK  9 active torsions:
REMARK  status: ('A' for Active; 'I' for Inactive)
REMARK    1  A    between atoms: C_1  and  C_2 
REMARK    2  A    between atoms: C_1  and  C_8 
REMARK    3  A    between atoms: C_1  and  N_14 
REMARK       I    between atoms: C_2  and  N_3 
REMARK    4  A    between atoms: N_3  and  C_21 
REMARK    5  A    between atoms: Se_6  and  C_7 
REMARK    6  A    between atoms: C_7  and  C_8 
REMARK    7  A    between atoms: C_10  and  C_21 
REMARK    8  A    between atoms: C_18  and  C_20 
REMARK    9  A    between atoms: C_20  and  C_21 
ROOT
HETATM    1  C           1     -22.162  -4.143  -7.643  0.00  0.00     0.249 C 
HETATM    2  N           1     -22.938  -4.443  -8.730  0.00  0.00    -0.344 N 
HETATM    3  O           1     -21.475  -3.149  -7.648  0.00  0.00    -0.271 OA
HETATM    4  H           1     -23.513  -5.275  -8.726  0.00  0.00     0.163 HD
ENDROOT
BRANCH   1   5
HETATM    5  C           1     -22.161  -5.055  -6.441  0.00  0.00     0.274 C 
BRANCH   5   6
HETATM    6  C           1     -21.363  -6.312  -6.758  0.00  0.00     0.042 C 
BRANCH   6   7
HETATM    7  C           1     -20.310  -6.531  -5.680  0.00  0.00     0.003 C 
BRANCH   7   8
HETATM    8 Se           1     -20.807  -8.066  -4.586  0.00  0.00     0.000 Se
HETATM    9  C           1     -19.144  -9.033  -4.895  0.00  0.00     0.000 C 
ENDBRANCH   7   8
ENDBRANCH   6   7
ENDBRANCH   5   6
BRANCH   5  10
HETATM   10  N           1     -23.572  -5.433  -6.100  0.00  0.00    -0.067 N 
HETATM   11  H           1     -24.211  -4.636  -6.324  0.00  0.00     0.275 HD
HETATM   12  H           1     -23.852  -6.270  -6.658  0.00  0.00     0.275 HD
HETATM   13  H           1     -23.637  -5.654  -5.081  0.00  0.00     0.275 HD
ENDBRANCH   5  10
ENDBRANCH   1   5
BRANCH   2  14
HETATM   14  C           1     -22.938  -3.566  -9.885  0.00  0.00     0.195 C 
BRANCH  14  15
HETATM   15  C           1     -24.360  -3.239 -10.267  0.00  0.00     0.197 C 
HETATM   16  O           1     -24.711  -3.282 -11.467  0.00  0.00    -0.646 OA
HETATM   17  O           1     -25.189  -2.925  -9.385  0.00  0.00    -0.646 OA
ENDBRANCH  14  15
BRANCH  14  18
HETATM   18  C           1     -22.246  -4.262 -11.050  0.00  0.00     0.149 C 
BRANCH  18  19
HETATM   19  C           1     -20.759  -4.016 -10.972  0.00  0.00     0.175 C 
HETATM   20  O           1     -20.276  -2.960 -11.435  0.00  0.00    -0.648 OA
HETATM   21  O           1     -20.010  -4.868 -10.446  0.00  0.00    -0.648 OA
ENDBRANCH  18  19
ENDBRANCH  14  18
ENDBRANCH   2  14
TORSDOF 9
ENDMDL
MODEL 5
REMARK VINA RESULT:      -5.2     10.933     13.166
REMARK  9 active torsions:
REMARK  status: ('A' for Active; 'I' for Inactive)
REMARK    1  A    between atoms: C_1  and  C_2 
REMARK    2  A    between atoms: C_1  and  C_8 
REMARK    3  A    between atoms: C_1  and  N_14 
REMARK       I    between atoms: C_2  and  N_3 
REMARK    4  A    between atoms: N_3  and  C_21 
REMARK    5  A    between atoms: Se_6  and  C_7 
REMARK    6  A    between atoms: C_7  and  C_8 
REMARK    7  A    between atoms: C_10  and  C_21 
REMARK    8  A    between atoms: C_18  and  C_20 
REMARK    9  A    between atoms: C_20  and  C_21 
ROOT
HETATM    1  C           1     -26.412  -6.427 -18.912  0.00  0.00     0.249 C 
HETATM    2  N           1     -26.733  -6.663 -17.603  0.00  0.00    -0.344 N 
HETATM    3  O           1     -27.242  -5.976 -19.666  0.00  0.00    -0.271 OA
HETATM    4  H           1     -26.038  -7.040 -16.972  0.00  0.00     0.163 HD
ENDROOT
BRANCH   1   5
HETATM    5  C           1     -25.022  -6.731 -19.415  0.00  0.00     0.274 C 
BRANCH   5   6
HETATM    6  C           1     -25.112  -7.602 -20.661  0.00  0.00     0.042 C 
BRANCH   6   7
HETATM    7  C           1     -23.774  -8.289 -20.899  0.00  0.00     0.003 C 
BRANCH   7   8
HETATM    8 Se           1     -23.318  -8.188 -22.792  0.00  0.00     0.000 Se
HETATM    9  C           1     -21.655  -9.187 -22.613  0.00  0.00     0.000 C 
ENDBRANCH   7   8
ENDBRANCH   6   7
ENDBRANCH   5   6
BRANCH   5  10
HETATM   10  N           1     -24.254  -7.459 -18.352  0.00  0.00    -0.067 N 
HETATM   11  H           1     -23.237  -7.452 -18.590  0.00  0.00     0.275 HD
HETATM   12  H           1     -24.399  -6.984 -17.432  0.00  0.00     0.275 HD
HETATM   13  H           1     -24.591  -8.446 -18.292  0.00  0.00     0.275 HD
ENDBRANCH   5  10
ENDBRANCH   1   5
BRANCH   2  14
HETATM   14  C           1     -28.069  -6.371 -17.120  0.00  0.00     0.195 C 
BRANCH  14  15
HETATM   15  C           1     -28.095  -6.480 -15.616  0.00  0.00     0.197 C 
HETATM   16  O           1     -28.522  -5.528 -14.926  0.00  0.00    -0.646 OA
HETATM   17  O           1     -27.691  -7.524 -15.057  0.00  0.00    -0.646 OA
ENDBRANCH  14  15
BRANCH  14  18
HETATM   18  C           1     -29.054  -7.365 -17.719  0.00  0.00     0.149 C 
BRANCH  18  19
HETATM   19  C           1     -30.410  -6.716 -17.848  0.00  0.00     0.175 C 
HETATM   20  O           1     -30.520  -5.475 -17.752  0.00  0.00    -0.648 OA
HETATM   21  O           1     -31.424  -7.420 -18.051  0.00  0.00    -0.648 OA
ENDBRANCH  18  19
ENDBRANCH  14  18
ENDBRANCH   2  14
TORSDOF 9
ENDMDL
MODEL 6
REMARK VINA RESULT:      -5.2      3.893      6.815
REMARK  9 active torsions:
REMARK  status: ('A' for Active; 'I' for Inactive)
REMARK    1  A    between atoms: C_1  and  C_2 
REMARK    2  A    between atoms: C_1  and  C_8 
REMARK    3  A    between atoms: C_1  and  N_14 
REMARK       I    between atoms: C_2  and  N_3 
REMARK    4  A    between atoms: N_3  and  C_21 
REMARK    5  A    between atoms: Se_6  and  C_7 
REMARK    6  A    between atoms: C_7  and  C_8 
REMARK    7  A    between atoms: C_10  and  C_21 
REMARK    8  A    between atoms: C_18  and  C_20 
REMARK    9  A    between atoms: C_20  and  C_21 
ROOT
HETATM    1  C           1     -21.377  -5.835  -5.579  0.00  0.00     0.249 C 
HETATM    2  N           1     -20.838  -6.741  -4.706  0.00  0.00    -0.344 N 
HETATM    3  O           1     -22.572  -5.662  -5.609  0.00  0.00    -0.271 OA
HETATM    4  H           1     -19.837  -6.886  -4.681  0.00  0.00     0.163 HD
ENDROOT
BRANCH   1   5
HETATM    5  C           1     -20.478  -5.054  -6.506  0.00  0.00     0.274 C 
BRANCH   5   6
HETATM    6  C           1     -21.256  -3.893  -7.111  0.00  0.00     0.042 C 
BRANCH   6   7
HETATM    7  C           1     -21.457  -4.136  -8.600  0.00  0.00     0.003 C 
BRANCH   7   8
HETATM    8 Se           1     -23.361  -4.080  -9.018  0.00  0.00     0.000 Se
HETATM    9  C           1     -23.109  -3.475 -10.853  0.00  0.00     0.000 C 
ENDBRANCH   7   8
ENDBRANCH   6   7
ENDBRANCH   5   6
BRANCH   5  10
HETATM   10  N           1     -19.990  -5.953  -7.604  0.00  0.00    -0.067 N 
HETATM   11  H           1     -19.805  -6.906  -7.218  0.00  0.00     0.275 HD
HETATM   12  H           1     -20.718  -6.015  -8.351  0.00  0.00     0.275 HD
HETATM   13  H           1     -19.108  -5.563  -8.007  0.00  0.00     0.275 HD
ENDBRANCH   5  10
ENDBRANCH   1   5
BRANCH   2  14
HETATM   14  C           1     -21.701  -7.491  -3.815  0.00  0.00     0.195 C 
BRANCH  14  15
HETATM   15  C           1     -21.625  -6.904  -2.428  0.00  0.00     0.197 C 
HETATM   16  O           1     -22.284  -5.879  -2.145  0.00  0.00    -0.646 OA
HETATM   17  O           1     -20.903  -7.442  -1.560  0.00  0.00    -0.646 OA
ENDBRANCH  14  15
BRANCH  14  18
HETATM   18  C           1     -21.251  -8.945  -3.778  0.00  0.00     0.149 C 
BRANCH  18  19
HETATM   19  C           1     -19.959  -9.092  -4.542  0.00  0.00     0.175 C 
HETATM   20  O           1     -19.981  -9.395  -5.755  0.00  0.00    -0.648 OA
HETATM   21  O           1     -18.865  -8.912  -3.964  0.00  0.00    -0.648 OA
ENDBRANCH  18  19
ENDBRANCH  14  18
ENDBRANCH   2  14
TORSDOF 9
ENDMDL
MODEL 7
REMARK VINA RESULT:      -5.0      4.658      7.774
REMARK  9 active torsions:
REMARK  status: ('A' for Active; 'I' for Inactive)
REMARK    1  A    between atoms: C_1  and  C_2 
REMARK    2  A    between atoms: C_1  and  C_8 
REMARK    3  A    between atoms: C_1  and  N_14 
REMARK       I    between atoms: C_2  and  N_3 
REMARK    4  A    between atoms: N_3  and  C_21 
REMARK    5  A    between atoms: Se_6  and  C_7 
REMARK    6  A    between atoms: C_7  and  C_8 
REMARK    7  A    between atoms: C_10  and  C_21 
REMARK    8  A    between atoms: C_18  and  C_20 
REMARK    9  A    between atoms: C_20  and  C_21 
ROOT
HETATM    1  C           1     -20.806  -7.552  -4.884  0.00  0.00     0.249 C 
HETATM    2  N           1     -21.556  -7.856  -3.780  0.00  0.00    -0.344 N 
HETATM    3  O           1     -19.660  -7.926  -4.957  0.00  0.00    -0.271 OA
HETATM    4  H           1     -22.516  -7.543  -3.719  0.00  0.00     0.163 HD
ENDROOT
BRANCH   1   5
HETATM    5  C           1     -21.411  -6.747  -6.008  0.00  0.00     0.274 C 
BRANCH   5   6
HETATM    6  C           1     -20.322  -5.930  -6.692  0.00  0.00     0.042 C 
BRANCH   6   7
HETATM    7  C           1     -20.855  -4.541  -7.014  0.00  0.00     0.003 C 
BRANCH   7   8
HETATM    8 Se           1     -21.219  -4.411  -8.925  0.00  0.00     0.000 Se
HETATM    9  C           1     -23.122  -4.053  -8.706  0.00  0.00     0.000 C 
ENDBRANCH   7   8
ENDBRANCH   6   7
ENDBRANCH   5   6
BRANCH   5  10
HETATM   10  N           1     -22.456  -5.823  -5.456  0.00  0.00    -0.067 N 
HETATM   11  H           1     -22.136  -5.444  -4.536  0.00  0.00     0.275 HD
HETATM   12  H           1     -22.608  -5.034  -6.123  0.00  0.00     0.275 HD
HETATM   13  H           1     -23.350  -6.347  -5.324  0.00  0.00     0.275 HD
ENDBRANCH   5  10
ENDBRANCH   1   5
BRANCH   2  14
HETATM   14  C           1     -20.975  -8.629  -2.700  0.00  0.00     0.195 C 
BRANCH  14  15
HETATM   15  C           1     -21.839  -9.834  -2.422  0.00  0.00     0.197 C 
HETATM   16  O           1     -22.442 -10.401  -3.359  0.00  0.00    -0.646 OA
HETATM   17  O           1     -21.953 -10.266  -1.254  0.00  0.00    -0.646 OA
ENDBRANCH  14  15
BRANCH  14  18
HETATM   18  C           1     -20.888  -7.766  -1.448  0.00  0.00     0.149 C 
BRANCH  18  19
HETATM   19  C           1     -22.102  -6.874  -1.365  0.00  0.00     0.175 C 
HETATM   20  O           1     -22.205  -5.887  -2.126  0.00  0.00    -0.648 OA
HETATM   21  O           1     -23.005  -7.121  -0.537  0.00  0.00    -0.648 OA
ENDBRANCH  18  19
ENDBRANCH  14  18
ENDBRANCH   2  14
TORSDOF 9
ENDMDL
MODEL 8
REMARK VINA RESULT:      -4.9      2.936      4.596
REMARK  9 active torsions:
REMARK  status: ('A' for Active; 'I' for Inactive)
REMARK    1  A    between atoms: C_1  and  C_2 
REMARK    2  A    between atoms: C_1  and  C_8 
REMARK    3  A    between atoms: C_1  and  N_14 
REMARK       I    between atoms: C_2  and  N_3 
REMARK    4  A    between atoms: N_3  and  C_21 
REMARK    5  A    between atoms: Se_6  and  C_7 
REMARK    6  A    between atoms: C_7  and  C_8 
REMARK    7  A    between atoms: C_10  and  C_21 
REMARK    8  A    between atoms: C_18  and  C_20 
REMARK    9  A    between atoms: C_20  and  C_21 
ROOT
HETATM    1  C           1     -21.362  -6.317  -4.289  0.00  0.00     0.249 C 
HETATM    2  N           1     -20.886  -5.257  -5.012  0.00  0.00    -0.344 N 
HETATM    3  O           1     -21.907  -7.236  -4.852  0.00  0.00    -0.271 OA
HETATM    4  H           1     -20.429  -4.487  -4.541  0.00  0.00     0.163 HD
ENDROOT
BRANCH   1   5
HETATM    5  C           1     -21.208  -6.336  -2.788  0.00  0.00     0.274 C 
BRANCH   5   6
HETATM    6  C           1     -20.926  -7.759  -2.324  0.00  0.00     0.042 C 
BRANCH   6   7
HETATM    7  C           1     -21.806  -8.087  -1.125  0.00  0.00     0.003 C 
BRANCH   7   8
HETATM    8 Se           1     -22.257  -9.983  -1.147  0.00  0.00     0.000 Se
HETATM    9  C           1     -20.926 -10.483   0.186  0.00  0.00     0.000 C 
ENDBRANCH   7   8
ENDBRANCH   6   7
ENDBRANCH   5   6
BRANCH   5  10
HETATM   10  N           1     -22.472  -5.844  -2.149  0.00  0.00    -0.067 N 
HETATM   11  H           1     -23.286  -6.376  -2.531  0.00  0.00     0.275 HD
HETATM   12  H           1     -22.417  -5.987  -1.115  0.00  0.00     0.275 HD
HETATM   13  H           1     -22.593  -4.827  -2.356  0.00  0.00     0.275 HD
ENDBRANCH   5  10
ENDBRANCH   1   5
BRANCH   2  14
HETATM   14  C           1     -21.034  -5.239  -6.455  0.00  0.00     0.195 C 
BRANCH  14  15
HETATM   15  C           1     -19.714  -5.580  -7.100  0.00  0.00     0.197 C 
HETATM   16  O           1     -19.368  -6.776  -7.222  0.00  0.00    -0.646 OA
HETATM   17  O           1     -18.965  -4.668  -7.515  0.00  0.00    -0.646 OA
ENDBRANCH  14  15
BRANCH  14  18
HETATM   18  C           1     -21.474  -3.851  -6.901  0.00  0.00     0.149 C 
BRANCH  18  19
HETATM   19  C           1     -22.301  -3.965  -8.158  0.00  0.00     0.175 C 
HETATM   20  O           1     -23.518  -4.243  -8.083  0.00  0.00    -0.648 OA
HETATM   21  O           1     -21.770  -3.782  -9.275  0.00  0.00    -0.648 OA
ENDBRANCH  18  19
ENDBRANCH  14  18
ENDBRANCH   2  14
TORSDOF 9
ENDMDL
MODEL 9
REMARK VINA RESULT:      -4.9      1.837      2.066
REMARK  9 active torsions:
REMARK  status: ('A' for Active; 'I' for Inactive)
REMARK    1  A    between atoms: C_1  and  C_2 
REMARK    2  A    between atoms: C_1  and  C_8 
REMARK    3  A    between atoms: C_1  and  N_14 
REMARK       I    between atoms: C_2  and  N_3 
REMARK    4  A    between atoms: N_3  and  C_21 
REMARK    5  A    between atoms: Se_6  and  C_7 
REMARK    6  A    between atoms: C_7  and  C_8 
REMARK    7  A    between atoms: C_10  and  C_21 
REMARK    8  A    between atoms: C_18  and  C_20 
REMARK    9  A    between atoms: C_20  and  C_21 
ROOT
HETATM    1  C           1     -21.352  -4.277  -8.524  0.00  0.00     0.249 C 
HETATM    2  N           1     -21.495  -4.522  -9.863  0.00  0.00    -0.344 N 
HETATM    3  O           1     -22.077  -3.482  -7.976  0.00  0.00    -0.271 OA
HETATM    4  H           1     -20.888  -5.189 -10.323  0.00  0.00     0.163 HD
ENDROOT
BRANCH   1   5
HETATM    5  C           1     -20.289  -5.000  -7.734  0.00  0.00     0.274 C 
BRANCH   5   6
HETATM    6  C           1     -20.738  -5.139  -6.286  0.00  0.00     0.042 C 
BRANCH   6   7
HETATM    7  C           1     -20.461  -6.556  -5.801  0.00  0.00     0.003 C 
BRANCH   7   8
HETATM    8 Se           1     -21.980  -7.197  -4.762  0.00  0.00     0.000 Se
HETATM    9  C           1     -21.469  -6.262  -3.130  0.00  0.00     0.000 C 
ENDBRANCH   7   8
ENDBRANCH   6   7
ENDBRANCH   5   6
BRANCH   5  10
HETATM   10  N           1     -19.009  -4.218  -7.787  0.00  0.00    -0.067 N 
HETATM   11  H           1     -19.217  -3.227  -8.043  0.00  0.00     0.275 HD
HETATM   12  H           1     -18.547  -4.246  -6.850  0.00  0.00     0.275 HD
HETATM   13  H           1     -18.374  -4.637  -8.503  0.00  0.00     0.275 HD
ENDBRANCH   5  10
ENDBRANCH   1   5
BRANCH   2  14
HETATM   14  C           1     -22.517  -3.829 -10.623  0.00  0.00     0.195 C 
BRANCH  14  15
HETATM   15  C           1     -23.857  -4.470 -10.366  0.00  0.00     0.197 C 
HETATM   16  O           1     -23.983  -5.712 -10.452  0.00  0.00    -0.646 OA
HETATM   17  O           1     -24.843  -3.762 -10.065  0.00  0.00    -0.646 OA
ENDBRANCH  14  15
BRANCH  14  18
HETATM   18  C           1     -22.189  -3.912 -12.108  0.00  0.00     0.149 C 
BRANCH  18  19
HETATM   19  C           1     -23.252  -3.191 -12.900  0.00  0.00     0.175 C 
HETATM   20  O           1     -23.930  -3.813 -13.746  0.00  0.00    -0.648 OA
HETATM   21  O           1     -23.456  -1.972 -12.709  0.00  0.00    -0.648 OA
ENDBRANCH  18  19
ENDBRANCH  14  18
ENDBRANCH   2  14
TORSDOF 9
ENDMDL
