MODEL 1
REMARK VINA RESULT:      -7.3      0.000      0.000
REMARK  10 active torsions:
REMARK  status: ('A' for Active; 'I' for Inactive)
REMARK       I    between atoms: C_1  and  N_2 
REMARK    1  A    between atoms: C_1  and  C_21 
REMARK    2  A    between atoms: N_2  and  C_12 
REMARK    3  A    between atoms: N_7  and  C_21 
REMARK    4  A    between atoms: C_9  and  C_19 
REMARK    5  A    between atoms: C_12  and  C_13 
REMARK    6  A    between atoms: C_12  and  C_24 
REMARK    7  A    between atoms: C_13  and  C_18 
REMARK    8  A    between atoms: C_19  and  C_20 
REMARK    9  A    between atoms: C_20  and  C_21 
REMARK   10  A    between atoms: O_22  and  C_23 
ROOT
HETATM    1  C           1     -21.450  -6.796  -5.526  0.00  0.00     0.249 C 
HETATM    2  N           1     -21.532  -5.468  -5.844  0.00  0.00    -0.344 N 
HETATM    3  O           1     -20.959  -7.576  -6.308  0.00  0.00    -0.271 OA
HETATM    4  H           1     -21.943  -4.815  -5.190  0.00  0.00     0.163 HD
ENDROOT
BRANCH   2   5
HETATM    5  C           1     -21.032  -4.996  -7.122  0.00  0.00     0.189 C 
BRANCH   5   6
HETATM    6  C           1     -21.835  -3.780  -7.563  0.00  0.00     0.074 C 
BRANCH   6   7
HETATM    7  C           1     -22.351  -4.000  -8.952  0.00  0.00    -0.056 A 
HETATM    8  C           1     -23.701  -4.285  -9.156  0.00  0.00     0.010 A 
HETATM    9  C           1     -24.181  -4.490 -10.450  0.00  0.00     0.037 A 
HETATM   10  C           1     -23.313  -4.410 -11.538  0.00  0.00     0.065 A 
HETATM   11  C           1     -21.963  -4.126 -11.332  0.00  0.00     0.037 A 
HETATM   12  C           1     -21.482  -3.921 -10.039  0.00  0.00     0.010 A 
BRANCH  10  13
HETATM   13  O           1     -23.779  -4.609 -12.794  0.00  0.00    -0.361 OA
HETATM   14  H           1     -23.640  -3.790 -13.300  0.00  0.00     0.217 HD
ENDBRANCH  10  13
ENDBRANCH   6   7
ENDBRANCH   5   6
BRANCH   5  15
HETATM   15  C           1     -19.579  -4.615  -6.982  0.00  0.00     0.197 C 
HETATM   16  O           1     -19.065  -4.519  -5.846  0.00  0.00    -0.646 OA
HETATM   17  O           1     -18.888  -4.397  -8.001  0.00  0.00    -0.646 OA
ENDBRANCH   5  15
ENDBRANCH   2   5
BRANCH   1  18
HETATM   18  C           1     -21.970  -7.288  -4.197  0.00  0.00     0.275 C 
BRANCH  18  19
HETATM   19  N           1     -21.730  -8.764  -4.083  0.00  0.00    -0.066 N 
HETATM   20  H           1     -22.524  -9.208  -3.567  0.00  0.00     0.275 HD
HETATM   21  H           1     -21.661  -9.181  -5.039  0.00  0.00     0.275 HD
HETATM   22  H           1     -20.839  -8.933  -3.562  0.00  0.00     0.275 HD
ENDBRANCH  18  19
BRANCH  18  23
HETATM   23  C           1     -21.245  -6.568  -3.069  0.00  0.00     0.053 C 
BRANCH  23  24
HETATM   24  C           1     -22.243  -6.197  -1.979  0.00  0.00     0.115 C 
BRANCH  24  25
HETATM   25  C           1     -22.243  -7.264  -0.911  0.00  0.00     0.172 C 
HETATM   26  O           1     -21.320  -8.106  -0.870  0.00  0.00    -0.648 OA
HETATM   27  O           1     -23.164  -7.305  -0.069  0.00  0.00    -0.648 OA
ENDBRANCH  24  25
ENDBRANCH  23  24
ENDBRANCH  18  23
ENDBRANCH   1  18
TORSDOF 10
ENDMDL
MODEL 2
REMARK VINA RESULT:      -7.1      2.063      7.725
REMARK  10 active torsions:
REMARK  status: ('A' for Active; 'I' for Inactive)
REMARK       I    between atoms: C_1  and  N_2 
REMARK    1  A    between atoms: C_1  and  C_21 
REMARK    2  A    between atoms: N_2  and  C_12 
REMARK    3  A    between atoms: N_7  and  C_21 
REMARK    4  A    between atoms: C_9  and  C_19 
REMARK    5  A    between atoms: C_12  and  C_13 
REMARK    6  A    between atoms: C_12  and  C_24 
REMARK    7  A    between atoms: C_13  and  C_18 
REMARK    8  A    between atoms: C_19  and  C_20 
REMARK    9  A    between atoms: C_20  and  C_21 
REMARK   10  A    between atoms: O_22  and  C_23 
ROOT
HETATM    1  C           1     -23.124  -4.508  -8.298  0.00  0.00     0.249 C 
HETATM    2  N           1     -21.812  -4.812  -8.543  0.00  0.00    -0.344 N 
HETATM    3  O           1     -23.504  -4.335  -7.164  0.00  0.00    -0.271 OA
HETATM    4  H           1     -21.495  -4.957  -9.492  0.00  0.00     0.163 HD
ENDROOT
BRANCH   2   5
HETATM    5  C           1     -20.877  -4.929  -7.440  0.00  0.00     0.189 C 
BRANCH   5   6
HETATM    6  C           1     -20.604  -6.400  -7.160  0.00  0.00     0.074 C 
BRANCH   6   7
HETATM    7  C           1     -20.938  -6.709  -5.733  0.00  0.00    -0.056 A 
HETATM    8  C           1     -21.230  -8.019  -5.354  0.00  0.00     0.010 A 
HETATM    9  C           1     -21.541  -8.305  -4.024  0.00  0.00     0.037 A 
HETATM   10  C           1     -21.560  -7.283  -3.075  0.00  0.00     0.065 A 
HETATM   11  C           1     -21.269  -5.974  -3.456  0.00  0.00     0.037 A 
HETATM   12  C           1     -20.957  -5.686  -4.785  0.00  0.00     0.010 A 
BRANCH  10  13
HETATM   13  O           1     -21.863  -7.562  -1.785  0.00  0.00    -0.361 OA
HETATM   14  H           1     -21.523  -6.837  -1.233  0.00  0.00     0.217 HD
ENDBRANCH  10  13
ENDBRANCH   6   7
ENDBRANCH   5   6
BRANCH   5  15
HETATM   15  C           1     -19.587  -4.237  -7.800  0.00  0.00     0.197 C 
HETATM   16  O           1     -19.572  -3.375  -8.706  0.00  0.00    -0.646 OA
HETATM   17  O           1     -18.532  -4.523  -7.193  0.00  0.00    -0.646 OA
ENDBRANCH   5  15
ENDBRANCH   2   5
BRANCH   1  18
HETATM   18  C           1     -24.097  -4.386  -9.446  0.00  0.00     0.275 C 
BRANCH  18  19
HETATM   19  N           1     -24.831  -3.082  -9.340  0.00  0.00    -0.066 N 
HETATM   20  H           1     -24.143  -2.300  -9.257  0.00  0.00     0.275 HD
HETATM   21  H           1     -25.416  -2.941 -10.195  0.00  0.00     0.275 HD
HETATM   22  H           1     -25.446  -3.096  -8.494  0.00  0.00     0.275 HD
ENDBRANCH  18  19
BRANCH  18  23
HETATM   23  C           1     -23.338  -4.435 -10.764  0.00  0.00     0.053 C 
BRANCH  23  24
HETATM   24  C           1     -23.364  -3.060 -11.418  0.00  0.00     0.115 C 
BRANCH  24  25
HETATM   25  C           1     -24.251  -3.098 -12.638  0.00  0.00     0.172 C 
HETATM   26  O           1     -25.480  -2.903 -12.523  0.00  0.00    -0.648 OA
HETATM   27  O           1     -23.757  -3.324 -13.763  0.00  0.00    -0.648 OA
ENDBRANCH  24  25
ENDBRANCH  23  24
ENDBRANCH  18  23
ENDBRANCH   1  18
TORSDOF 10
ENDMDL
MODEL 3
REMARK VINA RESULT:      -6.7      2.047      7.659
REMARK  10 active torsions:
REMARK  status: ('A' for Active; 'I' for Inactive)
REMARK       I    between atoms: C_1  and  N_2 
REMARK    1  A    between atoms: C_1  and  C_21 
REMARK    2  A    between atoms: N_2  and  C_12 
REMARK    3  A    between atoms: N_7  and  C_21 
REMARK    4  A    between atoms: C_9  and  C_19 
REMARK    5  A    between atoms: C_12  and  C_13 
REMARK    6  A    between atoms: C_12  and  C_24 
REMARK    7  A    between atoms: C_13  and  C_18 
REMARK    8  A    between atoms: C_19  and  C_20 
REMARK    9  A    between atoms: C_20  and  C_21 
REMARK   10  A    between atoms: O_22  and  C_23 
ROOT
HETATM    1  C           1     -20.137  -5.333  -6.044  0.00  0.00     0.249 C 
HETATM    2  N           1     -20.030  -6.696  -6.107  0.00  0.00    -0.344 N 
HETATM    3  O           1     -20.226  -4.783  -4.972  0.00  0.00    -0.271 OA
HETATM    4  H           1     -19.956  -7.157  -7.005  0.00  0.00     0.163 HD
ENDROOT
BRANCH   2   5
HETATM    5  C           1     -20.024  -7.481  -4.887  0.00  0.00     0.189 C 
BRANCH   5   6
HETATM    6  C           1     -21.425  -8.013  -4.620  0.00  0.00     0.074 C 
BRANCH   6   7
HETATM    7  C           1     -21.709  -7.958  -3.150  0.00  0.00    -0.056 A 
HETATM    8  C           1     -21.963  -6.733  -2.535  0.00  0.00     0.010 A 
HETATM    9  C           1     -22.226  -6.682  -1.166  0.00  0.00     0.037 A 
HETATM   10  C           1     -22.236  -7.857  -0.413  0.00  0.00     0.065 A 
HETATM   11  C           1     -21.981  -9.081  -1.029  0.00  0.00     0.037 A 
HETATM   12  C           1     -21.717  -9.133  -2.398  0.00  0.00     0.010 A 
BRANCH  10  13
HETATM   13  O           1     -22.491  -7.807   0.916  0.00  0.00    -0.361 OA
HETATM   14  H           1     -21.647  -7.903   1.389  0.00  0.00     0.217 HD
ENDBRANCH  10  13
ENDBRANCH   6   7
ENDBRANCH   5   6
BRANCH   5  15
HETATM   15  C           1     -19.067  -8.637  -5.038  0.00  0.00     0.197 C 
HETATM   16  O           1     -18.793  -9.076  -6.176  0.00  0.00    -0.646 OA
HETATM   17  O           1     -18.547  -9.155  -4.026  0.00  0.00    -0.646 OA
ENDBRANCH   5  15
ENDBRANCH   2   5
BRANCH   1  18
HETATM   18  C           1     -20.142  -4.517  -7.313  0.00  0.00     0.275 C 
BRANCH  18  19
HETATM   19  N           1     -20.211  -5.436  -8.497  0.00  0.00    -0.066 N 
HETATM   20  H           1     -20.793  -4.997  -9.246  0.00  0.00     0.275 HD
HETATM   21  H           1     -19.247  -5.608  -8.861  0.00  0.00     0.275 HD
HETATM   22  H           1     -20.643  -6.343  -8.208  0.00  0.00     0.275 HD
ENDBRANCH  18  19
BRANCH  18  23
HETATM   23  C           1     -21.352  -3.592  -7.318  0.00  0.00     0.053 C 
BRANCH  23  24
HETATM   24  C           1     -22.576  -4.358  -7.803  0.00  0.00     0.115 C 
BRANCH  24  25
HETATM   25  C           1     -23.073  -3.751  -9.092  0.00  0.00     0.172 C 
HETATM   26  O           1     -22.286  -3.586 -10.049  0.00  0.00    -0.648 OA
HETATM   27  O           1     -24.271  -3.413  -9.202  0.00  0.00    -0.648 OA
ENDBRANCH  24  25
ENDBRANCH  23  24
ENDBRANCH  18  23
ENDBRANCH   1  18
TORSDOF 10
ENDMDL
MODEL 4
REMARK VINA RESULT:      -6.4      1.816      2.533
REMARK  10 active torsions:
REMARK  status: ('A' for Active; 'I' for Inactive)
REMARK       I    between atoms: C_1  and  N_2 
REMARK    1  A    between atoms: C_1  and  C_21 
REMARK    2  A    between atoms: N_2  and  C_12 
REMARK    3  A    between atoms: N_7  and  C_21 
REMARK    4  A    between atoms: C_9  and  C_19 
REMARK    5  A    between atoms: C_12  and  C_13 
REMARK    6  A    between atoms: C_12  and  C_24 
REMARK    7  A    between atoms: C_13  and  C_18 
REMARK    8  A    between atoms: C_19  and  C_20 
REMARK    9  A    between atoms: C_20  and  C_21 
REMARK   10  A    between atoms: O_22  and  C_23 
ROOT
HETATM    1  C           1     -21.666  -6.283  -3.334  0.00  0.00     0.249 C 
HETATM    2  N           1     -20.735  -5.811  -4.219  0.00  0.00    -0.344 N 
HETATM    3  O           1     -22.758  -6.617  -3.726  0.00  0.00    -0.271 OA
HETATM    4  H           1     -19.820  -5.531  -3.891  0.00  0.00     0.163 HD
ENDROOT
BRANCH   2   5
HETATM    5  C           1     -21.061  -5.711  -5.629  0.00  0.00     0.189 C 
BRANCH   5   6
HETATM    6  C           1     -20.361  -4.499  -6.227  0.00  0.00     0.074 C 
BRANCH   6   7
HETATM    7  C           1     -20.922  -4.217  -7.587  0.00  0.00    -0.056 A 
HETATM    8  C           1     -22.293  -4.015  -7.746  0.00  0.00     0.010 A 
HETATM    9  C           1     -22.816  -3.754  -9.013  0.00  0.00     0.037 A 
HETATM   10  C           1     -21.968  -3.694 -10.119  0.00  0.00     0.065 A 
HETATM   11  C           1     -20.598  -3.897  -9.958  0.00  0.00     0.037 A 
HETATM   12  C           1     -20.074  -4.159  -8.692  0.00  0.00     0.010 A 
BRANCH  10  13
HETATM   13  O           1     -22.476  -3.440 -11.349  0.00  0.00    -0.361 OA
HETATM   14  H           1     -21.786  -3.637 -12.006  0.00  0.00     0.217 HD
ENDBRANCH  10  13
ENDBRANCH   6   7
ENDBRANCH   5   6
BRANCH   5  15
HETATM   15  C           1     -20.602  -6.960  -6.341  0.00  0.00     0.197 C 
HETATM   16  O           1     -21.360  -7.952  -6.414  0.00  0.00    -0.646 OA
HETATM   17  O           1     -19.465  -7.003  -6.857  0.00  0.00    -0.646 OA
ENDBRANCH   5  15
ENDBRANCH   2   5
BRANCH   1  18
HETATM   18  C           1     -21.326  -6.388  -1.867  0.00  0.00     0.275 C 
BRANCH  18  19
HETATM   19  N           1     -22.588  -6.321  -1.057  0.00  0.00    -0.066 N 
HETATM   20  H           1     -23.413  -6.311  -1.698  0.00  0.00     0.275 HD
HETATM   21  H           1     -22.644  -7.155  -0.430  0.00  0.00     0.275 HD
HETATM   22  H           1     -22.585  -5.449  -0.480  0.00  0.00     0.275 HD
ENDBRANCH  18  19
BRANCH  18  23
HETATM   23  C           1     -20.622  -7.711  -1.600  0.00  0.00     0.053 C 
BRANCH  23  24
HETATM   24  C           1     -21.628  -8.724  -1.070  0.00  0.00     0.115 C 
BRANCH  24  25
HETATM   25  C           1     -21.289  -9.071   0.360  0.00  0.00     0.172 C 
HETATM   26  O           1     -20.863 -10.212   0.641  0.00  0.00    -0.648 OA
HETATM   27  O           1     -21.436  -8.218   1.260  0.00  0.00    -0.648 OA
ENDBRANCH  24  25
ENDBRANCH  23  24
ENDBRANCH  18  23
ENDBRANCH   1  18
TORSDOF 10
ENDMDL
MODEL 5
REMARK VINA RESULT:      -6.3      2.198      7.933
REMARK  10 active torsions:
REMARK  status: ('A' for Active; 'I' for Inactive)
REMARK       I    between atoms: C_1  and  N_2 
REMARK    1  A    between atoms: C_1  and  C_21 
REMARK    2  A    between atoms: N_2  and  C_12 
REMARK    3  A    between atoms: N_7  and  C_21 
REMARK    4  A    between atoms: C_9  and  C_19 
REMARK    5  A    between atoms: C_12  and  C_13 
REMARK    6  A    between atoms: C_12  and  C_24 
REMARK    7  A    between atoms: C_13  and  C_18 
REMARK    8  A    between atoms: C_19  and  C_20 
REMARK    9  A    between atoms: C_20  and  C_21 
REMARK   10  A    between atoms: O_22  and  C_23 
ROOT
HETATM    1  C           1     -20.480  -7.278  -5.560  0.00  0.00     0.249 C 
HETATM    2  N           1     -20.737  -8.009  -4.432  0.00  0.00    -0.344 N 
HETATM    3  O           1     -19.494  -7.508  -6.218  0.00  0.00    -0.271 OA
HETATM    4  H           1     -21.563  -7.816  -3.880  0.00  0.00     0.163 HD
ENDROOT
BRANCH   2   5
HETATM    5  C           1     -19.823  -9.061  -4.026  0.00  0.00     0.189 C 
BRANCH   5   6
HETATM    6  C           1     -19.361  -8.807  -2.598  0.00  0.00     0.074 C 
BRANCH   6   7
HETATM    7  C           1     -20.546  -8.492  -1.738  0.00  0.00    -0.056 A 
HETATM    8  C           1     -21.142  -7.234  -1.807  0.00  0.00     0.010 A 
HETATM    9  C           1     -22.245  -6.940  -1.005  0.00  0.00     0.037 A 
HETATM   10  C           1     -22.752  -7.905  -0.134  0.00  0.00     0.065 A 
HETATM   11  C           1     -22.154  -9.163  -0.064  0.00  0.00     0.037 A 
HETATM   12  C           1     -21.051  -9.457  -0.866  0.00  0.00     0.010 A 
BRANCH  10  13
HETATM   13  O           1     -23.822  -7.619   0.645  0.00  0.00    -0.361 OA
HETATM   14  H           1     -24.608  -7.580   0.074  0.00  0.00     0.217 HD
ENDBRANCH  10  13
ENDBRANCH   6   7
ENDBRANCH   5   6
BRANCH   5  15
HETATM   15  C           1     -20.528 -10.393  -4.099  0.00  0.00     0.197 C 
HETATM   16  O           1     -21.685 -10.463  -4.565  0.00  0.00    -0.646 OA
HETATM   17  O           1     -19.953 -11.427  -3.695  0.00  0.00    -0.646 OA
ENDBRANCH   5  15
ENDBRANCH   2   5
BRANCH   1  18
HETATM   18  C           1     -21.430  -6.184  -5.983  0.00  0.00     0.275 C 
BRANCH  18  19
HETATM   19  N           1     -22.569  -6.109  -5.010  0.00  0.00    -0.066 N 
HETATM   20  H           1     -23.462  -5.951  -5.529  0.00  0.00     0.275 HD
HETATM   21  H           1     -22.632  -7.006  -4.477  0.00  0.00     0.275 HD
HETATM   22  H           1     -22.409  -5.318  -4.345  0.00  0.00     0.275 HD
ENDBRANCH  18  19
BRANCH  18  23
HETATM   23  C           1     -20.695  -4.851  -6.005  0.00  0.00     0.053 C 
BRANCH  23  24
HETATM   24  C           1     -21.310  -3.948  -7.066  0.00  0.00     0.115 C 
BRANCH  24  25
HETATM   25  C           1     -21.048  -4.528  -8.435  0.00  0.00     0.172 C 
HETATM   26  O           1     -19.876  -4.763  -8.800  0.00  0.00    -0.648 OA
HETATM   27  O           1     -22.003  -4.772  -9.202  0.00  0.00    -0.648 OA
ENDBRANCH  24  25
ENDBRANCH  23  24
ENDBRANCH  18  23
ENDBRANCH   1  18
TORSDOF 10
ENDMDL
MODEL 6
REMARK VINA RESULT:      -6.2      3.802      8.840
REMARK  10 active torsions:
REMARK  status: ('A' for Active; 'I' for Inactive)
REMARK       I    between atoms: C_1  and  N_2 
REMARK    1  A    between atoms: C_1  and  C_21 
REMARK    2  A    between atoms: N_2  and  C_12 
REMARK    3  A    between atoms: N_7  and  C_21 
REMARK    4  A    between atoms: C_9  and  C_19 
REMARK    5  A    between atoms: C_12  and  C_13 
REMARK    6  A    between atoms: C_12  and  C_24 
REMARK    7  A    between atoms: C_13  and  C_18 
REMARK    8  A    between atoms: C_19  and  C_20 
REMARK    9  A    between atoms: C_20  and  C_21 
REMARK   10  A    between atoms: O_22  and  C_23 
ROOT
HETATM    1  C           1     -21.194  -9.280  -3.653  0.00  0.00     0.249 C 
HETATM    2  N           1     -21.027  -8.359  -2.655  0.00  0.00    -0.344 N 
HETATM    3  O           1     -22.087 -10.090  -3.586  0.00  0.00    -0.271 OA
HETATM    4  H           1     -20.279  -7.680  -2.712  0.00  0.00     0.163 HD
ENDROOT
BRANCH   2   5
HETATM    5  C           1     -21.923  -8.356  -1.514  0.00  0.00     0.189 C 
BRANCH   5   6
HETATM    6  C           1     -21.215  -8.965  -0.312  0.00  0.00     0.074 C 
BRANCH   6   7
HETATM    7  C           1     -21.847 -10.279   0.027  0.00  0.00    -0.056 A 
HETATM    8  C           1     -23.197 -10.495  -0.248  0.00  0.00     0.010 A 
HETATM    9  C           1     -23.786 -11.719   0.069  0.00  0.00     0.037 A 
HETATM   10  C           1     -23.026 -12.727   0.661  0.00  0.00     0.065 A 
HETATM   11  C           1     -21.676 -12.510   0.937  0.00  0.00     0.037 A 
HETATM   12  C           1     -21.087 -11.286   0.621  0.00  0.00     0.010 A 
BRANCH  10  13
HETATM   13  O           1     -23.598 -13.916   0.969  0.00  0.00    -0.361 OA
HETATM   14  H           1     -24.084 -13.808   1.804  0.00  0.00     0.217 HD
ENDBRANCH  10  13
ENDBRANCH   6   7
ENDBRANCH   5   6
BRANCH   5  15
HETATM   15  C           1     -22.326  -6.937  -1.196  0.00  0.00     0.197 C 
HETATM   16  O           1     -22.680  -6.633  -0.036  0.00  0.00    -0.646 OA
HETATM   17  O           1     -22.306  -6.065  -2.092  0.00  0.00    -0.646 OA
ENDBRANCH   5  15
ENDBRANCH   2   5
BRANCH   1  18
HETATM   18  C           1     -20.262  -9.283  -4.841  0.00  0.00     0.275 C 
BRANCH  18  19
HETATM   19  N           1     -20.923  -9.983  -5.992  0.00  0.00    -0.066 N 
HETATM   20  H           1     -21.956 -10.005  -5.839  0.00  0.00     0.275 HD
HETATM   21  H           1     -20.713  -9.471  -6.878  0.00  0.00     0.275 HD
HETATM   22  H           1     -20.560 -10.961  -6.059  0.00  0.00     0.275 HD
ENDBRANCH  18  19
BRANCH  18  23
HETATM   23  C           1     -19.938  -7.850  -5.238  0.00  0.00     0.053 C 
BRANCH  23  24
HETATM   24  C           1     -21.066  -7.292  -6.095  0.00  0.00     0.115 C 
BRANCH  24  25
HETATM   25  C           1     -21.590  -6.020  -5.474  0.00  0.00     0.172 C 
HETATM   26  O           1     -20.792  -5.133  -5.100  0.00  0.00    -0.648 OA
HETATM   27  O           1     -22.820  -5.854  -5.334  0.00  0.00    -0.648 OA
ENDBRANCH  24  25
ENDBRANCH  23  24
ENDBRANCH  18  23
ENDBRANCH   1  18
TORSDOF 10
ENDMDL
MODEL 7
REMARK VINA RESULT:      -6.1      5.625      8.716
REMARK  10 active torsions:
REMARK  status: ('A' for Active; 'I' for Inactive)
REMARK       I    between atoms: C_1  and  N_2 
REMARK    1  A    between atoms: C_1  and  C_21 
REMARK    2  A    between atoms: N_2  and  C_12 
REMARK    3  A    between atoms: N_7  and  C_21 
REMARK    4  A    between atoms: C_9  and  C_19 
REMARK    5  A    between atoms: C_12  and  C_13 
REMARK    6  A    between atoms: C_12  and  C_24 
REMARK    7  A    between atoms: C_13  and  C_18 
REMARK    8  A    between atoms: C_19  and  C_20 
REMARK    9  A    between atoms: C_20  and  C_21 
REMARK   10  A    between atoms: O_22  and  C_23 
ROOT
HETATM    1  C           1     -21.053  -9.435  -4.072  0.00  0.00     0.249 C 
HETATM    2  N           1     -20.784  -8.470  -3.139  0.00  0.00    -0.344 N 
HETATM    3  O           1     -22.079 -10.068  -4.008  0.00  0.00    -0.271 OA
HETATM    4  H           1     -19.924  -7.940  -3.192  0.00  0.00     0.163 HD
ENDROOT
BRANCH   2   5
HETATM    5  C           1     -21.733  -8.208  -2.073  0.00  0.00     0.189 C 
BRANCH   5   6
HETATM    6  C           1     -21.129  -8.632  -0.742  0.00  0.00     0.074 C 
BRANCH   6   7
HETATM    7  C           1     -21.760  -9.913  -0.291  0.00  0.00    -0.056 A 
HETATM    8  C           1     -20.982 -10.898   0.315  0.00  0.00     0.010 A 
HETATM    9  C           1     -21.570 -12.092   0.734  0.00  0.00     0.037 A 
HETATM   10  C           1     -22.937 -12.299   0.547  0.00  0.00     0.065 A 
HETATM   11  C           1     -23.715 -11.313  -0.060  0.00  0.00     0.037 A 
HETATM   12  C           1     -23.127 -10.120  -0.479  0.00  0.00     0.010 A 
BRANCH  10  13
HETATM   13  O           1     -23.508 -13.458   0.954  0.00  0.00    -0.361 OA
HETATM   14  H           1     -23.790 -13.948   0.163  0.00  0.00     0.217 HD
ENDBRANCH  10  13
ENDBRANCH   6   7
ENDBRANCH   5   6
BRANCH   5  15
HETATM   15  C           1     -22.051  -6.734  -2.035  0.00  0.00     0.197 C 
HETATM   16  O           1     -22.459  -6.210  -0.977  0.00  0.00    -0.646 OA
HETATM   17  O           1     -21.905  -6.037  -3.063  0.00  0.00    -0.646 OA
ENDBRANCH   5  15
ENDBRANCH   2   5
BRANCH   1  18
HETATM   18  C           1     -20.066  -9.708  -5.181  0.00  0.00     0.275 C 
BRANCH  18  19
HETATM   19  N           1     -19.487  -8.411  -5.663  0.00  0.00    -0.066 N 
HETATM   20  H           1     -18.908  -7.983  -4.904  0.00  0.00     0.275 HD
HETATM   21  H           1     -18.887  -8.586  -6.500  0.00  0.00     0.275 HD
HETATM   22  H           1     -20.262  -7.757  -5.919  0.00  0.00     0.275 HD
ENDBRANCH  18  19
BRANCH  18  23
HETATM   23  C           1     -18.948 -10.600  -4.660  0.00  0.00     0.053 C 
BRANCH  23  24
HETATM   24  C           1     -17.668  -9.786  -4.527  0.00  0.00     0.115 C 
BRANCH  24  25
HETATM   25  C           1     -17.301  -9.658  -3.068  0.00  0.00     0.172 C 
HETATM   26  O           1     -16.144  -9.316  -2.742  0.00  0.00    -0.648 OA
HETATM   27  O           1     -18.155  -9.894  -2.187  0.00  0.00    -0.648 OA
ENDBRANCH  24  25
ENDBRANCH  23  24
ENDBRANCH  18  23
ENDBRANCH   1  18
TORSDOF 10
ENDMDL
MODEL 8
REMARK VINA RESULT:      -6.0      5.445      9.021
REMARK  10 active torsions:
REMARK  status: ('A' for Active; 'I' for Inactive)
REMARK       I    between atoms: C_1  and  N_2 
REMARK    1  A    between atoms: C_1  and  C_21 
REMARK    2  A    between atoms: N_2  and  C_12 
REMARK    3  A    between atoms: N_7  and  C_21 
REMARK    4  A    between atoms: C_9  and  C_19 
REMARK    5  A    between atoms: C_12  and  C_13 
REMARK    6  A    between atoms: C_12  and  C_24 
REMARK    7  A    between atoms: C_13  and  C_18 
REMARK    8  A    between atoms: C_19  and  C_20 
REMARK    9  A    between atoms: C_20  and  C_21 
REMARK   10  A    between atoms: O_22  and  C_23 
ROOT
HETATM    1  C           1     -19.381 -10.142  -2.662  0.00  0.00     0.249 C 
HETATM    2  N           1     -20.006 -11.161  -1.996  0.00  0.00    -0.344 N 
HETATM    3  O           1     -18.311  -9.735  -2.278  0.00  0.00    -0.271 OA
HETATM    4  H           1     -20.903 -11.502  -2.317  0.00  0.00     0.163 HD
ENDROOT
BRANCH   2   5
HETATM    5  C           1     -19.382 -11.752  -0.827  0.00  0.00     0.189 C 
BRANCH   5   6
HETATM    6  C           1     -20.431 -11.960   0.257  0.00  0.00     0.074 C 
BRANCH   6   7
HETATM    7  C           1     -21.325 -10.761   0.324  0.00  0.00    -0.056 A 
HETATM    8  C           1     -20.851  -9.568   0.870  0.00  0.00     0.010 A 
HETATM    9  C           1     -21.685  -8.451   0.933  0.00  0.00     0.037 A 
HETATM   10  C           1     -22.991  -8.527   0.450  0.00  0.00     0.065 A 
HETATM   11  C           1     -23.464  -9.720  -0.095  0.00  0.00     0.037 A 
HETATM   12  C           1     -22.632 -10.837  -0.158  0.00  0.00     0.010 A 
BRANCH  10  13
HETATM   13  O           1     -23.800  -7.442   0.512  0.00  0.00    -0.361 OA
HETATM   14  H           1     -23.502  -6.886   1.251  0.00  0.00     0.217 HD
ENDBRANCH  10  13
ENDBRANCH   6   7
ENDBRANCH   5   6
BRANCH   5  15
HETATM   15  C           1     -18.774 -13.081  -1.200  0.00  0.00     0.197 C 
HETATM   16  O           1     -19.094 -13.635  -2.274  0.00  0.00    -0.646 OA
HETATM   17  O           1     -17.948 -13.628  -0.437  0.00  0.00    -0.646 OA
ENDBRANCH   5  15
ENDBRANCH   2   5
BRANCH   1  18
HETATM   18  C           1     -20.030  -9.527  -3.879  0.00  0.00     0.275 C 
BRANCH  18  19
HETATM   19  N           1     -20.356 -10.606  -4.869  0.00  0.00    -0.066 N 
HETATM   20  H           1     -19.671 -10.574  -5.658  0.00  0.00     0.275 HD
HETATM   21  H           1     -20.303 -11.538  -4.399  0.00  0.00     0.275 HD
HETATM   22  H           1     -21.322 -10.456  -5.241  0.00  0.00     0.275 HD
ENDBRANCH  18  19
BRANCH  18  23
HETATM   23  C           1     -21.310  -8.813  -3.467  0.00  0.00     0.053 C 
BRANCH  23  24
HETATM   24  C           1     -20.966  -7.621  -2.584  0.00  0.00     0.115 C 
BRANCH  24  25
HETATM   25  C           1     -21.960  -6.511  -2.826  0.00  0.00     0.172 C 
HETATM   26  O           1     -22.506  -5.940  -1.857  0.00  0.00    -0.648 OA
HETATM   27  O           1     -22.235  -6.163  -3.993  0.00  0.00    -0.648 OA
ENDBRANCH  24  25
ENDBRANCH  23  24
ENDBRANCH  18  23
ENDBRANCH   1  18
TORSDOF 10
ENDMDL
MODEL 9
REMARK VINA RESULT:      -5.9      2.625      4.571
REMARK  10 active torsions:
REMARK  status: ('A' for Active; 'I' for Inactive)
REMARK       I    between atoms: C_1  and  N_2 
REMARK    1  A    between atoms: C_1  and  C_21 
REMARK    2  A    between atoms: N_2  and  C_12 
REMARK    3  A    between atoms: N_7  and  C_21 
REMARK    4  A    between atoms: C_9  and  C_19 
REMARK    5  A    between atoms: C_12  and  C_13 
REMARK    6  A    between atoms: C_12  and  C_24 
REMARK    7  A    between atoms: C_13  and  C_18 
REMARK    8  A    between atoms: C_19  and  C_20 
REMARK    9  A    between atoms: C_20  and  C_21 
REMARK   10  A    between atoms: O_22  and  C_23 
ROOT
HETATM    1  C           1     -20.533  -9.501  -4.206  0.00  0.00     0.249 C 
HETATM    2  N           1     -21.600  -8.666  -4.011  0.00  0.00    -0.344 N 
HETATM    3  O           1     -19.419  -9.045  -4.308  0.00  0.00    -0.271 OA
HETATM    4  H           1     -22.533  -9.048  -3.926  0.00  0.00     0.163 HD
ENDROOT
BRANCH   2   5
HETATM    5  C           1     -21.393  -7.232  -3.927  0.00  0.00     0.189 C 
BRANCH   5   6
HETATM    6  C           1     -22.391  -6.523  -4.832  0.00  0.00     0.074 C 
BRANCH   6   7
HETATM    7  C           1     -21.654  -5.769  -5.895  0.00  0.00    -0.056 A 
HETATM    8  C           1     -20.289  -5.984  -6.083  0.00  0.00     0.010 A 
HETATM    9  C           1     -19.602  -5.281  -7.073  0.00  0.00     0.037 A 
HETATM   10  C           1     -20.280  -4.363  -7.875  0.00  0.00     0.065 A 
HETATM   11  C           1     -21.645  -4.147  -7.685  0.00  0.00     0.037 A 
HETATM   12  C           1     -22.332  -4.850  -6.696  0.00  0.00     0.010 A 
BRANCH  10  13
HETATM   13  O           1     -19.614  -3.680  -8.836  0.00  0.00    -0.361 OA
HETATM   14  H           1     -19.141  -4.325  -9.390  0.00  0.00     0.217 HD
ENDBRANCH  10  13
ENDBRANCH   6   7
ENDBRANCH   5   6
BRANCH   5  15
HETATM   15  C           1     -21.592  -6.778  -2.503  0.00  0.00     0.197 C 
HETATM   16  O           1     -22.367  -5.830  -2.252  0.00  0.00    -0.646 OA
HETATM   17  O           1     -20.983  -7.351  -1.573  0.00  0.00    -0.646 OA
ENDBRANCH   5  15
ENDBRANCH   2   5
BRANCH   1  18
HETATM   18  C           1     -20.748 -10.992  -4.293  0.00  0.00     0.275 C 
BRANCH  18  19
HETATM   19  N           1     -19.946 -11.675  -3.225  0.00  0.00    -0.066 N 
HETATM   20  H           1     -20.128 -12.703  -3.255  0.00  0.00     0.275 HD
HETATM   21  H           1     -18.929 -11.496  -3.385  0.00  0.00     0.275 HD
HETATM   22  H           1     -20.223 -11.300  -2.288  0.00  0.00     0.275 HD
ENDBRANCH  18  19
BRANCH  18  23
HETATM   23  C           1     -22.225 -11.306  -4.096  0.00  0.00     0.053 C 
BRANCH  23  24
HETATM   24  C           1     -22.403 -12.144  -2.836  0.00  0.00     0.115 C 
BRANCH  24  25
HETATM   25  C           1     -23.134 -11.335  -1.792  0.00  0.00     0.172 C 
HETATM   26  O           1     -22.762 -10.170  -1.531  0.00  0.00    -0.648 OA
HETATM   27  O           1     -24.110 -11.829  -1.189  0.00  0.00    -0.648 OA
ENDBRANCH  24  25
ENDBRANCH  23  24
ENDBRANCH  18  23
ENDBRANCH   1  18
TORSDOF 10
ENDMDL
