MODEL 1
REMARK VINA RESULT:      -8.3      0.000      0.000
REMARK  8 active torsions:
REMARK  status: ('A' for Active; 'I' for Inactive)
REMARK    1  A    between atoms: N_4  and  C_10 
REMARK       I    between atoms: N_4  and  C_8 
REMARK    2  A    between atoms: C_8  and  C_9 
REMARK    3  A    between atoms: C_9  and  C_20 
REMARK    4  A    between atoms: C_9  and  N_30 
REMARK    5  A    between atoms: C_10  and  C_11 
REMARK    6  A    between atoms: C_10  and  C_16 
REMARK    7  A    between atoms: C_11  and  C_21 
REMARK       I    between atoms: N_12  and  C_21 
REMARK    8  A    between atoms: C_20  and  C_25 
ROOT
HETATM    1  C           1     -21.084  -5.455  -6.569  0.00  0.00     0.278 C 
ENDROOT
BRANCH   1   2
HETATM    2  C           1     -21.616  -4.435  -7.545  0.00  0.00     0.249 C 
HETATM    3  O           1     -21.503  -3.256  -7.307  0.00  0.00    -0.271 OA
HETATM    4  N           1     -22.227  -4.845  -8.699  0.00  0.00    -0.344 N 
HETATM    5  H           1     -22.323  -5.833  -8.897  0.00  0.00     0.163 HD
BRANCH   4   6
HETATM    6  C           1     -22.740  -3.865  -9.636  0.00  0.00     0.194 C 
BRANCH   6   7
HETATM    7  C           1     -22.224  -4.181 -11.033  0.00  0.00     0.138 C 
BRANCH   7   8
HETATM    8  C           1     -20.732  -3.961 -11.083  0.00  0.00     0.217 C 
HETATM    9  N           1     -20.231  -2.769 -11.532  0.00  0.00    -0.370 N 
HETATM   10  H           1     -20.861  -2.036 -11.831  0.00  0.00     0.159 HD
HETATM   11  H           1     -19.230  -2.621 -11.566  0.00  0.00     0.159 HD
HETATM   12  O           1     -19.979  -4.836 -10.725  0.00  0.00    -0.274 OA
ENDBRANCH   7   8
ENDBRANCH   6   7
BRANCH   6  13
HETATM   13  C           1     -24.247  -3.909  -9.636  0.00  0.00     0.197 C 
HETATM   14  O           1     -24.903  -2.859  -9.460  0.00  0.00    -0.646 OA
HETATM   15  O           1     -24.842  -4.995  -9.811  0.00  0.00    -0.646 OA
ENDBRANCH   6  13
ENDBRANCH   4   6
ENDBRANCH   1   2
BRANCH   1  16
HETATM   16  C           1     -22.209  -5.914  -5.649  0.00  0.00     0.083 C 
BRANCH  16  17
HETATM   17  C           1     -21.726  -7.046  -4.796  0.00  0.00    -0.028 A 
HETATM   18  C           1     -21.782  -7.109  -3.377  0.00  0.00    -0.002 A 
HETATM   19  C           1     -21.229  -8.333  -2.998  0.00  0.00     0.042 A 
HETATM   20  C           1     -22.254  -6.240  -2.375  0.00  0.00     0.014 A 
HETATM   21  N           1     -20.854  -8.982  -4.153  0.00  0.00    -0.365 N 
HETATM   22  C           1     -21.122  -8.732  -1.660  0.00  0.00     0.030 A 
HETATM   23  C           1     -21.150  -8.213  -5.247  0.00  0.00     0.096 A 
HETATM   24  H           1     -20.405  -9.930  -4.189  0.00  0.00     0.165 HD
HETATM   25  C           1     -21.596  -7.851  -0.684  0.00  0.00     0.002 A 
HETATM   26  C           1     -22.154  -6.622  -1.033  0.00  0.00     0.001 A 
ENDBRANCH  16  17
ENDBRANCH   1  16
BRANCH   1  27
HETATM   27  N           1     -19.990  -4.839  -5.749  0.00  0.00    -0.066 N 
HETATM   28  H           1     -19.279  -5.568  -5.514  0.00  0.00     0.275 HD
HETATM   29  H           1     -19.535  -4.073  -6.294  0.00  0.00     0.275 HD
HETATM   30  H           1     -20.392  -4.448  -4.867  0.00  0.00     0.275 HD
ENDBRANCH   1  27
TORSDOF 8
ENDMDL
MODEL 2
REMARK VINA RESULT:      -7.8      2.838      7.966
REMARK  8 active torsions:
REMARK  status: ('A' for Active; 'I' for Inactive)
REMARK    1  A    between atoms: N_4  and  C_10 
REMARK       I    between atoms: N_4  and  C_8 
REMARK    2  A    between atoms: C_8  and  C_9 
REMARK    3  A    between atoms: C_9  and  C_20 
REMARK    4  A    between atoms: C_9  and  N_30 
REMARK    5  A    between atoms: C_10  and  C_11 
REMARK    6  A    between atoms: C_10  and  C_16 
REMARK    7  A    between atoms: C_11  and  C_21 
REMARK       I    between atoms: N_12  and  C_21 
REMARK    8  A    between atoms: C_20  and  C_25 
ROOT
HETATM    1  C           1     -22.230  -5.204  -6.743  0.00  0.00     0.278 C 
ENDROOT
BRANCH   1   2
HETATM    2  C           1     -21.358  -5.687  -5.610  0.00  0.00     0.249 C 
HETATM    3  O           1     -20.451  -4.997  -5.210  0.00  0.00    -0.271 OA
HETATM    4  N           1     -21.595  -6.906  -5.036  0.00  0.00    -0.344 N 
HETATM    5  H           1     -22.355  -7.485  -5.372  0.00  0.00     0.163 HD
BRANCH   4   6
HETATM    6  C           1     -20.757  -7.371  -3.947  0.00  0.00     0.194 C 
BRANCH   6   7
HETATM    7  C           1     -21.632  -7.954  -2.846  0.00  0.00     0.138 C 
BRANCH   7   8
HETATM    8  C           1     -22.052  -6.856  -1.900  0.00  0.00     0.217 C 
HETATM    9  N           1     -22.217  -7.127  -0.569  0.00  0.00    -0.370 N 
HETATM   10  H           1     -22.057  -8.063  -0.219  0.00  0.00     0.159 HD
HETATM   11  H           1     -22.498  -6.391   0.067  0.00  0.00     0.159 HD
HETATM   12  O           1     -22.242  -5.738  -2.317  0.00  0.00    -0.274 OA
ENDBRANCH   7   8
ENDBRANCH   6   7
BRANCH   6  13
HETATM   13  C           1     -19.815  -8.433  -4.456  0.00  0.00     0.197 C 
HETATM   14  O           1     -19.004  -8.976  -3.674  0.00  0.00    -0.646 OA
HETATM   15  O           1     -19.845  -8.771  -5.659  0.00  0.00    -0.646 OA
ENDBRANCH   6  13
ENDBRANCH   4   6
ENDBRANCH   1   2
BRANCH   1  16
HETATM   16  C           1     -21.681  -3.889  -7.282  0.00  0.00     0.083 C 
BRANCH  16  17
HETATM   17  C           1     -21.398  -4.029  -8.746  0.00  0.00    -0.028 A 
HETATM   18  C           1     -22.323  -3.811  -9.803  0.00  0.00    -0.002 A 
HETATM   19  C           1     -21.645  -4.050 -10.999  0.00  0.00     0.042 A 
HETATM   20  C           1     -23.678  -3.430  -9.858  0.00  0.00     0.014 A 
HETATM   21  N           1     -20.355  -4.401 -10.668  0.00  0.00    -0.365 N 
HETATM   22  C           1     -22.256  -3.928 -12.252  0.00  0.00     0.030 A 
HETATM   23  C           1     -20.194  -4.391  -9.308  0.00  0.00     0.096 A 
HETATM   24  H           1     -19.602  -4.641 -11.360  0.00  0.00     0.165 HD
HETATM   25  C           1     -23.602  -3.550 -12.280  0.00  0.00     0.002 A 
HETATM   26  C           1     -24.305  -3.304 -11.102  0.00  0.00     0.001 A 
ENDBRANCH  16  17
ENDBRANCH   1  16
BRANCH   1  27
HETATM   27  N           1     -23.628  -4.993  -6.243  0.00  0.00    -0.066 N 
HETATM   28  H           1     -24.283  -5.613  -6.770  0.00  0.00     0.275 HD
HETATM   29  H           1     -23.672  -5.223  -5.225  0.00  0.00     0.275 HD
HETATM   30  H           1     -23.903  -3.995  -6.386  0.00  0.00     0.275 HD
ENDBRANCH   1  27
TORSDOF 8
ENDMDL
MODEL 3
REMARK VINA RESULT:      -7.6      1.272      2.545
REMARK  8 active torsions:
REMARK  status: ('A' for Active; 'I' for Inactive)
REMARK    1  A    between atoms: N_4  and  C_10 
REMARK       I    between atoms: N_4  and  C_8 
REMARK    2  A    between atoms: C_8  and  C_9 
REMARK    3  A    between atoms: C_9  and  C_20 
REMARK    4  A    between atoms: C_9  and  N_30 
REMARK    5  A    between atoms: C_10  and  C_11 
REMARK    6  A    between atoms: C_10  and  C_16 
REMARK    7  A    between atoms: C_11  and  C_21 
REMARK       I    between atoms: N_12  and  C_21 
REMARK    8  A    between atoms: C_20  and  C_25 
ROOT
HETATM    1  C           1     -20.342  -5.423  -6.835  0.00  0.00     0.278 C 
ENDROOT
BRANCH   1   2
HETATM    2  C           1     -21.387  -5.158  -7.891  0.00  0.00     0.249 C 
HETATM    3  O           1     -22.557  -5.304  -7.633  0.00  0.00    -0.271 OA
HETATM    4  N           1     -21.007  -4.752  -9.142  0.00  0.00    -0.344 N 
HETATM    5  H           1     -20.026  -4.631  -9.358  0.00  0.00     0.163 HD
BRANCH   4   6
HETATM    6  C           1     -22.010  -4.498 -10.157  0.00  0.00     0.194 C 
BRANCH   6   7
HETATM    7  C           1     -22.923  -3.369  -9.698  0.00  0.00     0.138 C 
BRANCH   7   8
HETATM    8  C           1     -24.348  -3.686 -10.080  0.00  0.00     0.217 C 
HETATM    9  N           1     -25.015  -4.701  -9.449  0.00  0.00    -0.370 N 
HETATM   10  H           1     -24.554  -5.238  -8.726  0.00  0.00     0.159 HD
HETATM   11  H           1     -25.972  -4.914  -9.704  0.00  0.00     0.159 HD
HETATM   12  O           1     -24.900  -3.044 -10.941  0.00  0.00    -0.274 OA
ENDBRANCH   7   8
ENDBRANCH   6   7
BRANCH   6  13
HETATM   13  C           1     -21.332  -4.104 -11.446  0.00  0.00     0.197 C 
HETATM   14  O           1     -22.018  -3.796 -12.445  0.00  0.00    -0.646 OA
HETATM   15  O           1     -20.084  -4.083 -11.515  0.00  0.00    -0.646 OA
ENDBRANCH   6  13
ENDBRANCH   4   6
ENDBRANCH   1   2
BRANCH   1  16
HETATM   16  C           1     -20.970  -5.284  -5.454  0.00  0.00     0.083 C 
BRANCH  16  17
HETATM   17  C           1     -20.836  -6.577  -4.711  0.00  0.00    -0.028 A 
HETATM   18  C           1     -21.302  -6.839  -3.393  0.00  0.00    -0.002 A 
HETATM   19  C           1     -20.971  -8.162  -3.095  0.00  0.00     0.042 A 
HETATM   20  C           1     -21.978  -6.075  -2.422  0.00  0.00     0.014 A 
HETATM   21  N           1     -20.327  -8.675  -4.199  0.00  0.00    -0.365 N 
HETATM   22  C           1     -21.282  -8.761  -1.869  0.00  0.00     0.030 A 
HETATM   23  C           1     -20.240  -7.725  -5.183  0.00  0.00     0.096 A 
HETATM   24  H           1     -19.956  -9.654  -4.276  0.00  0.00     0.165 HD
HETATM   25  C           1     -21.952  -7.982  -0.922  0.00  0.00     0.002 A 
HETATM   26  C           1     -22.296  -6.659  -1.191  0.00  0.00     0.001 A 
ENDBRANCH  16  17
ENDBRANCH   1  16
BRANCH   1  27
HETATM   27  N           1     -19.225  -4.433  -6.977  0.00  0.00    -0.066 N 
HETATM   28  H           1     -18.331  -4.869  -6.655  0.00  0.00     0.275 HD
HETATM   29  H           1     -19.135  -4.150  -7.978  0.00  0.00     0.275 HD
HETATM   30  H           1     -19.430  -3.589  -6.394  0.00  0.00     0.275 HD
ENDBRANCH   1  27
TORSDOF 8
ENDMDL
MODEL 4
REMARK VINA RESULT:      -7.5      3.096      7.829
REMARK  8 active torsions:
REMARK  status: ('A' for Active; 'I' for Inactive)
REMARK    1  A    between atoms: N_4  and  C_10 
REMARK       I    between atoms: N_4  and  C_8 
REMARK    2  A    between atoms: C_8  and  C_9 
REMARK    3  A    between atoms: C_9  and  C_20 
REMARK    4  A    between atoms: C_9  and  N_30 
REMARK    5  A    between atoms: C_10  and  C_11 
REMARK    6  A    between atoms: C_10  and  C_16 
REMARK    7  A    between atoms: C_11  and  C_21 
REMARK       I    between atoms: N_12  and  C_21 
REMARK    8  A    between atoms: C_20  and  C_25 
ROOT
HETATM    1  C           1     -20.804  -5.045  -6.404  0.00  0.00     0.278 C 
ENDROOT
BRANCH   1   2
HETATM    2  C           1     -21.119  -6.301  -5.630  0.00  0.00     0.249 C 
HETATM    3  O           1     -21.411  -7.315  -6.217  0.00  0.00    -0.271 OA
HETATM    4  N           1     -21.074  -6.291  -4.262  0.00  0.00    -0.344 N 
HETATM    5  H           1     -20.830  -5.441  -3.770  0.00  0.00     0.163 HD
BRANCH   4   6
HETATM    6  C           1     -21.377  -7.498  -3.517  0.00  0.00     0.194 C 
BRANCH   6   7
HETATM    7  C           1     -20.101  -8.303  -3.313  0.00  0.00     0.138 C 
BRANCH   7   8
HETATM    8  C           1     -20.235  -9.643  -3.993  0.00  0.00     0.217 C 
HETATM    9  N           1     -19.989  -9.756  -5.334  0.00  0.00    -0.370 N 
HETATM   10  H           1     -19.717  -8.942  -5.870  0.00  0.00     0.159 HD
HETATM   11  H           1     -20.079 -10.656  -5.791  0.00  0.00     0.159 HD
HETATM   12  O           1     -20.558 -10.616  -3.354  0.00  0.00    -0.274 OA
ENDBRANCH   7   8
ENDBRANCH   6   7
BRANCH   6  13
HETATM   13  C           1     -21.959  -7.128  -2.176  0.00  0.00     0.197 C 
HETATM   14  O           1     -22.522  -6.023  -2.022  0.00  0.00    -0.646 OA
HETATM   15  O           1     -21.878  -7.928  -1.217  0.00  0.00    -0.646 OA
ENDBRANCH   6  13
ENDBRANCH   4   6
ENDBRANCH   1   2
BRANCH   1  16
HETATM   16  C           1     -20.881  -5.336  -7.897  0.00  0.00     0.083 C 
BRANCH  16  17
HETATM   17  C           1     -22.079  -4.650  -8.479  0.00  0.00    -0.028 A 
HETATM   18  C           1     -22.220  -4.206  -9.822  0.00  0.00    -0.002 A 
HETATM   19  C           1     -23.485  -3.627  -9.933  0.00  0.00     0.042 A 
HETATM   20  C           1     -21.390  -4.242 -10.959  0.00  0.00     0.014 A 
HETATM   21  N           1     -24.081  -3.721  -8.695  0.00  0.00    -0.365 N 
HETATM   22  C           1     -23.963  -3.079 -11.129  0.00  0.00     0.030 A 
HETATM   23  C           1     -23.240  -4.339  -7.808  0.00  0.00     0.096 A 
HETATM   24  H           1     -25.044  -3.370  -8.465  0.00  0.00     0.165 HD
HETATM   25  C           1     -23.120  -3.126 -12.243  0.00  0.00     0.002 A 
HETATM   26  C           1     -21.852  -3.698 -12.163  0.00  0.00     0.001 A 
ENDBRANCH  16  17
ENDBRANCH   1  16
BRANCH   1  27
HETATM   27  N           1     -19.421  -4.578  -6.057  0.00  0.00    -0.066 N 
HETATM   28  H           1     -19.089  -3.905  -6.785  0.00  0.00     0.275 HD
HETATM   29  H           1     -19.436  -4.105  -5.126  0.00  0.00     0.275 HD
HETATM   30  H           1     -18.774  -5.398  -6.021  0.00  0.00     0.275 HD
ENDBRANCH   1  27
TORSDOF 8
ENDMDL
MODEL 5
REMARK VINA RESULT:      -7.4     13.259     15.863
REMARK  8 active torsions:
REMARK  status: ('A' for Active; 'I' for Inactive)
REMARK    1  A    between atoms: N_4  and  C_10 
REMARK       I    between atoms: N_4  and  C_8 
REMARK    2  A    between atoms: C_8  and  C_9 
REMARK    3  A    between atoms: C_9  and  C_20 
REMARK    4  A    between atoms: C_9  and  N_30 
REMARK    5  A    between atoms: C_10  and  C_11 
REMARK    6  A    between atoms: C_10  and  C_16 
REMARK    7  A    between atoms: C_11  and  C_21 
REMARK       I    between atoms: N_12  and  C_21 
REMARK    8  A    between atoms: C_20  and  C_25 
ROOT
HETATM    1  C           1     -36.221  -0.397 -11.022  0.00  0.00     0.278 C 
ENDROOT
BRANCH   1   2
HETATM    2  C           1     -36.617  -0.317 -12.475  0.00  0.00     0.249 C 
HETATM    3  O           1     -37.735  -0.622 -12.815  0.00  0.00    -0.271 OA
HETATM    4  N           1     -35.709   0.103 -13.409  0.00  0.00    -0.344 N 
HETATM    5  H           1     -34.771   0.358 -13.125  0.00  0.00     0.163 HD
BRANCH   4   6
HETATM    6  C           1     -36.088   0.180 -14.806  0.00  0.00     0.194 C 
BRANCH   6   7
HETATM    7  C           1     -35.499   1.441 -15.423  0.00  0.00     0.138 C 
BRANCH   7   8
HETATM    8  C           1     -36.567   2.167 -16.204  0.00  0.00     0.217 C 
HETATM    9  N           1     -37.870   1.756 -16.125  0.00  0.00    -0.370 N 
HETATM   10  H           1     -38.118   0.966 -15.544  0.00  0.00     0.159 HD
HETATM   11  H           1     -38.587   2.243 -16.649  0.00  0.00     0.159 HD
HETATM   12  O           1     -36.273   3.112 -16.898  0.00  0.00    -0.274 OA
ENDBRANCH   7   8
ENDBRANCH   6   7
BRANCH   6  13
HETATM   13  C           1     -35.562  -1.030 -15.538  0.00  0.00     0.197 C 
HETATM   14  O           1     -35.054  -1.976 -14.898  0.00  0.00    -0.646 OA
HETATM   15  O           1     -35.636  -1.087 -16.785  0.00  0.00    -0.646 OA
ENDBRANCH   6  13
ENDBRANCH   4   6
ENDBRANCH   1   2
BRANCH   1  16
HETATM   16  C           1     -36.307  -1.844 -10.551  0.00  0.00     0.083 C 
BRANCH  16  17
HETATM   17  C           1     -35.021  -2.547 -10.861  0.00  0.00    -0.028 A 
HETATM   18  C           1     -34.798  -3.950 -10.800  0.00  0.00    -0.002 A 
HETATM   19  C           1     -33.469  -4.171 -11.166  0.00  0.00     0.042 A 
HETATM   20  C           1     -35.602  -5.058 -10.468  0.00  0.00     0.014 A 
HETATM   21  N           1     -32.915  -2.940 -11.436  0.00  0.00    -0.365 N 
HETATM   22  C           1     -32.902  -5.450 -11.216  0.00  0.00     0.030 A 
HETATM   23  C           1     -33.845  -1.950 -11.256  0.00  0.00     0.096 A 
HETATM   24  H           1     -31.922  -2.783 -11.739  0.00  0.00     0.165 HD
HETATM   25  C           1     -33.720  -6.533 -10.881  0.00  0.00     0.002 A 
HETATM   26  C           1     -35.050  -6.343 -10.513  0.00  0.00     0.001 A 
ENDBRANCH  16  17
ENDBRANCH   1  16
BRANCH   1  27
HETATM   27  N           1     -37.150   0.448 -10.203  0.00  0.00    -0.066 N 
HETATM   28  H           1     -37.061   1.448 -10.497  0.00  0.00     0.275 HD
HETATM   29  H           1     -38.133   0.129 -10.350  0.00  0.00     0.275 HD
HETATM   30  H           1     -36.903   0.361  -9.191  0.00  0.00     0.275 HD
ENDBRANCH   1  27
TORSDOF 8
ENDMDL
MODEL 6
REMARK VINA RESULT:      -7.2      3.520      7.906
REMARK  8 active torsions:
REMARK  status: ('A' for Active; 'I' for Inactive)
REMARK    1  A    between atoms: N_4  and  C_10 
REMARK       I    between atoms: N_4  and  C_8 
REMARK    2  A    between atoms: C_8  and  C_9 
REMARK    3  A    between atoms: C_9  and  C_20 
REMARK    4  A    between atoms: C_9  and  N_30 
REMARK    5  A    between atoms: C_10  and  C_11 
REMARK    6  A    between atoms: C_10  and  C_16 
REMARK    7  A    between atoms: C_11  and  C_21 
REMARK       I    between atoms: N_12  and  C_21 
REMARK    8  A    between atoms: C_20  and  C_25 
ROOT
HETATM    1  C           1     -20.757  -5.493  -6.151  0.00  0.00     0.278 C 
ENDROOT
BRANCH   1   2
HETATM    2  C           1     -20.101  -6.840  -5.969  0.00  0.00     0.249 C 
HETATM    3  O           1     -19.272  -7.220  -6.761  0.00  0.00    -0.271 OA
HETATM    4  N           1     -20.447  -7.631  -4.907  0.00  0.00    -0.344 N 
HETATM    5  H           1     -21.142  -7.313  -4.244  0.00  0.00     0.163 HD
BRANCH   4   6
HETATM    6  C           1     -19.818  -8.926  -4.732  0.00  0.00     0.194 C 
BRANCH   6   7
HETATM    7  C           1     -19.308  -9.054  -3.303  0.00  0.00     0.138 C 
BRANCH   7   8
HETATM    8  C           1     -17.947  -9.705  -3.309  0.00  0.00     0.217 C 
HETATM    9  N           1     -17.209  -9.735  -4.461  0.00  0.00    -0.370 N 
HETATM   10  H           1     -17.575  -9.321  -5.308  0.00  0.00     0.159 HD
HETATM   11  H           1     -16.295 -10.172  -4.466  0.00  0.00     0.159 HD
HETATM   12  O           1     -17.508 -10.199  -2.297  0.00  0.00    -0.274 OA
ENDBRANCH   7   8
ENDBRANCH   6   7
BRANCH   6  13
HETATM   13  C           1     -20.824 -10.015  -5.006  0.00  0.00     0.197 C 
HETATM   14  O           1     -21.297 -10.682  -4.060  0.00  0.00    -0.646 OA
HETATM   15  O           1     -21.187 -10.251  -6.179  0.00  0.00    -0.646 OA
ENDBRANCH   6  13
ENDBRANCH   4   6
ENDBRANCH   1   2
BRANCH   1  16
HETATM   16  C           1     -20.544  -5.014  -7.581  0.00  0.00     0.083 C 
BRANCH  16  17
HETATM   17  C           1     -21.843  -4.526  -8.144  0.00  0.00    -0.028 A 
HETATM   18  C           1     -22.065  -4.079  -9.475  0.00  0.00    -0.002 A 
HETATM   19  C           1     -23.410  -3.719  -9.569  0.00  0.00     0.042 A 
HETATM   20  C           1     -21.247  -3.946 -10.614  0.00  0.00     0.014 A 
HETATM   21  N           1     -23.975  -3.943  -8.333  0.00  0.00    -0.365 N 
HETATM   22  C           1     -23.981  -3.230 -10.750  0.00  0.00     0.030 A 
HETATM   23  C           1     -23.037  -4.432  -7.464  0.00  0.00     0.096 A 
HETATM   24  H           1     -24.982  -3.766  -8.093  0.00  0.00     0.165 HD
HETATM   25  C           1     -23.149  -3.107 -11.866  0.00  0.00     0.002 A 
HETATM   26  C           1     -21.802  -3.458 -11.802  0.00  0.00     0.001 A 
ENDBRANCH  16  17
ENDBRANCH   1  16
BRANCH   1  27
HETATM   27  N           1     -20.146  -4.508  -5.199  0.00  0.00    -0.066 N 
HETATM   28  H           1     -20.571  -4.631  -4.252  0.00  0.00     0.275 HD
HETATM   29  H           1     -19.116  -4.670  -5.143  0.00  0.00     0.275 HD
HETATM   30  H           1     -20.328  -3.536  -5.537  0.00  0.00     0.275 HD
ENDBRANCH   1  27
TORSDOF 8
ENDMDL
MODEL 7
REMARK VINA RESULT:      -7.2      3.659      7.752
REMARK  8 active torsions:
REMARK  status: ('A' for Active; 'I' for Inactive)
REMARK    1  A    between atoms: N_4  and  C_10 
REMARK       I    between atoms: N_4  and  C_8 
REMARK    2  A    between atoms: C_8  and  C_9 
REMARK    3  A    between atoms: C_9  and  C_20 
REMARK    4  A    between atoms: C_9  and  N_30 
REMARK    5  A    between atoms: C_10  and  C_11 
REMARK    6  A    between atoms: C_10  and  C_16 
REMARK    7  A    between atoms: C_11  and  C_21 
REMARK       I    between atoms: N_12  and  C_21 
REMARK    8  A    between atoms: C_20  and  C_25 
ROOT
HETATM    1  C           1     -21.565  -6.479  -5.272  0.00  0.00     0.278 C 
ENDROOT
BRANCH   1   2
HETATM    2  C           1     -21.006  -7.877  -5.193  0.00  0.00     0.249 C 
HETATM    3  O           1     -21.318  -8.701  -6.020  0.00  0.00    -0.271 OA
HETATM    4  N           1     -20.143  -8.213  -4.185  0.00  0.00    -0.344 N 
HETATM    5  H           1     -19.882  -7.523  -3.492  0.00  0.00     0.163 HD
BRANCH   4   6
HETATM    6  C           1     -19.605  -9.557  -4.108  0.00  0.00     0.194 C 
BRANCH   6   7
HETATM    7  C           1     -18.099  -9.515  -4.327  0.00  0.00     0.138 C 
BRANCH   7   8
HETATM    8  C           1     -17.791  -9.809  -5.774  0.00  0.00     0.217 C 
HETATM    9  N           1     -17.195 -10.992  -6.119  0.00  0.00    -0.370 N 
HETATM   10  H           1     -16.963 -11.670  -5.405  0.00  0.00     0.159 HD
HETATM   11  H           1     -16.988 -11.190  -7.091  0.00  0.00     0.159 HD
HETATM   12  O           1     -18.069  -9.001  -6.628  0.00  0.00    -0.274 OA
ENDBRANCH   7   8
ENDBRANCH   6   7
BRANCH   6  13
HETATM   13  C           1     -19.899 -10.139  -2.748  0.00  0.00     0.197 C 
HETATM   14  O           1     -20.449  -9.437  -1.872  0.00  0.00    -0.646 OA
HETATM   15  O           1     -19.593 -11.326  -2.496  0.00  0.00    -0.646 OA
ENDBRANCH   6  13
ENDBRANCH   4   6
ENDBRANCH   1   2
BRANCH   1  16
HETATM   16  C           1     -20.774  -5.671  -6.293  0.00  0.00     0.083 C 
BRANCH  16  17
HETATM   17  C           1     -21.719  -5.007  -7.246  0.00  0.00    -0.028 A 
HETATM   18  C           1     -21.429  -4.627  -8.585  0.00  0.00    -0.002 A 
HETATM   19  C           1     -22.585  -4.045  -9.107  0.00  0.00     0.042 A 
HETATM   20  C           1     -20.289  -4.723  -9.407  0.00  0.00     0.014 A 
HETATM   21  N           1     -23.536  -4.076  -8.112  0.00  0.00    -0.365 N 
HETATM   22  C           1     -22.659  -3.552 -10.415  0.00  0.00     0.030 A 
HETATM   23  C           1     -23.023  -4.656  -6.982  0.00  0.00     0.096 A 
HETATM   24  H           1     -24.515  -3.708  -8.207  0.00  0.00     0.165 HD
HETATM   25  C           1     -21.514  -3.658 -11.211  0.00  0.00     0.002 A 
HETATM   26  C           1     -20.345  -4.234 -10.717  0.00  0.00     0.001 A 
ENDBRANCH  16  17
ENDBRANCH   1  16
BRANCH   1  27
HETATM   27  N           1     -21.461  -5.822  -3.928  0.00  0.00    -0.066 N 
HETATM   28  H           1     -21.540  -6.547  -3.179  0.00  0.00     0.275 HD
HETATM   29  H           1     -20.539  -5.337  -3.848  0.00  0.00     0.275 HD
HETATM   30  H           1     -22.232  -5.124  -3.819  0.00  0.00     0.275 HD
ENDBRANCH   1  27
TORSDOF 8
ENDMDL
MODEL 8
REMARK VINA RESULT:      -7.0      2.736      7.546
REMARK  8 active torsions:
REMARK  status: ('A' for Active; 'I' for Inactive)
REMARK    1  A    between atoms: N_4  and  C_10 
REMARK       I    between atoms: N_4  and  C_8 
REMARK    2  A    between atoms: C_8  and  C_9 
REMARK    3  A    between atoms: C_9  and  C_20 
REMARK    4  A    between atoms: C_9  and  N_30 
REMARK    5  A    between atoms: C_10  and  C_11 
REMARK    6  A    between atoms: C_10  and  C_16 
REMARK    7  A    between atoms: C_11  and  C_21 
REMARK       I    between atoms: N_12  and  C_21 
REMARK    8  A    between atoms: C_20  and  C_25 
ROOT
HETATM    1  C           1     -20.388  -5.123  -6.532  0.00  0.00     0.278 C 
ENDROOT
BRANCH   1   2
HETATM    2  C           1     -21.329  -5.852  -5.604  0.00  0.00     0.249 C 
HETATM    3  O           1     -22.514  -5.622  -5.644  0.00  0.00    -0.271 OA
HETATM    4  N           1     -20.839  -6.773  -4.719  0.00  0.00    -0.344 N 
HETATM    5  H           1     -19.846  -6.965  -4.685  0.00  0.00     0.163 HD
BRANCH   4   6
HETATM    6  C           1     -21.743  -7.473  -3.827  0.00  0.00     0.194 C 
BRANCH   6   7
HETATM    7  C           1     -21.383  -8.952  -3.798  0.00  0.00     0.138 C 
BRANCH   7   8
HETATM    8  C           1     -19.988  -9.143  -4.339  0.00  0.00     0.217 C 
HETATM    9  N           1     -18.922  -9.191  -3.481  0.00  0.00    -0.370 N 
HETATM   10  H           1     -19.070  -9.099  -2.484  0.00  0.00     0.159 HD
HETATM   11  H           1     -17.985  -9.319  -3.844  0.00  0.00     0.159 HD
HETATM   12  O           1     -19.810  -9.254  -5.529  0.00  0.00    -0.274 OA
ENDBRANCH   7   8
ENDBRANCH   6   7
BRANCH   6  13
HETATM   13  C           1     -21.623  -6.900  -2.437  0.00  0.00     0.197 C 
HETATM   14  O           1     -20.862  -7.436  -1.603  0.00  0.00    -0.646 OA
HETATM   15  O           1     -22.284  -5.887  -2.119  0.00  0.00    -0.646 OA
ENDBRANCH   6  13
ENDBRANCH   4   6
ENDBRANCH   1   2
BRANCH   1  16
HETATM   16  C           1     -21.079  -3.884  -7.086  0.00  0.00     0.083 C 
BRANCH  16  17
HETATM   17  C           1     -21.108  -3.954  -8.582  0.00  0.00    -0.028 A 
HETATM   18  C           1     -22.263  -3.849  -9.404  0.00  0.00    -0.002 A 
HETATM   19  C           1     -21.838  -3.967 -10.728  0.00  0.00     0.042 A 
HETATM   20  C           1     -23.635  -3.663  -9.148  0.00  0.00     0.014 A 
HETATM   21  N           1     -20.472  -4.138 -10.699  0.00  0.00    -0.365 N 
HETATM   22  C           1     -22.720  -3.910 -11.813  0.00  0.00     0.030 A 
HETATM   23  C           1     -20.019  -4.131  -9.406  0.00  0.00     0.096 A 
HETATM   24  H           1     -19.864  -4.256 -11.547  0.00  0.00     0.165 HD
HETATM   25  C           1     -24.077  -3.725 -11.533  0.00  0.00     0.002 A 
HETATM   26  C           1     -24.531  -3.603 -10.221  0.00  0.00     0.001 A 
ENDBRANCH  16  17
ENDBRANCH   1  16
BRANCH   1  27
HETATM   27  N           1     -20.003  -6.027  -7.665  0.00  0.00    -0.066 N 
HETATM   28  H           1     -20.533  -5.754  -8.523  0.00  0.00     0.275 HD
HETATM   29  H           1     -18.978  -5.941  -7.846  0.00  0.00     0.275 HD
HETATM   30  H           1     -20.230  -7.016  -7.415  0.00  0.00     0.275 HD
ENDBRANCH   1  27
TORSDOF 8
ENDMDL
MODEL 9
REMARK VINA RESULT:      -6.8      2.112      3.563
REMARK  8 active torsions:
REMARK  status: ('A' for Active; 'I' for Inactive)
REMARK    1  A    between atoms: N_4  and  C_10 
REMARK       I    between atoms: N_4  and  C_8 
REMARK    2  A    between atoms: C_8  and  C_9 
REMARK    3  A    between atoms: C_9  and  C_20 
REMARK    4  A    between atoms: C_9  and  N_30 
REMARK    5  A    between atoms: C_10  and  C_11 
REMARK    6  A    between atoms: C_10  and  C_16 
REMARK    7  A    between atoms: C_11  and  C_21 
REMARK       I    between atoms: N_12  and  C_21 
REMARK    8  A    between atoms: C_20  and  C_25 
ROOT
HETATM    1  C           1     -21.172  -7.010  -4.144  0.00  0.00     0.278 C 
ENDROOT
BRANCH   1   2
HETATM    2  C           1     -21.157  -6.624  -5.602  0.00  0.00     0.249 C 
HETATM    3  O           1     -21.145  -7.480  -6.454  0.00  0.00    -0.271 OA
HETATM    4  N           1     -21.157  -5.303  -5.960  0.00  0.00    -0.344 N 
HETATM    5  H           1     -21.166  -4.585  -5.246  0.00  0.00     0.163 HD
BRANCH   4   6
HETATM    6  C           1     -21.142  -4.931  -7.361  0.00  0.00     0.194 C 
BRANCH   6   7
HETATM    7  C           1     -22.143  -3.808  -7.599  0.00  0.00     0.138 C 
BRANCH   7   8
HETATM    8  C           1     -23.075  -4.193  -8.721  0.00  0.00     0.217 C 
HETATM    9  N           1     -24.358  -3.715  -8.738  0.00  0.00    -0.370 N 
HETATM   10  H           1     -24.681  -3.104  -7.999  0.00  0.00     0.159 HD
HETATM   11  H           1     -24.985  -3.973  -9.491  0.00  0.00     0.159 HD
HETATM   12  O           1     -22.691  -4.922  -9.604  0.00  0.00    -0.274 OA
ENDBRANCH   7   8
ENDBRANCH   6   7
BRANCH   6  13
HETATM   13  C           1     -19.760  -4.461  -7.742  0.00  0.00     0.197 C 
HETATM   14  O           1     -19.598  -3.762  -8.766  0.00  0.00    -0.646 OA
HETATM   15  O           1     -18.777  -4.771  -7.034  0.00  0.00    -0.646 OA
ENDBRANCH   6  13
ENDBRANCH   4   6
ENDBRANCH   1   2
BRANCH   1  16
HETATM   16  C           1     -21.883  -8.348  -3.980  0.00  0.00     0.083 C 
BRANCH  16  17
HETATM   17  C           1     -21.250  -9.117  -2.861  0.00  0.00    -0.028 A 
HETATM   18  C           1     -21.431  -8.877  -1.472  0.00  0.00    -0.002 A 
HETATM   19  C           1     -20.662  -9.820  -0.788  0.00  0.00     0.042 A 
HETATM   20  C           1     -22.179  -7.944  -0.727  0.00  0.00     0.014 A 
HETATM   21  N           1     -20.040 -10.599  -1.738  0.00  0.00    -0.365 N 
HETATM   22  C           1     -20.603  -9.876   0.609  0.00  0.00     0.030 A 
HETATM   23  C           1     -20.390 -10.183  -2.996  0.00  0.00     0.096 A 
HETATM   24  H           1     -19.393 -11.398  -1.528  0.00  0.00     0.165 HD
HETATM   25  C           1     -21.353  -8.940   1.326  0.00  0.00     0.002 A 
HETATM   26  C           1     -22.130  -7.987   0.671  0.00  0.00     0.001 A 
ENDBRANCH  16  17
ENDBRANCH   1  16
BRANCH   1  27
HETATM   27  N           1     -21.897  -5.961  -3.356  0.00  0.00    -0.066 N 
HETATM   28  H           1     -21.468  -5.026  -3.544  0.00  0.00     0.275 HD
HETATM   29  H           1     -22.902  -5.945  -3.638  0.00  0.00     0.275 HD
HETATM   30  H           1     -21.824  -6.176  -2.336  0.00  0.00     0.275 HD
ENDBRANCH   1  27
TORSDOF 8
ENDMDL
