MODEL 1
REMARK VINA RESULT:      -5.7      0.000      0.000
REMARK  8 active torsions:
REMARK  status: ('A' for Active; 'I' for Inactive)
REMARK       I    between atoms: C_2  and  N_3 
REMARK    1  A    between atoms: C_2  and  C_12 
REMARK    2  A    between atoms: N_3  and  C_7 
REMARK    3  A    between atoms: C_5  and  C_14 
REMARK    4  A    between atoms: C_5  and  C_6 
REMARK    5  A    between atoms: C_6  and  N_20 
REMARK    6  A    between atoms: C_7  and  C_8 
REMARK    7  A    between atoms: C_12  and  C_14 
REMARK    8  A    between atoms: C_12  and  N_19 
ROOT
HETATM    1  C           1     -23.913  -4.389 -10.529  0.00  0.00     0.274 C 
ENDROOT
BRANCH   1   2
HETATM    2  C           1     -22.615  -4.553  -9.779  0.00  0.00     0.249 C 
HETATM    3  N           1     -22.626  -4.726  -8.420  0.00  0.00    -0.345 N 
HETATM    4  H           1     -23.506  -4.744  -7.920  0.00  0.00     0.163 HD
HETATM    5  O           1     -21.564  -4.530 -10.375  0.00  0.00    -0.271 OA
BRANCH   3   6
HETATM    6  C           1     -21.379  -4.883  -7.698  0.00  0.00     0.181 C 
HETATM    7  C           1     -20.978  -3.550  -7.081  0.00  0.00     0.043 C 
BRANCH   6   8
HETATM    8  C           1     -21.556  -5.910  -6.608  0.00  0.00     0.196 C 
HETATM    9  O           1     -20.943  -6.998  -6.668  0.00  0.00    -0.646 OA
HETATM   10  O           1     -22.316  -5.674  -5.644  0.00  0.00    -0.646 OA
ENDBRANCH   6   8
ENDBRANCH   3   6
ENDBRANCH   1   2
BRANCH   1  11
HETATM   11  C           1     -23.902  -3.065 -11.281  0.00  0.00     0.044 C 
BRANCH  11  12
HETATM   12  C           1     -24.381  -3.289 -12.710  0.00  0.00     0.030 C 
BRANCH  12  13
HETATM   13  C           1     -23.286  -2.872 -13.684  0.00  0.00     0.230 C 
BRANCH  13  14
HETATM   14  N           1     -21.970  -3.421 -13.222  0.00  0.00    -0.079 N 
HETATM   15  H           1     -22.055  -4.451 -13.073  0.00  0.00     0.274 HD
HETATM   16  H           1     -21.241  -3.233 -13.947  0.00  0.00     0.274 HD
HETATM   17  H           1     -21.696  -2.959 -12.325  0.00  0.00     0.274 HD
ENDBRANCH  13  14
ENDBRANCH  12  13
ENDBRANCH  11  12
ENDBRANCH   1  11
BRANCH   1  18
HETATM   18  N           1     -25.057  -4.403  -9.559  0.00  0.00    -0.067 N 
HETATM   19  H           1     -25.193  -3.443  -9.168  0.00  0.00     0.275 HD
HETATM   20  H           1     -24.847  -5.070  -8.782  0.00  0.00     0.275 HD
HETATM   21  H           1     -25.928  -4.705 -10.050  0.00  0.00     0.275 HD
ENDBRANCH   1  18
TORSDOF 8
ENDMDL
MODEL 2
REMARK VINA RESULT:      -5.6      1.552      2.779
REMARK  8 active torsions:
REMARK  status: ('A' for Active; 'I' for Inactive)
REMARK       I    between atoms: C_2  and  N_3 
REMARK    1  A    between atoms: C_2  and  C_12 
REMARK    2  A    between atoms: N_3  and  C_7 
REMARK    3  A    between atoms: C_5  and  C_14 
REMARK    4  A    between atoms: C_5  and  C_6 
REMARK    5  A    between atoms: C_6  and  N_20 
REMARK    6  A    between atoms: C_7  and  C_8 
REMARK    7  A    between atoms: C_12  and  C_14 
REMARK    8  A    between atoms: C_12  and  N_19 
ROOT
HETATM    1  C           1     -21.448  -3.183 -11.375  0.00  0.00     0.274 C 
ENDROOT
BRANCH   1   2
HETATM    2  C           1     -20.675  -4.129 -10.489  0.00  0.00     0.249 C 
HETATM    3  N           1     -20.909  -4.149  -9.141  0.00  0.00    -0.345 N 
HETATM    4  H           1     -21.601  -3.530  -8.738  0.00  0.00     0.163 HD
HETATM    5  O           1     -19.848  -4.867 -10.969  0.00  0.00    -0.271 OA
BRANCH   3   6
HETATM    6  C           1     -20.167  -5.058  -8.289  0.00  0.00     0.181 C 
HETATM    7  C           1     -19.068  -4.291  -7.565  0.00  0.00     0.043 C 
BRANCH   6   8
HETATM    8  C           1     -21.101  -5.674  -7.278  0.00  0.00     0.196 C 
HETATM    9  O           1     -22.118  -5.050  -6.903  0.00  0.00    -0.646 OA
HETATM   10  O           1     -20.859  -6.810  -6.813  0.00  0.00    -0.646 OA
ENDBRANCH   6   8
ENDBRANCH   3   6
ENDBRANCH   1   2
BRANCH   1  11
HETATM   11  C           1     -22.822  -2.927 -10.770  0.00  0.00     0.044 C 
BRANCH  11  12
HETATM   12  C           1     -23.764  -4.061 -11.151  0.00  0.00     0.030 C 
BRANCH  12  13
HETATM   13  C           1     -24.382  -4.654  -9.891  0.00  0.00     0.230 C 
BRANCH  13  14
HETATM   14  N           1     -24.273  -3.666  -8.768  0.00  0.00    -0.079 N 
HETATM   15  H           1     -24.744  -2.775  -9.041  0.00  0.00     0.274 HD
HETATM   16  H           1     -24.734  -4.056  -7.915  0.00  0.00     0.274 HD
HETATM   17  H           1     -23.265  -3.481  -8.564  0.00  0.00     0.274 HD
ENDBRANCH  13  14
ENDBRANCH  12  13
ENDBRANCH  11  12
ENDBRANCH   1  11
BRANCH   1  18
HETATM   18  N           1     -21.608  -3.791 -12.737  0.00  0.00    -0.067 N 
HETATM   19  H           1     -21.747  -3.033 -13.443  0.00  0.00     0.275 HD
HETATM   20  H           1     -22.437  -4.427 -12.739  0.00  0.00     0.275 HD
HETATM   21  H           1     -20.751  -4.338 -12.978  0.00  0.00     0.275 HD
ENDBRANCH   1  18
TORSDOF 8
ENDMDL
MODEL 3
REMARK VINA RESULT:      -5.5      2.877      6.574
REMARK  8 active torsions:
REMARK  status: ('A' for Active; 'I' for Inactive)
REMARK       I    between atoms: C_2  and  N_3 
REMARK    1  A    between atoms: C_2  and  C_12 
REMARK    2  A    between atoms: N_3  and  C_7 
REMARK    3  A    between atoms: C_5  and  C_14 
REMARK    4  A    between atoms: C_5  and  C_6 
REMARK    5  A    between atoms: C_6  and  N_20 
REMARK    6  A    between atoms: C_7  and  C_8 
REMARK    7  A    between atoms: C_12  and  C_14 
REMARK    8  A    between atoms: C_12  and  N_19 
ROOT
HETATM    1  C           1     -20.975  -4.341 -10.920  0.00  0.00     0.274 C 
ENDROOT
BRANCH   1   2
HETATM    2  C           1     -22.222  -4.284 -11.765  0.00  0.00     0.249 C 
HETATM    3  N           1     -22.325  -3.363 -12.774  0.00  0.00    -0.345 N 
HETATM    4  H           1     -21.562  -2.721 -12.952  0.00  0.00     0.163 HD
HETATM    5  O           1     -23.133  -5.048 -11.553  0.00  0.00    -0.271 OA
BRANCH   3   6
HETATM    6  C           1     -23.524  -3.307 -13.586  0.00  0.00     0.181 C 
HETATM    7  C           1     -24.694  -2.837 -12.732  0.00  0.00     0.043 C 
BRANCH   6   8
HETATM    8  C           1     -23.313  -2.341 -14.726  0.00  0.00     0.196 C 
HETATM    9  O           1     -24.054  -1.342 -14.845  0.00  0.00    -0.646 OA
HETATM   10  O           1     -22.396  -2.541 -15.553  0.00  0.00    -0.646 OA
ENDBRANCH   6   8
ENDBRANCH   3   6
ENDBRANCH   1   2
BRANCH   1  11
HETATM   11  C           1     -21.341  -4.135  -9.456  0.00  0.00     0.044 C 
BRANCH  11  12
HETATM   12  C           1     -20.274  -4.766  -8.571  0.00  0.00     0.030 C 
BRANCH  12  13
HETATM   13  C           1     -20.894  -5.178  -7.242  0.00  0.00     0.230 C 
BRANCH  13  14
HETATM   14  N           1     -20.584  -6.620  -6.970  0.00  0.00    -0.079 N 
HETATM   15  H           1     -20.027  -7.011  -7.762  0.00  0.00     0.274 HD
HETATM   16  H           1     -20.033  -6.696  -6.085  0.00  0.00     0.274 HD
HETATM   17  H           1     -21.476  -7.154  -6.871  0.00  0.00     0.274 HD
ENDBRANCH  13  14
ENDBRANCH  12  13
ENDBRANCH  11  12
ENDBRANCH   1  11
BRANCH   1  18
HETATM   18  N           1     -20.026  -3.263 -11.354  0.00  0.00    -0.067 N 
HETATM   19  H           1     -19.222  -3.218 -10.688  0.00  0.00     0.275 HD
HETATM   20  H           1     -20.524  -2.344 -11.363  0.00  0.00     0.275 HD
HETATM   21  H           1     -19.672  -3.475 -12.313  0.00  0.00     0.275 HD
ENDBRANCH   1  18
TORSDOF 8
ENDMDL
MODEL 4
REMARK VINA RESULT:      -5.4      8.532     10.385
REMARK  8 active torsions:
REMARK  status: ('A' for Active; 'I' for Inactive)
REMARK       I    between atoms: C_2  and  N_3 
REMARK    1  A    between atoms: C_2  and  C_12 
REMARK    2  A    between atoms: N_3  and  C_7 
REMARK    3  A    between atoms: C_5  and  C_14 
REMARK    4  A    between atoms: C_5  and  C_6 
REMARK    5  A    between atoms: C_6  and  N_20 
REMARK    6  A    between atoms: C_7  and  C_8 
REMARK    7  A    between atoms: C_12  and  C_14 
REMARK    8  A    between atoms: C_12  and  N_19 
ROOT
HETATM    1  C           1     -25.149  -6.736 -17.020  0.00  0.00     0.274 C 
ENDROOT
BRANCH   1   2
HETATM    2  C           1     -26.452  -7.019 -16.316  0.00  0.00     0.249 C 
HETATM    3  N           1     -27.640  -6.731 -16.933  0.00  0.00    -0.345 N 
HETATM    4  H           1     -27.644  -6.329 -17.861  0.00  0.00     0.163 HD
HETATM    5  O           1     -26.449  -7.497 -15.207  0.00  0.00    -0.271 OA
BRANCH   3   6
HETATM    6  C           1     -28.893  -7.002 -16.256  0.00  0.00     0.181 C 
HETATM    7  C           1     -29.282  -5.800 -15.406  0.00  0.00     0.043 C 
BRANCH   6   8
HETATM    8  C           1     -29.970  -7.265 -17.280  0.00  0.00     0.196 C 
HETATM    9  O           1     -29.800  -8.140 -18.156  0.00  0.00    -0.646 OA
HETATM   10  O           1     -31.033  -6.606 -17.253  0.00  0.00    -0.646 OA
ENDBRANCH   6   8
ENDBRANCH   3   6
ENDBRANCH   1   2
BRANCH   1  11
HETATM   11  C           1     -25.377  -6.718 -18.526  0.00  0.00     0.044 C 
BRANCH  11  12
HETATM   12  C           1     -24.103  -7.154 -19.238  0.00  0.00     0.030 C 
BRANCH  12  13
HETATM   13  C           1     -24.461  -7.807 -20.566  0.00  0.00     0.230 C 
BRANCH  13  14
HETATM   14  N           1     -23.340  -8.702 -21.003  0.00  0.00    -0.079 N 
HETATM   15  H           1     -23.298  -8.722 -22.047  0.00  0.00     0.274 HD
HETATM   16  H           1     -22.436  -8.337 -20.625  0.00  0.00     0.274 HD
HETATM   17  H           1     -23.505  -9.667 -20.640  0.00  0.00     0.274 HD
ENDBRANCH  13  14
ENDBRANCH  12  13
ENDBRANCH  11  12
ENDBRANCH   1  11
BRANCH   1  18
HETATM   18  N           1     -24.154  -7.805 -16.679  0.00  0.00    -0.067 N 
HETATM   19  H           1     -23.936  -7.766 -15.658  0.00  0.00     0.275 HD
HETATM   20  H           1     -23.278  -7.654 -17.228  0.00  0.00     0.275 HD
HETATM   21  H           1     -24.553  -8.741 -16.914  0.00  0.00     0.275 HD
ENDBRANCH   1  18
TORSDOF 8
ENDMDL
MODEL 5
REMARK VINA RESULT:      -5.3     10.052     11.782
REMARK  8 active torsions:
REMARK  status: ('A' for Active; 'I' for Inactive)
REMARK       I    between atoms: C_2  and  N_3 
REMARK    1  A    between atoms: C_2  and  C_12 
REMARK    2  A    between atoms: N_3  and  C_7 
REMARK    3  A    between atoms: C_5  and  C_14 
REMARK    4  A    between atoms: C_5  and  C_6 
REMARK    5  A    between atoms: C_6  and  N_20 
REMARK    6  A    between atoms: C_7  and  C_8 
REMARK    7  A    between atoms: C_12  and  C_14 
REMARK    8  A    between atoms: C_12  and  N_19 
ROOT
HETATM    1  C           1     -25.245  -6.672 -19.140  0.00  0.00     0.274 C 
ENDROOT
BRANCH   1   2
HETATM    2  C           1     -26.530  -6.426 -18.390  0.00  0.00     0.249 C 
HETATM    3  N           1     -27.720  -6.862 -18.909  0.00  0.00    -0.345 N 
HETATM    4  H           1     -27.736  -7.351 -19.795  0.00  0.00     0.163 HD
HETATM    5  O           1     -26.512  -5.842 -17.333  0.00  0.00    -0.271 OA
BRANCH   3   6
HETATM    6  C           1     -28.956  -6.626 -18.189  0.00  0.00     0.181 C 
HETATM    7  C           1     -29.502  -5.253 -18.556  0.00  0.00     0.043 C 
BRANCH   6   8
HETATM    8  C           1     -29.964  -7.686 -18.561  0.00  0.00     0.196 C 
HETATM    9  O           1     -31.146  -7.591 -18.165  0.00  0.00    -0.646 OA
HETATM   10  O           1     -29.617  -8.659 -19.265  0.00  0.00    -0.646 OA
ENDBRANCH   6   8
ENDBRANCH   3   6
ENDBRANCH   1   2
BRANCH   1  11
HETATM   11  C           1     -25.534  -7.492 -20.390  0.00  0.00     0.044 C 
BRANCH  11  12
HETATM   12  C           1     -24.672  -6.986 -21.540  0.00  0.00     0.030 C 
BRANCH  12  13
HETATM   13  C           1     -23.926  -8.155 -22.170  0.00  0.00     0.230 C 
BRANCH  13  14
HETATM   14  N           1     -23.032  -8.788 -21.146  0.00  0.00    -0.079 N 
HETATM   15  H           1     -23.471  -9.670 -20.800  0.00  0.00     0.274 HD
HETATM   16  H           1     -22.107  -9.006 -21.580  0.00  0.00     0.274 HD
HETATM   17  H           1     -22.895  -8.127 -20.348  0.00  0.00     0.274 HD
ENDBRANCH  13  14
ENDBRANCH  12  13
ENDBRANCH  11  12
ENDBRANCH   1  11
BRANCH   1  18
HETATM   18  N           1     -24.289  -7.421 -18.261  0.00  0.00    -0.067 N 
HETATM   19  H           1     -24.216  -8.411 -18.590  0.00  0.00     0.275 HD
HETATM   20  H           1     -24.636  -7.405 -17.276  0.00  0.00     0.275 HD
HETATM   21  H           1     -23.347  -6.971 -18.305  0.00  0.00     0.275 HD
ENDBRANCH   1  18
TORSDOF 8
ENDMDL
MODEL 6
REMARK VINA RESULT:      -5.3      2.685      6.380
REMARK  8 active torsions:
REMARK  status: ('A' for Active; 'I' for Inactive)
REMARK       I    between atoms: C_2  and  N_3 
REMARK    1  A    between atoms: C_2  and  C_12 
REMARK    2  A    between atoms: N_3  and  C_7 
REMARK    3  A    between atoms: C_5  and  C_14 
REMARK    4  A    between atoms: C_5  and  C_6 
REMARK    5  A    between atoms: C_6  and  N_20 
REMARK    6  A    between atoms: C_7  and  C_8 
REMARK    7  A    between atoms: C_12  and  C_14 
REMARK    8  A    between atoms: C_12  and  N_19 
ROOT
HETATM    1  C           1     -21.190  -5.924  -6.847  0.00  0.00     0.274 C 
ENDROOT
BRANCH   1   2
HETATM    2  C           1     -21.641  -4.749  -7.679  0.00  0.00     0.249 C 
HETATM    3  N           1     -21.738  -4.871  -9.039  0.00  0.00    -0.345 N 
HETATM    4  H           1     -21.509  -5.749  -9.486  0.00  0.00     0.163 HD
HETATM    5  O           1     -21.915  -3.700  -7.146  0.00  0.00    -0.271 OA
BRANCH   3   6
HETATM    6  C           1     -22.171  -3.742  -9.839  0.00  0.00     0.181 C 
HETATM    7  C           1     -21.243  -3.582 -11.035  0.00  0.00     0.043 C 
BRANCH   6   8
HETATM    8  C           1     -23.580  -3.981 -10.324  0.00  0.00     0.196 C 
HETATM    9  O           1     -23.946  -5.134 -10.640  0.00  0.00    -0.646 OA
HETATM   10  O           1     -24.383  -3.026 -10.409  0.00  0.00    -0.646 OA
ENDBRANCH   6   8
ENDBRANCH   3   6
ENDBRANCH   1   2
BRANCH   1  11
HETATM   11  C           1     -21.107  -5.509  -5.384  0.00  0.00     0.044 C 
BRANCH  11  12
HETATM   12  C           1     -22.040  -6.382  -4.554  0.00  0.00     0.030 C 
BRANCH  12  13
HETATM   13  C           1     -21.453  -6.575  -3.163  0.00  0.00     0.230 C 
BRANCH  13  14
HETATM   14  N           1     -22.306  -5.865  -2.155  0.00  0.00    -0.079 N 
HETATM   15  H           1     -21.743  -5.671  -1.297  0.00  0.00     0.274 HD
HETATM   16  H           1     -22.646  -4.964  -2.560  0.00  0.00     0.274 HD
HETATM   17  H           1     -23.125  -6.466  -1.909  0.00  0.00     0.274 HD
ENDBRANCH  13  14
ENDBRANCH  12  13
ENDBRANCH  11  12
ENDBRANCH   1  11
BRANCH   1  18
HETATM   18  N           1     -19.840  -6.379  -7.315  0.00  0.00    -0.067 N 
HETATM   19  H           1     -19.936  -6.871  -8.232  0.00  0.00     0.275 HD
HETATM   20  H           1     -19.429  -7.032  -6.610  0.00  0.00     0.275 HD
HETATM   21  H           1     -19.213  -5.552  -7.428  0.00  0.00     0.275 HD
ENDBRANCH   1  18
TORSDOF 8
ENDMDL
MODEL 7
REMARK VINA RESULT:      -5.2      1.466      1.897
REMARK  8 active torsions:
REMARK  status: ('A' for Active; 'I' for Inactive)
REMARK       I    between atoms: C_2  and  N_3 
REMARK    1  A    between atoms: C_2  and  C_12 
REMARK    2  A    between atoms: N_3  and  C_7 
REMARK    3  A    between atoms: C_5  and  C_14 
REMARK    4  A    between atoms: C_5  and  C_6 
REMARK    5  A    between atoms: C_6  and  N_20 
REMARK    6  A    between atoms: C_7  and  C_8 
REMARK    7  A    between atoms: C_12  and  C_14 
REMARK    8  A    between atoms: C_12  and  N_19 
ROOT
HETATM    1  C           1     -22.728  -4.517  -9.331  0.00  0.00     0.274 C 
ENDROOT
BRANCH   1   2
HETATM    2  C           1     -21.512  -4.909  -8.528  0.00  0.00     0.249 C 
HETATM    3  N           1     -21.659  -5.409  -7.262  0.00  0.00    -0.345 N 
HETATM    4  H           1     -22.583  -5.518  -6.865  0.00  0.00     0.163 HD
HETATM    5  O           1     -20.408  -4.779  -9.001  0.00  0.00    -0.271 OA
BRANCH   3   6
HETATM    6  C           1     -20.491  -5.786  -6.491  0.00  0.00     0.181 C 
HETATM    7  C           1     -20.164  -4.681  -5.494  0.00  0.00     0.043 C 
BRANCH   6   8
HETATM    8  C           1     -20.771  -7.068  -5.747  0.00  0.00     0.196 C 
HETATM    9  O           1     -21.864  -7.225  -5.161  0.00  0.00    -0.646 OA
HETATM   10  O           1     -19.911  -7.975  -5.718  0.00  0.00    -0.646 OA
ENDBRANCH   6   8
ENDBRANCH   3   6
ENDBRANCH   1   2
BRANCH   1  11
HETATM   11  C           1     -22.337  -3.477 -10.372  0.00  0.00     0.044 C 
BRANCH  11  12
HETATM   12  C           1     -22.415  -4.095 -11.762  0.00  0.00     0.030 C 
BRANCH  12  13
HETATM   13  C           1     -23.158  -3.151 -12.698  0.00  0.00     0.230 C 
BRANCH  13  14
HETATM   14  N           1     -22.465  -3.116 -14.027  0.00  0.00    -0.079 N 
HETATM   15  H           1     -21.854  -2.271 -14.078  0.00  0.00     0.274 HD
HETATM   16  H           1     -21.881  -3.975 -14.139  0.00  0.00     0.274 HD
HETATM   17  H           1     -23.178  -3.078 -14.790  0.00  0.00     0.274 HD
ENDBRANCH  13  14
ENDBRANCH  12  13
ENDBRANCH  11  12
ENDBRANCH   1  11
BRANCH   1  18
HETATM   18  N           1     -23.767  -3.941  -8.415  0.00  0.00    -0.067 N 
HETATM   19  H           1     -24.491  -3.442  -8.980  0.00  0.00     0.275 HD
HETATM   20  H           1     -23.315  -3.269  -7.755  0.00  0.00     0.275 HD
HETATM   21  H           1     -24.219  -4.711  -7.872  0.00  0.00     0.275 HD
ENDBRANCH   1  18
TORSDOF 8
ENDMDL
MODEL 8
REMARK VINA RESULT:      -5.2      2.909      4.973
REMARK  8 active torsions:
REMARK  status: ('A' for Active; 'I' for Inactive)
REMARK       I    between atoms: C_2  and  N_3 
REMARK    1  A    between atoms: C_2  and  C_12 
REMARK    2  A    between atoms: N_3  and  C_7 
REMARK    3  A    between atoms: C_5  and  C_14 
REMARK    4  A    between atoms: C_5  and  C_6 
REMARK    5  A    between atoms: C_6  and  N_20 
REMARK    6  A    between atoms: C_7  and  C_8 
REMARK    7  A    between atoms: C_12  and  C_14 
REMARK    8  A    between atoms: C_12  and  N_19 
ROOT
HETATM    1  C           1     -20.462  -4.969  -6.587  0.00  0.00     0.274 C 
ENDROOT
BRANCH   1   2
HETATM    2  C           1     -21.382  -5.745  -5.678  0.00  0.00     0.249 C 
HETATM    3  N           1     -20.867  -6.672  -4.812  0.00  0.00    -0.345 N 
HETATM    4  H           1     -19.869  -6.836  -4.782  0.00  0.00     0.163 HD
HETATM    5  O           1     -22.574  -5.551  -5.714  0.00  0.00    -0.271 OA
BRANCH   3   6
HETATM    6  C           1     -21.751  -7.419  -3.938  0.00  0.00     0.181 C 
HETATM    7  C           1     -21.346  -8.887  -3.941  0.00  0.00     0.043 C 
BRANCH   6   8
HETATM    8  C           1     -21.650  -6.872  -2.536  0.00  0.00     0.196 C 
HETATM    9  O           1     -22.346  -5.891  -2.196  0.00  0.00    -0.646 OA
HETATM   10  O           1     -20.870  -7.400  -1.713  0.00  0.00    -0.646 OA
ENDBRANCH   6   8
ENDBRANCH   3   6
ENDBRANCH   1   2
BRANCH   1  11
HETATM   11  C           1     -21.224  -3.806  -7.209  0.00  0.00     0.044 C 
BRANCH  11  12
HETATM   12  C           1     -21.469  -4.092  -8.686  0.00  0.00     0.030 C 
BRANCH  12  13
HETATM   13  C           1     -22.876  -3.648  -9.063  0.00  0.00     0.230 C 
BRANCH  13  14
HETATM   14  N           1     -23.844  -4.104  -8.013  0.00  0.00    -0.079 N 
HETATM   15  H           1     -23.790  -3.464  -7.189  0.00  0.00     0.274 HD
HETATM   16  H           1     -24.814  -4.089  -8.403  0.00  0.00     0.274 HD
HETATM   17  H           1     -23.603  -5.077  -7.717  0.00  0.00     0.274 HD
ENDBRANCH  13  14
ENDBRANCH  12  13
ENDBRANCH  11  12
ENDBRANCH   1  11
BRANCH   1  18
HETATM   18  N           1     -19.954  -5.871  -7.672  0.00  0.00    -0.067 N 
HETATM   19  H           1     -20.668  -5.939  -8.432  0.00  0.00     0.275 HD
HETATM   20  H           1     -19.771  -6.821  -7.278  0.00  0.00     0.275 HD
HETATM   21  H           1     -19.067  -5.481  -8.063  0.00  0.00     0.275 HD
ENDBRANCH   1  18
TORSDOF 8
ENDMDL
MODEL 9
REMARK VINA RESULT:      -5.1      1.677      2.026
REMARK  8 active torsions:
REMARK  status: ('A' for Active; 'I' for Inactive)
REMARK       I    between atoms: C_2  and  N_3 
REMARK    1  A    between atoms: C_2  and  C_12 
REMARK    2  A    between atoms: N_3  and  C_7 
REMARK    3  A    between atoms: C_5  and  C_14 
REMARK    4  A    between atoms: C_5  and  C_6 
REMARK    5  A    between atoms: C_6  and  N_20 
REMARK    6  A    between atoms: C_7  and  C_8 
REMARK    7  A    between atoms: C_12  and  C_14 
REMARK    8  A    between atoms: C_12  and  N_19 
ROOT
HETATM    1  C           1     -23.587  -4.439  -9.155  0.00  0.00     0.274 C 
ENDROOT
BRANCH   1   2
HETATM    2  C           1     -22.402  -4.204  -8.252  0.00  0.00     0.249 C 
HETATM    3  N           1     -22.131  -5.080  -7.235  0.00  0.00    -0.345 N 
HETATM    4  H           1     -22.726  -5.886  -7.090  0.00  0.00     0.163 HD
HETATM    5  O           1     -21.692  -3.242  -8.424  0.00  0.00    -0.271 OA
BRANCH   3   6
HETATM    6  C           1     -20.993  -4.854  -6.366  0.00  0.00     0.181 C 
HETATM    7  C           1     -21.209  -5.583  -5.046  0.00  0.00     0.043 C 
BRANCH   6   8
HETATM    8  C           1     -19.743  -5.376  -7.031  0.00  0.00     0.196 C 
HETATM    9  O           1     -19.586  -6.606  -7.191  0.00  0.00    -0.646 OA
HETATM   10  O           1     -18.864  -4.578  -7.422  0.00  0.00    -0.646 OA
ENDBRANCH   6   8
ENDBRANCH   3   6
ENDBRANCH   1   2
BRANCH   1  11
HETATM   11  C           1     -23.119  -4.499 -10.603  0.00  0.00     0.044 C 
BRANCH  11  12
HETATM   12  C           1     -23.719  -3.333 -11.379  0.00  0.00     0.030 C 
BRANCH  12  13
HETATM   13  C           1     -22.624  -2.635 -12.175  0.00  0.00     0.230 C 
BRANCH  13  14
HETATM   14  N           1     -21.285  -2.990 -11.602  0.00  0.00    -0.079 N 
HETATM   15  H           1     -20.841  -2.135 -11.199  0.00  0.00     0.274 HD
HETATM   16  H           1     -21.406  -3.706 -10.851  0.00  0.00     0.274 HD
HETATM   17  H           1     -20.675  -3.378 -12.357  0.00  0.00     0.274 HD
ENDBRANCH  13  14
ENDBRANCH  12  13
ENDBRANCH  11  12
ENDBRANCH   1  11
BRANCH   1  18
HETATM   18  N           1     -24.570  -3.318  -8.994  0.00  0.00    -0.067 N 
HETATM   19  H           1     -24.274  -2.508  -9.584  0.00  0.00     0.275 HD
HETATM   20  H           1     -24.602  -3.025  -7.991  0.00  0.00     0.275 HD
HETATM   21  H           1     -25.518  -3.638  -9.293  0.00  0.00     0.275 HD
ENDBRANCH   1  18
TORSDOF 8
ENDMDL
