MODEL 1
REMARK VINA RESULT:      -5.6      0.000      0.000
REMARK  8 active torsions:
REMARK  status: ('A' for Active; 'I' for Inactive)
REMARK    1  A    between atoms: C_1  and  C_5 
REMARK    2  A    between atoms: C_1  and  C_2 
REMARK    3  A    between atoms: C_2  and  C_12 
REMARK    4  A    between atoms: C_2  and  N_9 
REMARK    5  A    between atoms: O_7  and  C_8 
REMARK    6  A    between atoms: C_8  and  C_14 
REMARK       I    between atoms: N_9  and  C_10 
REMARK    7  A    between atoms: C_10  and  C_14 
REMARK    8  A    between atoms: C_14  and  N_16 
ROOT
HETATM    1  N           1     -23.288  -3.258 -11.828  0.00  0.00    -0.344 N 
HETATM    2  C           1     -23.603  -3.273 -13.160  0.00  0.00     0.251 C 
HETATM    3  O           1     -24.387  -4.087 -13.586  0.00  0.00    -0.271 OA
HETATM    4  H           1     -22.631  -2.576 -11.471  0.00  0.00     0.163 HD
ENDROOT
BRANCH   1   5
HETATM    5  C           1     -23.896  -4.219 -10.928  0.00  0.00     0.195 C 
BRANCH   5   6
HETATM    6  C           1     -22.807  -5.043 -10.255  0.00  0.00     0.149 C 
BRANCH   6   7
HETATM    7  C           1     -21.472  -4.367 -10.447  0.00  0.00     0.175 C 
HETATM    8  O           1     -21.019  -3.613  -9.559  0.00  0.00    -0.648 OA
HETATM    9  O           1     -20.818  -4.562 -11.494  0.00  0.00    -0.648 OA
ENDBRANCH   6   7
ENDBRANCH   5   6
BRANCH   5  10
HETATM   10  C           1     -24.696  -3.488  -9.879  0.00  0.00     0.197 C 
HETATM   11  O           1     -24.200  -3.274  -8.751  0.00  0.00    -0.646 OA
HETATM   12  O           1     -25.854  -3.095 -10.136  0.00  0.00    -0.646 OA
ENDBRANCH   5  10
ENDBRANCH   1   5
BRANCH   2  13
HETATM   13  C           1     -22.970  -2.273 -14.096  0.00  0.00     0.297 C 
BRANCH  13  14
HETATM   14  C           1     -24.045  -1.350 -14.656  0.00  0.00     0.206 C 
BRANCH  14  15
HETATM   15  O           1     -25.174  -1.388 -13.825  0.00  0.00    -0.398 OA
HETATM   16  H           1     -25.769  -0.729 -14.140  0.00  0.00     0.209 HD
ENDBRANCH  14  15
ENDBRANCH  13  14
BRANCH  13  17
HETATM   17  N           1     -22.299  -2.999 -15.223  0.00  0.00    -0.064 N 
HETATM   18  H           1     -22.999  -3.207 -15.971  0.00  0.00     0.275 HD
HETATM   19  H           1     -21.537  -2.402 -15.617  0.00  0.00     0.275 HD
HETATM   20  H           1     -21.892  -3.893 -14.868  0.00  0.00     0.275 HD
ENDBRANCH  13  17
ENDBRANCH   2  13
TORSDOF 8
ENDMDL
MODEL 2
REMARK VINA RESULT:      -5.5      1.562      3.263
REMARK  8 active torsions:
REMARK  status: ('A' for Active; 'I' for Inactive)
REMARK    1  A    between atoms: C_1  and  C_5 
REMARK    2  A    between atoms: C_1  and  C_2 
REMARK    3  A    between atoms: C_2  and  C_12 
REMARK    4  A    between atoms: C_2  and  N_9 
REMARK    5  A    between atoms: O_7  and  C_8 
REMARK    6  A    between atoms: C_8  and  C_14 
REMARK       I    between atoms: N_9  and  C_10 
REMARK    7  A    between atoms: C_10  and  C_14 
REMARK    8  A    between atoms: C_14  and  N_16 
ROOT
HETATM    1  N           1     -22.234  -4.010 -11.271  0.00  0.00    -0.344 N 
HETATM    2  C           1     -22.442  -3.038 -12.211  0.00  0.00     0.251 C 
HETATM    3  O           1     -22.235  -1.879 -11.938  0.00  0.00    -0.271 OA
HETATM    4  H           1     -22.407  -4.981 -11.500  0.00  0.00     0.163 HD
ENDROOT
BRANCH   1   5
HETATM    5  C           1     -21.764  -3.650  -9.947  0.00  0.00     0.195 C 
BRANCH   5   6
HETATM    6  C           1     -22.845  -3.965  -8.922  0.00  0.00     0.149 C 
BRANCH   6   7
HETATM    7  C           1     -24.198  -3.924  -9.588  0.00  0.00     0.175 C 
HETATM    8  O           1     -24.645  -4.943 -10.160  0.00  0.00    -0.648 OA
HETATM    9  O           1     -24.873  -2.872  -9.567  0.00  0.00    -0.648 OA
ENDBRANCH   6   7
ENDBRANCH   5   6
BRANCH   5  10
HETATM   10  C           1     -20.518  -4.438  -9.624  0.00  0.00     0.197 C 
HETATM   11  O           1     -20.182  -4.615  -8.433  0.00  0.00    -0.646 OA
HETATM   12  O           1     -19.823  -4.915 -10.547  0.00  0.00    -0.646 OA
ENDBRANCH   5  10
ENDBRANCH   1   5
BRANCH   2  13
HETATM   13  C           1     -22.930  -3.413 -13.589  0.00  0.00     0.297 C 
BRANCH  13  14
HETATM   14  C           1     -23.337  -2.154 -14.344  0.00  0.00     0.206 C 
BRANCH  14  15
HETATM   15  O           1     -24.547  -1.669 -13.827  0.00  0.00    -0.398 OA
HETATM   16  H           1     -25.136  -1.569 -14.555  0.00  0.00     0.209 HD
ENDBRANCH  14  15
ENDBRANCH  13  14
BRANCH  13  17
HETATM   17  N           1     -24.113  -4.327 -13.468  0.00  0.00    -0.064 N 
HETATM   18  H           1     -24.563  -4.194 -12.534  0.00  0.00     0.275 HD
HETATM   19  H           1     -24.803  -4.105 -14.221  0.00  0.00     0.275 HD
HETATM   20  H           1     -23.798  -5.319 -13.565  0.00  0.00     0.275 HD
ENDBRANCH  13  17
ENDBRANCH   2  13
TORSDOF 8
ENDMDL
MODEL 3
REMARK VINA RESULT:      -5.4      3.365      5.703
REMARK  8 active torsions:
REMARK  status: ('A' for Active; 'I' for Inactive)
REMARK    1  A    between atoms: C_1  and  C_5 
REMARK    2  A    between atoms: C_1  and  C_2 
REMARK    3  A    between atoms: C_2  and  C_12 
REMARK    4  A    between atoms: C_2  and  N_9 
REMARK    5  A    between atoms: O_7  and  C_8 
REMARK    6  A    between atoms: C_8  and  C_14 
REMARK       I    between atoms: N_9  and  C_10 
REMARK    7  A    between atoms: C_10  and  C_14 
REMARK    8  A    between atoms: C_14  and  N_16 
ROOT
HETATM    1  N           1     -22.505  -4.790  -8.308  0.00  0.00    -0.344 N 
HETATM    2  C           1     -21.770  -4.333  -7.248  0.00  0.00     0.251 C 
HETATM    3  O           1     -21.374  -3.192  -7.235  0.00  0.00    -0.271 OA
HETATM    4  H           1     -22.837  -5.746  -8.319  0.00  0.00     0.163 HD
ENDROOT
BRANCH   1   5
HETATM    5  C           1     -22.809  -3.904  -9.415  0.00  0.00     0.195 C 
BRANCH   5   6
HETATM    6  C           1     -22.168  -4.442 -10.687  0.00  0.00     0.149 C 
BRANCH   6   7
HETATM    7  C           1     -20.707  -4.066 -10.713  0.00  0.00     0.175 C 
HETATM    8  O           1     -19.853  -4.841 -10.229  0.00  0.00    -0.648 OA
HETATM    9  O           1     -20.350  -2.980 -11.218  0.00  0.00    -0.648 OA
ENDBRANCH   6   7
ENDBRANCH   5   6
BRANCH   5  10
HETATM   10  C           1     -24.304  -3.825  -9.599  0.00  0.00     0.197 C 
HETATM   11  O           1     -24.893  -2.729  -9.474  0.00  0.00    -0.646 OA
HETATM   12  O           1     -24.956  -4.855  -9.879  0.00  0.00    -0.646 OA
ENDBRANCH   5  10
ENDBRANCH   1   5
BRANCH   2  13
HETATM   13  C           1     -21.454  -5.255  -6.096  0.00  0.00     0.297 C 
BRANCH  13  14
HETATM   14  C           1     -20.572  -6.396  -6.586  0.00  0.00     0.206 C 
BRANCH  14  15
HETATM   15  O           1     -19.889  -5.996  -7.743  0.00  0.00    -0.398 OA
HETATM   16  H           1     -18.969  -6.024  -7.542  0.00  0.00     0.209 HD
ENDBRANCH  14  15
ENDBRANCH  13  14
BRANCH  13  17
HETATM   17  N           1     -22.729  -5.814  -5.539  0.00  0.00    -0.064 N 
HETATM   18  H           1     -23.125  -6.514  -6.206  0.00  0.00     0.275 HD
HETATM   19  H           1     -22.535  -6.277  -4.623  0.00  0.00     0.275 HD
HETATM   20  H           1     -23.417  -5.039  -5.399  0.00  0.00     0.275 HD
ENDBRANCH  13  17
ENDBRANCH   2  13
TORSDOF 8
ENDMDL
MODEL 4
REMARK VINA RESULT:      -5.2      2.216      2.988
REMARK  8 active torsions:
REMARK  status: ('A' for Active; 'I' for Inactive)
REMARK    1  A    between atoms: C_1  and  C_5 
REMARK    2  A    between atoms: C_1  and  C_2 
REMARK    3  A    between atoms: C_2  and  C_12 
REMARK    4  A    between atoms: C_2  and  N_9 
REMARK    5  A    between atoms: O_7  and  C_8 
REMARK    6  A    between atoms: C_8  and  C_14 
REMARK       I    between atoms: N_9  and  C_10 
REMARK    7  A    between atoms: C_10  and  C_14 
REMARK    8  A    between atoms: C_14  and  N_16 
ROOT
HETATM    1  N           1     -22.225  -3.318  -9.864  0.00  0.00    -0.344 N 
HETATM    2  C           1     -22.498  -3.821 -11.107  0.00  0.00     0.251 C 
HETATM    3  O           1     -22.520  -5.016 -11.284  0.00  0.00    -0.271 OA
HETATM    4  H           1     -22.207  -2.317  -9.716  0.00  0.00     0.163 HD
ENDROOT
BRANCH   1   5
HETATM    5  C           1     -21.965  -4.219  -8.758  0.00  0.00     0.195 C 
BRANCH   5   6
HETATM    6  C           1     -20.810  -3.679  -7.925  0.00  0.00     0.149 C 
BRANCH   6   7
HETATM    7  C           1     -19.780  -4.764  -7.728  0.00  0.00     0.175 C 
HETATM    8  O           1     -20.105  -5.965  -7.853  0.00  0.00    -0.648 OA
HETATM    9  O           1     -18.602  -4.462  -7.438  0.00  0.00    -0.648 OA
ENDBRANCH   6   7
ENDBRANCH   5   6
BRANCH   5  10
HETATM   10  C           1     -23.198  -4.329  -7.898  0.00  0.00     0.197 C 
HETATM   11  O           1     -24.326  -4.108  -8.390  0.00  0.00    -0.646 OA
HETATM   12  O           1     -23.094  -4.642  -6.692  0.00  0.00    -0.646 OA
ENDBRANCH   5  10
ENDBRANCH   1   5
BRANCH   2  13
HETATM   13  C           1     -22.771  -2.883 -12.257  0.00  0.00     0.297 C 
BRANCH  13  14
HETATM   14  C           1     -24.271  -2.810 -12.510  0.00  0.00     0.206 C 
BRANCH  14  15
HETATM   15  O           1     -24.960  -3.167 -11.342  0.00  0.00    -0.398 OA
HETATM   16  H           1     -24.373  -3.015 -10.621  0.00  0.00     0.209 HD
ENDBRANCH  14  15
ENDBRANCH  13  14
BRANCH  13  17
HETATM   17  N           1     -22.082  -3.390 -13.489  0.00  0.00    -0.064 N 
HETATM   18  H           1     -21.048  -3.388 -13.338  0.00  0.00     0.275 HD
HETATM   19  H           1     -22.402  -4.364 -13.691  0.00  0.00     0.275 HD
HETATM   20  H           1     -22.316  -2.772 -14.299  0.00  0.00     0.275 HD
ENDBRANCH  13  17
ENDBRANCH   2  13
TORSDOF 8
ENDMDL
MODEL 5
REMARK VINA RESULT:      -5.2      2.460      5.602
REMARK  8 active torsions:
REMARK  status: ('A' for Active; 'I' for Inactive)
REMARK    1  A    between atoms: C_1  and  C_5 
REMARK    2  A    between atoms: C_1  and  C_2 
REMARK    3  A    between atoms: C_2  and  C_12 
REMARK    4  A    between atoms: C_2  and  N_9 
REMARK    5  A    between atoms: O_7  and  C_8 
REMARK    6  A    between atoms: C_8  and  C_14 
REMARK       I    between atoms: N_9  and  C_10 
REMARK    7  A    between atoms: C_10  and  C_14 
REMARK    8  A    between atoms: C_14  and  N_16 
ROOT
HETATM    1  N           1     -21.833  -3.972  -9.731  0.00  0.00    -0.344 N 
HETATM    2  C           1     -20.619  -4.354  -9.229  0.00  0.00     0.251 C 
HETATM    3  O           1     -19.879  -5.038  -9.894  0.00  0.00    -0.271 OA
HETATM    4  H           1     -22.454  -3.399  -9.173  0.00  0.00     0.163 HD
ENDROOT
BRANCH   1   5
HETATM    5  C           1     -22.231  -4.387 -11.062  0.00  0.00     0.195 C 
BRANCH   5   6
HETATM    6  C           1     -23.677  -4.864 -11.034  0.00  0.00     0.149 C 
BRANCH   6   7
HETATM    7  C           1     -24.464  -4.030 -10.054  0.00  0.00     0.175 C 
HETATM    8  O           1     -25.324  -3.223 -10.469  0.00  0.00    -0.648 OA
HETATM    9  O           1     -24.257  -4.146  -8.826  0.00  0.00    -0.648 OA
ENDBRANCH   6   7
ENDBRANCH   5   6
BRANCH   5  10
HETATM   10  C           1     -22.104  -3.222 -12.011  0.00  0.00     0.197 C 
HETATM   11  O           1     -22.697  -3.244 -13.111  0.00  0.00    -0.646 OA
HETATM   12  O           1     -21.406  -2.233 -11.698  0.00  0.00    -0.646 OA
ENDBRANCH   5  10
ENDBRANCH   1   5
BRANCH   2  13
HETATM   13  C           1     -20.205  -3.921  -7.843  0.00  0.00     0.297 C 
BRANCH  13  14
HETATM   14  C           1     -19.615  -5.109  -7.095  0.00  0.00     0.206 C 
BRANCH  14  15
HETATM   15  O           1     -20.367  -6.259  -7.375  0.00  0.00    -0.398 OA
HETATM   16  H           1     -21.143  -6.214  -6.844  0.00  0.00     0.209 HD
ENDBRANCH  14  15
ENDBRANCH  13  14
BRANCH  13  17
HETATM   17  N           1     -21.404  -3.409  -7.101  0.00  0.00    -0.064 N 
HETATM   18  H           1     -21.584  -2.415  -7.371  0.00  0.00     0.275 HD
HETATM   19  H           1     -22.237  -3.991  -7.343  0.00  0.00     0.275 HD
HETATM   20  H           1     -21.227  -3.464  -6.073  0.00  0.00     0.275 HD
ENDBRANCH  13  17
ENDBRANCH   2  13
TORSDOF 8
ENDMDL
MODEL 6
REMARK VINA RESULT:      -5.1      2.818      5.473
REMARK  8 active torsions:
REMARK  status: ('A' for Active; 'I' for Inactive)
REMARK    1  A    between atoms: C_1  and  C_5 
REMARK    2  A    between atoms: C_1  and  C_2 
REMARK    3  A    between atoms: C_2  and  C_12 
REMARK    4  A    between atoms: C_2  and  N_9 
REMARK    5  A    between atoms: O_7  and  C_8 
REMARK    6  A    between atoms: C_8  and  C_14 
REMARK       I    between atoms: N_9  and  C_10 
REMARK    7  A    between atoms: C_10  and  C_14 
REMARK    8  A    between atoms: C_14  and  N_16 
ROOT
HETATM    1  N           1     -22.251  -4.885  -9.260  0.00  0.00    -0.344 N 
HETATM    2  C           1     -21.627  -4.428  -8.132  0.00  0.00     0.251 C 
HETATM    3  O           1     -21.637  -3.248  -7.872  0.00  0.00    -0.271 OA
HETATM    4  H           1     -22.243  -5.873  -9.478  0.00  0.00     0.163 HD
ENDROOT
BRANCH   1   5
HETATM    5  C           1     -22.927  -3.954 -10.143  0.00  0.00     0.195 C 
BRANCH   5   6
HETATM    6  C           1     -22.774  -4.420 -11.584  0.00  0.00     0.149 C 
BRANCH   6   7
HETATM    7  C           1     -23.383  -3.398 -12.512  0.00  0.00     0.175 C 
HETATM    8  O           1     -22.995  -2.209 -12.475  0.00  0.00    -0.648 OA
HETATM    9  O           1     -24.275  -3.739 -13.319  0.00  0.00    -0.648 OA
ENDBRANCH   6   7
ENDBRANCH   5   6
BRANCH   5  10
HETATM   10  C           1     -24.391  -3.895  -9.785  0.00  0.00     0.197 C 
HETATM   11  O           1     -25.072  -4.944  -9.759  0.00  0.00    -0.646 OA
HETATM   12  O           1     -24.925  -2.798  -9.514  0.00  0.00    -0.646 OA
ENDBRANCH   5  10
ENDBRANCH   1   5
BRANCH   2  13
HETATM   13  C           1     -20.924  -5.397  -7.213  0.00  0.00     0.297 C 
BRANCH  13  14
HETATM   14  C           1     -21.809  -5.687  -6.008  0.00  0.00     0.206 C 
BRANCH  14  15
HETATM   15  O           1     -23.074  -5.115  -6.207  0.00  0.00    -0.398 OA
HETATM   16  H           1     -23.319  -5.296  -7.098  0.00  0.00     0.209 HD
ENDBRANCH  14  15
ENDBRANCH  13  14
BRANCH  13  17
HETATM   17  N           1     -19.630  -4.797  -6.749  0.00  0.00    -0.064 N 
HETATM   18  H           1     -19.751  -4.406  -5.788  0.00  0.00     0.275 HD
HETATM   19  H           1     -18.891  -5.535  -6.733  0.00  0.00     0.275 HD
HETATM   20  H           1     -19.346  -4.033  -7.403  0.00  0.00     0.275 HD
ENDBRANCH  13  17
ENDBRANCH   2  13
TORSDOF 8
ENDMDL
MODEL 7
REMARK VINA RESULT:      -4.6      2.589      5.796
REMARK  8 active torsions:
REMARK  status: ('A' for Active; 'I' for Inactive)
REMARK    1  A    between atoms: C_1  and  C_5 
REMARK    2  A    between atoms: C_1  and  C_2 
REMARK    3  A    between atoms: C_2  and  C_12 
REMARK    4  A    between atoms: C_2  and  N_9 
REMARK    5  A    between atoms: O_7  and  C_8 
REMARK    6  A    between atoms: C_8  and  C_14 
REMARK       I    between atoms: N_9  and  C_10 
REMARK    7  A    between atoms: C_10  and  C_14 
REMARK    8  A    between atoms: C_14  and  N_16 
ROOT
HETATM    1  N           1     -22.605  -4.177  -9.548  0.00  0.00    -0.344 N 
HETATM    2  C           1     -21.803  -4.665  -8.552  0.00  0.00     0.251 C 
HETATM    3  O           1     -20.901  -5.423  -8.820  0.00  0.00    -0.271 OA
HETATM    4  H           1     -23.360  -3.541  -9.324  0.00  0.00     0.163 HD
ENDROOT
BRANCH   1   5
HETATM    5  C           1     -22.372  -4.569 -10.924  0.00  0.00     0.195 C 
BRANCH   5   6
HETATM    6  C           1     -23.707  -4.743 -11.635  0.00  0.00     0.149 C 
BRANCH   6   7
HETATM    7  C           1     -24.535  -3.493 -11.468  0.00  0.00     0.175 C 
HETATM    8  O           1     -24.646  -2.685 -12.416  0.00  0.00    -0.648 OA
HETATM    9  O           1     -25.109  -3.264 -10.382  0.00  0.00    -0.648 OA
ENDBRANCH   6   7
ENDBRANCH   5   6
BRANCH   5  10
HETATM   10  C           1     -21.566  -3.501 -11.622  0.00  0.00     0.197 C 
HETATM   11  O           1     -20.847  -2.725 -10.955  0.00  0.00    -0.646 OA
HETATM   12  O           1     -21.616  -3.392 -12.866  0.00  0.00    -0.646 OA
ENDBRANCH   5  10
ENDBRANCH   1   5
BRANCH   2  13
HETATM   13  C           1     -22.045  -4.256  -7.120  0.00  0.00     0.297 C 
BRANCH  13  14
HETATM   14  C           1     -21.204  -5.125  -6.194  0.00  0.00     0.206 C 
BRANCH  14  15
HETATM   15  O           1     -19.907  -4.599  -6.107  0.00  0.00    -0.398 OA
HETATM   16  H           1     -19.617  -4.731  -5.221  0.00  0.00     0.209 HD
ENDBRANCH  14  15
ENDBRANCH  13  14
BRANCH  13  17
HETATM   17  N           1     -23.497  -4.433  -6.789  0.00  0.00    -0.064 N 
HETATM   18  H           1     -24.050  -3.655  -7.214  0.00  0.00     0.275 HD
HETATM   19  H           1     -23.832  -5.347  -7.170  0.00  0.00     0.275 HD
HETATM   20  H           1     -23.621  -4.423  -5.751  0.00  0.00     0.275 HD
ENDBRANCH  13  17
ENDBRANCH   2  13
TORSDOF 8
ENDMDL
MODEL 8
REMARK VINA RESULT:      -4.5      6.576      8.231
REMARK  8 active torsions:
REMARK  status: ('A' for Active; 'I' for Inactive)
REMARK    1  A    between atoms: C_1  and  C_5 
REMARK    2  A    between atoms: C_1  and  C_2 
REMARK    3  A    between atoms: C_2  and  C_12 
REMARK    4  A    between atoms: C_2  and  N_9 
REMARK    5  A    between atoms: O_7  and  C_8 
REMARK    6  A    between atoms: C_8  and  C_14 
REMARK       I    between atoms: N_9  and  C_10 
REMARK    7  A    between atoms: C_10  and  C_14 
REMARK    8  A    between atoms: C_14  and  N_16 
ROOT
HETATM    1  N           1     -21.011  -6.854  -4.835  0.00  0.00    -0.344 N 
HETATM    2  C           1     -21.625  -5.966  -5.676  0.00  0.00     0.251 C 
HETATM    3  O           1     -22.813  -5.768  -5.583  0.00  0.00    -0.271 OA
HETATM    4  H           1     -20.015  -7.019  -4.913  0.00  0.00     0.163 HD
ENDROOT
BRANCH   1   5
HETATM    5  C           1     -21.785  -7.556  -3.831  0.00  0.00     0.195 C 
BRANCH   5   6
HETATM    6  C           1     -21.319  -9.003  -3.751  0.00  0.00     0.149 C 
BRANCH   6   7
HETATM    7  C           1     -20.118  -9.196  -4.643  0.00  0.00     0.175 C 
HETATM    8  O           1     -20.268  -9.599  -5.817  0.00  0.00    -0.648 OA
HETATM    9  O           1     -18.971  -8.953  -4.208  0.00  0.00    -0.648 OA
ENDBRANCH   6   7
ENDBRANCH   5   6
BRANCH   5  10
HETATM   10  C           1     -21.592  -6.890  -2.491  0.00  0.00     0.197 C 
HETATM   11  O           1     -20.798  -7.380  -1.658  0.00  0.00    -0.646 OA
HETATM   12  O           1     -22.225  -5.848  -2.213  0.00  0.00    -0.646 OA
ENDBRANCH   5  10
ENDBRANCH   1   5
BRANCH   2  13
HETATM   13  C           1     -20.818  -5.234  -6.721  0.00  0.00     0.297 C 
BRANCH  13  14
HETATM   14  C           1     -21.743  -4.752  -7.831  0.00  0.00     0.206 C 
BRANCH  14  15
HETATM   15  O           1     -22.284  -3.507  -7.482  0.00  0.00    -0.398 OA
HETATM   16  H           1     -21.559  -2.919  -7.355  0.00  0.00     0.209 HD
ENDBRANCH  14  15
ENDBRANCH  13  14
BRANCH  13  17
HETATM   17  N           1     -19.789  -6.161  -7.296  0.00  0.00    -0.064 N 
HETATM   18  H           1     -18.890  -6.053  -6.775  0.00  0.00     0.275 HD
HETATM   19  H           1     -20.123  -7.148  -7.211  0.00  0.00     0.275 HD
HETATM   20  H           1     -19.636  -5.931  -8.304  0.00  0.00     0.275 HD
ENDBRANCH  13  17
ENDBRANCH   2  13
TORSDOF 8
ENDMDL
MODEL 9
REMARK VINA RESULT:      -4.4      9.433     11.455
REMARK  8 active torsions:
REMARK  status: ('A' for Active; 'I' for Inactive)
REMARK    1  A    between atoms: C_1  and  C_5 
REMARK    2  A    between atoms: C_1  and  C_2 
REMARK    3  A    between atoms: C_2  and  C_12 
REMARK    4  A    between atoms: C_2  and  N_9 
REMARK    5  A    between atoms: O_7  and  C_8 
REMARK    6  A    between atoms: C_8  and  C_14 
REMARK       I    between atoms: N_9  and  C_10 
REMARK    7  A    between atoms: C_10  and  C_14 
REMARK    8  A    between atoms: C_14  and  N_16 
ROOT
HETATM    1  N           1     -21.440  -8.719  -2.457  0.00  0.00    -0.344 N 
HETATM    2  C           1     -20.438  -8.472  -3.355  0.00  0.00     0.251 C 
HETATM    3  O           1     -19.305  -8.809  -3.104  0.00  0.00    -0.271 OA
HETATM    4  H           1     -22.389  -8.437  -2.667  0.00  0.00     0.163 HD
ENDROOT
BRANCH   1   5
HETATM    5  C           1     -21.143  -9.387  -1.205  0.00  0.00     0.195 C 
BRANCH   5   6
HETATM    6  C           1     -21.215  -8.381  -0.064  0.00  0.00     0.149 C 
BRANCH   6   7
HETATM    7  C           1     -22.533  -7.648  -0.119  0.00  0.00     0.175 C 
HETATM    8  O           1     -23.460  -7.970   0.655  0.00  0.00    -0.648 OA
HETATM    9  O           1     -22.697  -6.719  -0.939  0.00  0.00    -0.648 OA
ENDBRANCH   6   7
ENDBRANCH   5   6
BRANCH   5  10
HETATM   10  C           1     -22.149 -10.486  -0.970  0.00  0.00     0.197 C 
HETATM   11  O           1     -22.116 -11.149   0.090  0.00  0.00    -0.646 OA
HETATM   12  O           1     -23.017 -10.735  -1.835  0.00  0.00    -0.646 OA
ENDBRANCH   5  10
ENDBRANCH   1   5
BRANCH   2  13
HETATM   13  C           1     -20.747  -7.777  -4.659  0.00  0.00     0.297 C 
BRANCH  13  14
HETATM   14  C           1     -21.983  -6.903  -4.488  0.00  0.00     0.206 C 
BRANCH  14  15
HETATM   15  O           1     -21.743  -5.943  -3.495  0.00  0.00    -0.398 OA
HETATM   16  H           1     -20.911  -6.153  -3.107  0.00  0.00     0.209 HD
ENDBRANCH  14  15
ENDBRANCH  13  14
BRANCH  13  17
HETATM   17  N           1     -21.005  -8.803  -5.722  0.00  0.00    -0.064 N 
HETATM   18  H           1     -21.885  -8.564  -6.233  0.00  0.00     0.275 HD
HETATM   19  H           1     -20.205  -8.816  -6.394  0.00  0.00     0.275 HD
HETATM   20  H           1     -21.104  -9.745  -5.281  0.00  0.00     0.275 HD
ENDBRANCH  13  17
ENDBRANCH   2  13
TORSDOF 8
ENDMDL
