MODEL 1
REMARK VINA RESULT:      -7.1      0.000      0.000
REMARK  11 active torsions:
REMARK  status: ('A' for Active; 'I' for Inactive)
REMARK    1  A    between atoms: C_2  and  O_3 
REMARK    2  A    between atoms: N_11  and  C_18 
REMARK    3  A    between atoms: O_14  and  P_15 
REMARK    4  A    between atoms: P_15  and  O_16 
REMARK    5  A    between atoms: O_16  and  C_17 
REMARK    6  A    between atoms: C_17  and  C_18 
REMARK    7  A    between atoms: C_18  and  C_19 
REMARK       I    between atoms: C_19  and  N_20 
REMARK    8  A    between atoms: N_20  and  C_24 
REMARK    9  A    between atoms: C_23  and  C_24 
REMARK   10  A    between atoms: C_24  and  C_25 
REMARK   11  A    between atoms: C_25  and  C_28 
ROOT
HETATM    1  H           1     -34.768   0.270 -13.240  0.00  0.00     0.163 HD
HETATM    2  O           1     -37.596  -0.857 -13.996  0.00  0.00    -0.271 OA
HETATM    3  C           1     -36.593  -0.193 -14.100  0.00  0.00     0.251 C 
HETATM    4  N           1     -35.608  -0.287 -13.152  0.00  0.00    -0.344 N 
ENDROOT
BRANCH   4   5
HETATM    5  C           1     -35.771  -1.183 -12.025  0.00  0.00     0.189 C 
BRANCH   5   6
HETATM    6  C           1     -36.664  -0.537 -10.995  0.00  0.00     0.197 C 
HETATM    7  O           1     -37.782  -1.034 -10.737  0.00  0.00    -0.646 OA
HETATM    8  O           1     -36.286   0.494 -10.397  0.00  0.00    -0.646 OA
ENDBRANCH   5   6
BRANCH   5   9
HETATM    9  C           1     -34.409  -1.473 -11.407  0.00  0.00     0.074 C 
BRANCH   9  10
HETATM   10  C           1     -34.224  -2.953 -11.280  0.00  0.00    -0.056 A 
HETATM   11  C           1     -35.272  -3.751 -10.826  0.00  0.00     0.010 A 
HETATM   12  C           1     -35.099  -5.131 -10.708  0.00  0.00     0.037 A 
HETATM   13  C           1     -33.876  -5.711 -11.045  0.00  0.00     0.065 A 
HETATM   14  C           1     -32.826  -4.912 -11.499  0.00  0.00     0.037 A 
HETATM   15  C           1     -33.000  -3.533 -11.617  0.00  0.00     0.010 A 
BRANCH  13  16
HETATM   16  O           1     -33.708  -7.051 -10.930  0.00  0.00    -0.361 OA
HETATM   17  H           1     -34.061  -7.325 -10.067  0.00  0.00     0.217 HD
ENDBRANCH  13  16
ENDBRANCH   9  10
ENDBRANCH   5   9
ENDBRANCH   4   5
BRANCH   3  18
HETATM   18  C           1     -36.423   0.741 -15.274  0.00  0.00     0.298 C 
BRANCH  18  19
HETATM   19  N           1     -35.473   1.840 -14.904  0.00  0.00    -0.064 N 
HETATM   20  H           1     -34.918   2.119 -15.746  0.00  0.00     0.275 HD
HETATM   21  H           1     -34.826   1.505 -14.156  0.00  0.00     0.275 HD
HETATM   22  H           1     -36.012   2.665 -14.555  0.00  0.00     0.275 HD
ENDBRANCH  18  19
BRANCH  18  23
HETATM   23  C           1     -35.866  -0.033 -16.461  0.00  0.00     0.224 C 
BRANCH  23  24
HETATM   24  O           1     -34.715  -0.731 -16.068  0.00  0.00    -0.287 OA
BRANCH  24  25
HETATM   25  P           1     -34.766  -2.335 -16.241  0.00  0.00     0.406 P 
HETATM   26  O           1     -34.565  -2.980 -14.924  0.00  0.00    -0.624 OA
HETATM   27  O           1     -36.082  -2.731 -16.789  0.00  0.00    -0.624 OA
BRANCH  25  28
HETATM   28  O           1     -33.599  -2.805 -17.253  0.00  0.00    -0.300 OA
HETATM   29  H           1     -33.589  -3.746 -17.195  0.00  0.00     0.223 HD
ENDBRANCH  25  28
ENDBRANCH  24  25
ENDBRANCH  23  24
ENDBRANCH  18  23
ENDBRANCH   3  18
TORSDOF 11
ENDMDL
MODEL 2
REMARK VINA RESULT:      -6.8     14.229     17.601
REMARK  11 active torsions:
REMARK  status: ('A' for Active; 'I' for Inactive)
REMARK    1  A    between atoms: C_2  and  O_3 
REMARK    2  A    between atoms: N_11  and  C_18 
REMARK    3  A    between atoms: O_14  and  P_15 
REMARK    4  A    between atoms: P_15  and  O_16 
REMARK    5  A    between atoms: O_16  and  C_17 
REMARK    6  A    between atoms: C_17  and  C_18 
REMARK    7  A    between atoms: C_18  and  C_19 
REMARK       I    between atoms: C_19  and  N_20 
REMARK    8  A    between atoms: N_20  and  C_24 
REMARK    9  A    between atoms: C_23  and  C_24 
REMARK   10  A    between atoms: C_24  and  C_25 
REMARK   11  A    between atoms: C_25  and  C_28 
ROOT
HETATM    1  H           1     -20.879  -4.439  -4.659  0.00  0.00     0.163 HD
HETATM    2  O           1     -21.522  -7.483  -5.061  0.00  0.00    -0.271 OA
HETATM    3  C           1     -21.305  -6.454  -4.465  0.00  0.00     0.251 C 
HETATM    4  N           1     -21.061  -5.299  -5.159  0.00  0.00    -0.344 N 
ENDROOT
BRANCH   4   5
HETATM    5  C           1     -21.062  -5.311  -6.609  0.00  0.00     0.189 C 
BRANCH   5   6
HETATM    6  C           1     -19.660  -5.549  -7.111  0.00  0.00     0.197 C 
HETATM    7  O           1     -18.868  -4.590  -7.232  0.00  0.00    -0.646 OA
HETATM    8  O           1     -19.289  -6.707  -7.405  0.00  0.00    -0.646 OA
ENDBRANCH   5   6
BRANCH   5   9
HETATM    9  C           1     -21.566  -3.970  -7.125  0.00  0.00     0.074 C 
BRANCH   9  10
HETATM   10  C           1     -22.109  -4.140  -8.510  0.00  0.00    -0.056 A 
HETATM   11  C           1     -21.248  -4.108  -9.606  0.00  0.00     0.010 A 
HETATM   12  C           1     -21.753  -4.267 -10.897  0.00  0.00     0.037 A 
HETATM   13  C           1     -23.121  -4.459 -11.090  0.00  0.00     0.065 A 
HETATM   14  C           1     -23.983  -4.491  -9.994  0.00  0.00     0.037 A 
HETATM   15  C           1     -23.477  -4.332  -8.704  0.00  0.00     0.010 A 
BRANCH  13  16
HETATM   16  O           1     -23.612  -4.613 -12.344  0.00  0.00    -0.361 OA
HETATM   17  H           1     -22.861  -4.637 -12.960  0.00  0.00     0.217 HD
ENDBRANCH  13  16
ENDBRANCH   9  10
ENDBRANCH   5   9
ENDBRANCH   4   5
BRANCH   3  18
HETATM   18  C           1     -21.303  -6.443  -2.956  0.00  0.00     0.298 C 
BRANCH  18  19
HETATM   19  N           1     -22.579  -5.830  -2.460  0.00  0.00    -0.064 N 
HETATM   20  H           1     -23.369  -6.498  -2.611  0.00  0.00     0.275 HD
HETATM   21  H           1     -22.767  -4.945  -2.983  0.00  0.00     0.275 HD
HETATM   22  H           1     -22.492  -5.620  -1.440  0.00  0.00     0.275 HD
ENDBRANCH  18  19
BRANCH  18  23
HETATM   23  C           1     -21.192  -7.870  -2.437  0.00  0.00     0.224 C 
BRANCH  23  24
HETATM   24  O           1     -20.837  -7.850  -1.081  0.00  0.00    -0.287 OA
BRANCH  24  25
HETATM   25  P           1     -21.960  -8.376  -0.047  0.00  0.00     0.406 P 
HETATM   26  O           1     -23.083  -7.412  -0.007  0.00  0.00    -0.624 OA
HETATM   27  O           1     -22.458  -9.697  -0.491  0.00  0.00    -0.624 OA
BRANCH  25  28
HETATM   28  O           1     -21.314  -8.511   1.427  0.00  0.00    -0.300 OA
HETATM   29  H           1     -21.286  -9.438   1.597  0.00  0.00     0.223 HD
ENDBRANCH  25  28
ENDBRANCH  24  25
ENDBRANCH  23  24
ENDBRANCH  18  23
ENDBRANCH   3  18
TORSDOF 11
ENDMDL
MODEL 3
REMARK VINA RESULT:      -6.7      3.735      4.727
REMARK  11 active torsions:
REMARK  status: ('A' for Active; 'I' for Inactive)
REMARK    1  A    between atoms: C_2  and  O_3 
REMARK    2  A    between atoms: N_11  and  C_18 
REMARK    3  A    between atoms: O_14  and  P_15 
REMARK    4  A    between atoms: P_15  and  O_16 
REMARK    5  A    between atoms: O_16  and  C_17 
REMARK    6  A    between atoms: C_17  and  C_18 
REMARK    7  A    between atoms: C_18  and  C_19 
REMARK       I    between atoms: C_19  and  N_20 
REMARK    8  A    between atoms: N_20  and  C_24 
REMARK    9  A    between atoms: C_23  and  C_24 
REMARK   10  A    between atoms: C_24  and  C_25 
REMARK   11  A    between atoms: C_25  and  C_28 
ROOT
HETATM    1  H           1     -32.648  -3.304 -14.423  0.00  0.00     0.163 HD
HETATM    2  O           1     -35.038  -5.103 -15.369  0.00  0.00    -0.271 OA
HETATM    3  C           1     -33.997  -4.495 -15.445  0.00  0.00     0.251 C 
HETATM    4  N           1     -33.521  -3.813 -14.357  0.00  0.00    -0.344 N 
ENDROOT
BRANCH   4   5
HETATM    5  C           1     -34.266  -3.820 -13.114  0.00  0.00     0.189 C 
BRANCH   5   6
HETATM    6  C           1     -34.994  -2.509 -12.957  0.00  0.00     0.197 C 
HETATM    7  O           1     -34.937  -1.650 -13.864  0.00  0.00    -0.646 OA
HETATM    8  O           1     -35.654  -2.280 -11.920  0.00  0.00    -0.646 OA
ENDBRANCH   5   6
BRANCH   5   9
HETATM    9  C           1     -33.305  -4.012 -11.948  0.00  0.00     0.074 C 
BRANCH   9  10
HETATM   10  C           1     -33.627  -5.292 -11.241  0.00  0.00    -0.056 A 
HETATM   11  C           1     -34.865  -5.453 -10.620  0.00  0.00     0.010 A 
HETATM   12  C           1     -35.166  -6.646  -9.961  0.00  0.00     0.037 A 
HETATM   13  C           1     -34.227  -7.677  -9.924  0.00  0.00     0.065 A 
HETATM   14  C           1     -32.988  -7.516 -10.545  0.00  0.00     0.037 A 
HETATM   15  C           1     -32.688  -6.323 -11.204  0.00  0.00     0.010 A 
BRANCH  13  16
HETATM   16  O           1     -34.518  -8.835  -9.284  0.00  0.00    -0.361 OA
HETATM   17  H           1     -33.910  -9.519  -9.608  0.00  0.00     0.217 HD
ENDBRANCH  13  16
ENDBRANCH   9  10
ENDBRANCH   5   9
ENDBRANCH   4   5
BRANCH   3  18
HETATM   18  C           1     -33.221  -4.487 -16.740  0.00  0.00     0.298 C 
BRANCH  18  19
HETATM   19  N           1     -33.249  -3.109 -17.331  0.00  0.00    -0.064 N 
HETATM   20  H           1     -33.601  -3.159 -18.314  0.00  0.00     0.275 HD
HETATM   21  H           1     -32.284  -2.709 -17.325  0.00  0.00     0.275 HD
HETATM   22  H           1     -33.882  -2.500 -16.765  0.00  0.00     0.275 HD
ENDBRANCH  18  19
BRANCH  18  23
HETATM   23  C           1     -31.778  -4.894 -16.469  0.00  0.00     0.224 C 
BRANCH  23  24
HETATM   24  O           1     -31.484  -6.072 -17.169  0.00  0.00    -0.287 OA
BRANCH  24  25
HETATM   25  P           1     -29.919  -6.443 -17.305  0.00  0.00     0.406 P 
HETATM   26  O           1     -29.333  -5.702 -18.445  0.00  0.00    -0.624 OA
HETATM   27  O           1     -29.213  -6.069 -16.059  0.00  0.00    -0.624 OA
BRANCH  25  28
HETATM   28  O           1     -29.761  -8.030 -17.557  0.00  0.00    -0.300 OA
HETATM   29  H           1     -28.917  -8.252 -17.199  0.00  0.00     0.223 HD
ENDBRANCH  25  28
ENDBRANCH  24  25
ENDBRANCH  23  24
ENDBRANCH  18  23
ENDBRANCH   3  18
TORSDOF 11
ENDMDL
MODEL 4
REMARK VINA RESULT:      -6.6      2.218      4.928
REMARK  11 active torsions:
REMARK  status: ('A' for Active; 'I' for Inactive)
REMARK    1  A    between atoms: C_2  and  O_3 
REMARK    2  A    between atoms: N_11  and  C_18 
REMARK    3  A    between atoms: O_14  and  P_15 
REMARK    4  A    between atoms: P_15  and  O_16 
REMARK    5  A    between atoms: O_16  and  C_17 
REMARK    6  A    between atoms: C_17  and  C_18 
REMARK    7  A    between atoms: C_18  and  C_19 
REMARK       I    between atoms: C_19  and  N_20 
REMARK    8  A    between atoms: N_20  and  C_24 
REMARK    9  A    between atoms: C_23  and  C_24 
REMARK   10  A    between atoms: C_24  and  C_25 
REMARK   11  A    between atoms: C_25  and  C_28 
ROOT
HETATM    1  H           1     -36.683  -2.580 -11.061  0.00  0.00     0.163 HD
HETATM    2  O           1     -33.762  -1.447 -10.900  0.00  0.00    -0.271 OA
HETATM    3  C           1     -34.637  -2.268 -11.037  0.00  0.00     0.251 C 
HETATM    4  N           1     -35.950  -1.891 -10.947  0.00  0.00    -0.344 N 
ENDROOT
BRANCH   4   5
HETATM    5  C           1     -36.290  -0.505 -10.688  0.00  0.00     0.189 C 
BRANCH   5   6
HETATM    6  C           1     -36.623  -0.334  -9.227  0.00  0.00     0.197 C 
HETATM    7  O           1     -35.755   0.088  -8.433  0.00  0.00    -0.646 OA
HETATM    8  O           1     -37.768  -0.613  -8.809  0.00  0.00    -0.646 OA
ENDBRANCH   5   6
BRANCH   5   9
HETATM    9  C           1     -37.495  -0.113 -11.534  0.00  0.00     0.074 C 
BRANCH   9  10
HETATM   10  C           1     -37.108  -0.108 -12.981  0.00  0.00    -0.056 A 
HETATM   11  C           1     -38.075  -0.323 -13.962  0.00  0.00     0.010 A 
HETATM   12  C           1     -37.715  -0.318 -15.310  0.00  0.00     0.037 A 
HETATM   13  C           1     -36.387  -0.097 -15.675  0.00  0.00     0.065 A 
HETATM   14  C           1     -35.419   0.118 -14.694  0.00  0.00     0.037 A 
HETATM   15  C           1     -35.780   0.113 -13.346  0.00  0.00     0.010 A 
BRANCH  13  16
HETATM   16  O           1     -36.037  -0.092 -16.984  0.00  0.00    -0.361 OA
HETATM   17  H           1     -35.282  -0.693 -17.096  0.00  0.00     0.217 HD
ENDBRANCH  13  16
ENDBRANCH   9  10
ENDBRANCH   5   9
ENDBRANCH   4   5
BRANCH   3  18
HETATM   18  C           1     -34.283  -3.710 -11.306  0.00  0.00     0.298 C 
BRANCH  18  19
HETATM   19  N           1     -35.527  -4.546 -11.263  0.00  0.00    -0.064 N 
HETATM   20  H           1     -36.366  -3.922 -11.253  0.00  0.00     0.275 HD
HETATM   21  H           1     -35.521  -5.136 -10.401  0.00  0.00     0.275 HD
HETATM   22  H           1     -35.563  -5.163 -12.106  0.00  0.00     0.275 HD
ENDBRANCH  18  19
BRANCH  18  23
HETATM   23  C           1     -33.640  -3.827 -12.682  0.00  0.00     0.224 C 
BRANCH  23  24
HETATM   24  O           1     -34.545  -3.390 -13.660  0.00  0.00    -0.287 OA
BRANCH  24  25
HETATM   25  P           1     -34.331  -3.995 -15.142  0.00  0.00     0.406 P 
HETATM   26  O           1     -35.132  -5.231 -15.290  0.00  0.00    -0.624 OA
HETATM   27  O           1     -34.768  -3.001 -16.147  0.00  0.00    -0.624 OA
BRANCH  25  28
HETATM   28  O           1     -32.769  -4.336 -15.365  0.00  0.00    -0.300 OA
HETATM   29  H           1     -32.576  -5.017 -14.743  0.00  0.00     0.223 HD
ENDBRANCH  25  28
ENDBRANCH  24  25
ENDBRANCH  23  24
ENDBRANCH  18  23
ENDBRANCH   3  18
TORSDOF 11
ENDMDL
MODEL 5
REMARK VINA RESULT:      -6.5     14.311     16.855
REMARK  11 active torsions:
REMARK  status: ('A' for Active; 'I' for Inactive)
REMARK    1  A    between atoms: C_2  and  O_3 
REMARK    2  A    between atoms: N_11  and  C_18 
REMARK    3  A    between atoms: O_14  and  P_15 
REMARK    4  A    between atoms: P_15  and  O_16 
REMARK    5  A    between atoms: O_16  and  C_17 
REMARK    6  A    between atoms: C_17  and  C_18 
REMARK    7  A    between atoms: C_18  and  C_19 
REMARK       I    between atoms: C_19  and  N_20 
REMARK    8  A    between atoms: N_20  and  C_24 
REMARK    9  A    between atoms: C_23  and  C_24 
REMARK   10  A    between atoms: C_24  and  C_25 
REMARK   11  A    between atoms: C_25  and  C_28 
ROOT
HETATM    1  H           1     -20.495  -7.232  -7.139  0.00  0.00     0.163 HD
HETATM    2  O           1     -20.378  -4.775  -5.192  0.00  0.00    -0.271 OA
HETATM    3  C           1     -20.486  -5.369  -6.238  0.00  0.00     0.251 C 
HETATM    4  N           1     -20.405  -6.736  -6.262  0.00  0.00    -0.344 N 
ENDROOT
BRANCH   4   5
HETATM    5  C           1     -20.190  -7.471  -5.031  0.00  0.00     0.189 C 
BRANCH   5   6
HETATM    6  C           1     -19.094  -8.486  -5.237  0.00  0.00     0.197 C 
HETATM    7  O           1     -18.557  -8.607  -6.360  0.00  0.00    -0.646 OA
HETATM    8  O           1     -18.721  -9.207  -4.286  0.00  0.00    -0.646 OA
ENDBRANCH   5   6
BRANCH   5   9
HETATM    9  C           1     -21.476  -8.183  -4.635  0.00  0.00     0.074 C 
BRANCH   9  10
HETATM   10  C           1     -21.694  -8.037  -3.161  0.00  0.00    -0.056 A 
HETATM   11  C           1     -21.935  -6.779  -2.612  0.00  0.00     0.010 A 
HETATM   12  C           1     -22.138  -6.643  -1.238  0.00  0.00     0.037 A 
HETATM   13  C           1     -22.101  -7.767  -0.414  0.00  0.00     0.065 A 
HETATM   14  C           1     -21.859  -9.027  -0.963  0.00  0.00     0.037 A 
HETATM   15  C           1     -21.656  -9.162  -2.336  0.00  0.00     0.010 A 
BRANCH  13  16
HETATM   16  O           1     -22.298  -7.636   0.920  0.00  0.00    -0.361 OA
HETATM   17  H           1     -21.572  -8.091   1.377  0.00  0.00     0.217 HD
ENDBRANCH  13  16
ENDBRANCH   9  10
ENDBRANCH   5   9
ENDBRANCH   4   5
BRANCH   3  18
HETATM   18  C           1     -20.710  -4.604  -7.520  0.00  0.00     0.298 C 
BRANCH  18  19
HETATM   19  N           1     -19.963  -5.271  -8.636  0.00  0.00    -0.064 N 
HETATM   20  H           1     -19.572  -4.543  -9.277  0.00  0.00     0.275 HD
HETATM   21  H           1     -20.615  -5.890  -9.169  0.00  0.00     0.275 HD
HETATM   22  H           1     -19.183  -5.843  -8.242  0.00  0.00     0.275 HD
ENDBRANCH  18  19
BRANCH  18  23
HETATM   23  C           1     -22.198  -4.584  -7.846  0.00  0.00     0.224 C 
BRANCH  23  24
HETATM   24  O           1     -22.489  -3.463  -8.637  0.00  0.00    -0.287 OA
BRANCH  24  25
HETATM   25  P           1     -23.646  -3.661  -9.745  0.00  0.00     0.406 P 
HETATM   26  O           1     -23.209  -3.060 -11.026  0.00  0.00    -0.624 OA
HETATM   27  O           1     -23.901  -5.105  -9.939  0.00  0.00    -0.624 OA
BRANCH  25  28
HETATM   28  O           1     -25.000  -2.937  -9.245  0.00  0.00    -0.300 OA
HETATM   29  H           1     -25.058  -2.148  -9.757  0.00  0.00     0.223 HD
ENDBRANCH  25  28
ENDBRANCH  24  25
ENDBRANCH  23  24
ENDBRANCH  18  23
ENDBRANCH   3  18
TORSDOF 11
ENDMDL
MODEL 6
REMARK VINA RESULT:      -6.3     17.249     18.675
REMARK  11 active torsions:
REMARK  status: ('A' for Active; 'I' for Inactive)
REMARK    1  A    between atoms: C_2  and  O_3 
REMARK    2  A    between atoms: N_11  and  C_18 
REMARK    3  A    between atoms: O_14  and  P_15 
REMARK    4  A    between atoms: P_15  and  O_16 
REMARK    5  A    between atoms: O_16  and  C_17 
REMARK    6  A    between atoms: C_17  and  C_18 
REMARK    7  A    between atoms: C_18  and  C_19 
REMARK       I    between atoms: C_19  and  N_20 
REMARK    8  A    between atoms: N_20  and  C_24 
REMARK    9  A    between atoms: C_23  and  C_24 
REMARK   10  A    between atoms: C_24  and  C_25 
REMARK   11  A    between atoms: C_25  and  C_28 
ROOT
HETATM    1  H           1     -20.177  -7.750  -2.704  0.00  0.00     0.163 HD
HETATM    2  O           1     -22.166  -9.967  -3.691  0.00  0.00    -0.271 OA
HETATM    3  C           1     -21.206  -9.234  -3.716  0.00  0.00     0.251 C 
HETATM    4  N           1     -20.982  -8.364  -2.682  0.00  0.00    -0.344 N 
ENDROOT
BRANCH   4   5
HETATM    5  C           1     -21.897  -8.323  -1.558  0.00  0.00     0.189 C 
BRANCH   5   6
HETATM    6  C           1     -22.291  -6.893  -1.283  0.00  0.00     0.197 C 
HETATM    7  O           1     -22.614  -6.545  -0.127  0.00  0.00    -0.646 OA
HETATM    8  O           1     -22.295  -6.056  -2.212  0.00  0.00    -0.646 OA
ENDBRANCH   5   6
BRANCH   5   9
HETATM    9  C           1     -21.215  -8.908  -0.328  0.00  0.00     0.074 C 
BRANCH   9  10
HETATM   10  C           1     -21.844 -10.223   0.013  0.00  0.00    -0.056 A 
HETATM   11  C           1     -23.188 -10.450  -0.276  0.00  0.00     0.010 A 
HETATM   12  C           1     -23.774 -11.675   0.042  0.00  0.00     0.037 A 
HETATM   13  C           1     -23.013 -12.675   0.648  0.00  0.00     0.065 A 
HETATM   14  C           1     -21.667 -12.448   0.938  0.00  0.00     0.037 A 
HETATM   15  C           1     -21.082 -11.222   0.619  0.00  0.00     0.010 A 
BRANCH  13  16
HETATM   16  O           1     -23.582 -13.865   0.957  0.00  0.00    -0.361 OA
HETATM   17  H           1     -24.503 -13.848   0.647  0.00  0.00     0.217 HD
ENDBRANCH  13  16
ENDBRANCH   9  10
ENDBRANCH   5   9
ENDBRANCH   4   5
BRANCH   3  18
HETATM   18  C           1     -20.254  -9.276  -4.886  0.00  0.00     0.298 C 
BRANCH  18  19
HETATM   19  N           1     -20.909  -9.977  -6.038  0.00  0.00    -0.064 N 
HETATM   20  H           1     -21.740 -10.512  -5.694  0.00  0.00     0.275 HD
HETATM   21  H           1     -20.228 -10.636  -6.478  0.00  0.00     0.275 HD
HETATM   22  H           1     -21.218  -9.273  -6.746  0.00  0.00     0.275 HD
ENDBRANCH  18  19
BRANCH  18  23
HETATM   23  C           1     -19.892  -7.855  -5.298  0.00  0.00     0.224 C 
BRANCH  23  24
HETATM   24  O           1     -20.844  -7.372  -6.206  0.00  0.00    -0.287 OA
BRANCH  24  25
HETATM   25  P           1     -21.509  -5.947  -5.844  0.00  0.00     0.406 P 
HETATM   26  O           1     -20.555  -5.146  -5.044  0.00  0.00    -0.624 OA
HETATM   27  O           1     -21.835  -5.223  -7.093  0.00  0.00    -0.624 OA
BRANCH  25  28
HETATM   28  O           1     -22.860  -6.182  -4.991  0.00  0.00    -0.300 OA
HETATM   29  H           1     -23.026  -5.359  -4.563  0.00  0.00     0.223 HD
ENDBRANCH  25  28
ENDBRANCH  24  25
ENDBRANCH  23  24
ENDBRANCH  18  23
ENDBRANCH   3  18
TORSDOF 11
ENDMDL
MODEL 7
REMARK VINA RESULT:      -5.8     16.191     18.620
REMARK  11 active torsions:
REMARK  status: ('A' for Active; 'I' for Inactive)
REMARK    1  A    between atoms: C_2  and  O_3 
REMARK    2  A    between atoms: N_11  and  C_18 
REMARK    3  A    between atoms: O_14  and  P_15 
REMARK    4  A    between atoms: P_15  and  O_16 
REMARK    5  A    between atoms: O_16  and  C_17 
REMARK    6  A    between atoms: C_17  and  C_18 
REMARK    7  A    between atoms: C_18  and  C_19 
REMARK       I    between atoms: C_19  and  N_20 
REMARK    8  A    between atoms: N_20  and  C_24 
REMARK    9  A    between atoms: C_23  and  C_24 
REMARK   10  A    between atoms: C_24  and  C_25 
REMARK   11  A    between atoms: C_25  and  C_28 
ROOT
HETATM    1  H           1     -22.848  -8.939  -4.046  0.00  0.00     0.163 HD
HETATM    2  O           1     -19.772  -9.267  -4.572  0.00  0.00    -0.271 OA
HETATM    3  C           1     -20.924  -9.601  -4.426  0.00  0.00     0.251 C 
HETATM    4  N           1     -21.883  -8.658  -4.169  0.00  0.00    -0.344 N 
ENDROOT
BRANCH   4   5
HETATM    5  C           1     -21.517  -7.259  -4.073  0.00  0.00     0.189 C 
BRANCH   5   6
HETATM    6  C           1     -21.614  -6.811  -2.636  0.00  0.00     0.197 C 
HETATM    7  O           1     -20.897  -7.349  -1.764  0.00  0.00    -0.646 OA
HETATM    8  O           1     -22.411  -5.902  -2.317  0.00  0.00    -0.646 OA
ENDBRANCH   5   6
BRANCH   5   9
HETATM    9  C           1     -22.462  -6.427  -4.930  0.00  0.00     0.074 C 
BRANCH   9  10
HETATM   10  C           1     -21.673  -5.669  -5.952  0.00  0.00    -0.056 A 
HETATM   11  C           1     -20.293  -5.847  -6.041  0.00  0.00     0.010 A 
HETATM   12  C           1     -19.558  -5.140  -6.993  0.00  0.00     0.037 A 
HETATM   13  C           1     -20.205  -4.257  -7.858  0.00  0.00     0.065 A 
HETATM   14  C           1     -21.586  -4.079  -7.769  0.00  0.00     0.037 A 
HETATM   15  C           1     -22.320  -4.786  -6.817  0.00  0.00     0.010 A 
BRANCH  13  16
HETATM   16  O           1     -19.491  -3.571  -8.783  0.00  0.00    -0.361 OA
HETATM   17  H           1     -20.022  -2.808  -9.067  0.00  0.00     0.217 HD
ENDBRANCH  13  16
ENDBRANCH   9  10
ENDBRANCH   5   9
ENDBRANCH   4   5
BRANCH   3  18
HETATM   18  C           1     -21.305 -11.058  -4.525  0.00  0.00     0.298 C 
BRANCH  18  19
HETATM   19  N           1     -20.064 -11.894  -4.623  0.00  0.00    -0.064 N 
HETATM   20  H           1     -20.053 -12.594  -3.846  0.00  0.00     0.275 HD
HETATM   21  H           1     -19.223 -11.278  -4.550  0.00  0.00     0.275 HD
HETATM   22  H           1     -20.051 -12.393  -5.541  0.00  0.00     0.275 HD
ENDBRANCH  18  19
BRANCH  18  23
HETATM   23  C           1     -22.092 -11.462  -3.285  0.00  0.00     0.224 C 
BRANCH  23  24
HETATM   24  O           1     -21.703 -10.663  -2.202  0.00  0.00    -0.287 OA
BRANCH  24  25
HETATM   25  P           1     -22.698 -10.661  -0.930  0.00  0.00     0.406 P 
HETATM   26  O           1     -24.005 -11.231  -1.326  0.00  0.00    -0.624 OA
HETATM   27  O           1     -22.111 -11.477   0.156  0.00  0.00    -0.624 OA
BRANCH  25  28
HETATM   28  O           1     -22.907  -9.146  -0.412  0.00  0.00    -0.300 OA
HETATM   29  H           1     -22.536  -8.603  -1.087  0.00  0.00     0.223 HD
ENDBRANCH  25  28
ENDBRANCH  24  25
ENDBRANCH  23  24
ENDBRANCH  18  23
ENDBRANCH   3  18
TORSDOF 11
ENDMDL
MODEL 8
REMARK VINA RESULT:      -5.8      1.766      3.316
REMARK  11 active torsions:
REMARK  status: ('A' for Active; 'I' for Inactive)
REMARK    1  A    between atoms: C_2  and  O_3 
REMARK    2  A    between atoms: N_11  and  C_18 
REMARK    3  A    between atoms: O_14  and  P_15 
REMARK    4  A    between atoms: P_15  and  O_16 
REMARK    5  A    between atoms: O_16  and  C_17 
REMARK    6  A    between atoms: C_17  and  C_18 
REMARK    7  A    between atoms: C_18  and  C_19 
REMARK       I    between atoms: C_19  and  N_20 
REMARK    8  A    between atoms: N_20  and  C_24 
REMARK    9  A    between atoms: C_23  and  C_24 
REMARK   10  A    between atoms: C_24  and  C_25 
REMARK   11  A    between atoms: C_25  and  C_28 
ROOT
HETATM    1  H           1     -33.742  -1.320 -12.934  0.00  0.00     0.163 HD
HETATM    2  O           1     -36.372  -2.194 -11.464  0.00  0.00    -0.271 OA
HETATM    3  C           1     -35.604  -1.462 -12.041  0.00  0.00     0.251 C 
HETATM    4  N           1     -34.386  -1.934 -12.451  0.00  0.00    -0.344 N 
ENDROOT
BRANCH   4   5
HETATM    5  C           1     -34.018  -3.312 -12.192  0.00  0.00     0.189 C 
BRANCH   5   6
HETATM    6  C           1     -34.353  -4.156 -13.396  0.00  0.00     0.197 C 
HETATM    7  O           1     -33.719  -4.003 -14.463  0.00  0.00    -0.646 OA
HETATM    8  O           1     -35.264  -5.010 -13.328  0.00  0.00    -0.646 OA
ENDBRANCH   5   6
BRANCH   5   9
HETATM    9  C           1     -34.788  -3.823 -10.982  0.00  0.00     0.074 C 
BRANCH   9  10
HETATM   10  C           1     -34.402  -5.243 -10.707  0.00  0.00    -0.056 A 
HETATM   11  C           1     -35.294  -6.097 -10.060  0.00  0.00     0.010 A 
HETATM   12  C           1     -34.934  -7.420  -9.804  0.00  0.00     0.037 A 
HETATM   13  C           1     -33.680  -7.889 -10.197  0.00  0.00     0.065 A 
HETATM   14  C           1     -32.787  -7.035 -10.845  0.00  0.00     0.037 A 
HETATM   15  C           1     -33.148  -5.712 -11.100  0.00  0.00     0.010 A 
BRANCH  13  16
HETATM   16  O           1     -33.330  -9.174  -9.948  0.00  0.00    -0.361 OA
HETATM   17  H           1     -33.466  -9.686 -10.763  0.00  0.00     0.217 HD
ENDBRANCH  13  16
ENDBRANCH   9  10
ENDBRANCH   5   9
ENDBRANCH   4   5
BRANCH   3  18
HETATM   18  C           1     -35.986  -0.027 -12.310  0.00  0.00     0.298 C 
BRANCH  18  19
HETATM   19  N           1     -34.773   0.741 -12.741  0.00  0.00    -0.064 N 
HETATM   20  H           1     -35.064   1.674 -13.113  0.00  0.00     0.275 HD
HETATM   21  H           1     -34.271   0.210 -13.488  0.00  0.00     0.275 HD
HETATM   22  H           1     -34.137   0.877 -11.923  0.00  0.00     0.275 HD
ENDBRANCH  18  19
BRANCH  18  23
HETATM   23  C           1     -37.035   0.020 -13.415  0.00  0.00     0.224 C 
BRANCH  23  24
HETATM   24  O           1     -36.728  -0.935 -14.393  0.00  0.00    -0.287 OA
BRANCH  24  25
HETATM   25  P           1     -36.235  -0.357 -15.818  0.00  0.00     0.406 P 
HETATM   26  O           1     -34.895  -0.903 -16.134  0.00  0.00    -0.624 OA
HETATM   27  O           1     -37.193  -0.759 -16.871  0.00  0.00    -0.624 OA
BRANCH  25  28
HETATM   28  O           1     -36.156   1.254 -15.748  0.00  0.00    -0.300 OA
HETATM   29  H           1     -35.854   1.521 -16.600  0.00  0.00     0.223 HD
ENDBRANCH  25  28
ENDBRANCH  24  25
ENDBRANCH  23  24
ENDBRANCH  18  23
ENDBRANCH   3  18
TORSDOF 11
ENDMDL
MODEL 9
REMARK VINA RESULT:      -5.7     15.946     18.642
REMARK  11 active torsions:
REMARK  status: ('A' for Active; 'I' for Inactive)
REMARK    1  A    between atoms: C_2  and  O_3 
REMARK    2  A    between atoms: N_11  and  C_18 
REMARK    3  A    between atoms: O_14  and  P_15 
REMARK    4  A    between atoms: P_15  and  O_16 
REMARK    5  A    between atoms: O_16  and  C_17 
REMARK    6  A    between atoms: C_17  and  C_18 
REMARK    7  A    between atoms: C_18  and  C_19 
REMARK       I    between atoms: C_19  and  N_20 
REMARK    8  A    between atoms: N_20  and  C_24 
REMARK    9  A    between atoms: C_23  and  C_24 
REMARK   10  A    between atoms: C_24  and  C_25 
REMARK   11  A    between atoms: C_25  and  C_28 
ROOT
HETATM    1  H           1     -20.661  -7.054  -3.339  0.00  0.00     0.163 HD
HETATM    2  O           1     -21.158  -8.573  -6.038  0.00  0.00    -0.271 OA
HETATM    3  C           1     -21.100  -7.639  -5.275  0.00  0.00     0.251 C 
HETATM    4  N           1     -20.709  -7.838  -3.978  0.00  0.00    -0.344 N 
ENDROOT
BRANCH   4   5
HETATM    5  C           1     -20.363  -9.169  -3.521  0.00  0.00     0.189 C 
BRANCH   5   6
HETATM    6  C           1     -21.521  -9.752  -2.749  0.00  0.00     0.197 C 
HETATM    7  O           1     -22.336 -10.507  -3.321  0.00  0.00    -0.646 OA
HETATM    8  O           1     -21.665  -9.480  -1.537  0.00  0.00    -0.646 OA
ENDBRANCH   5   6
BRANCH   5   9
HETATM    9  C           1     -19.137  -9.094  -2.620  0.00  0.00     0.074 C 
BRANCH   9  10
HETATM   10  C           1     -17.950  -9.644  -3.346  0.00  0.00    -0.056 A 
HETATM   11  C           1     -16.812 -10.023  -2.636  0.00  0.00     0.010 A 
HETATM   12  C           1     -15.705 -10.537  -3.313  0.00  0.00     0.037 A 
HETATM   13  C           1     -15.738 -10.671  -4.701  0.00  0.00     0.065 A 
HETATM   14  C           1     -16.877 -10.291  -5.412  0.00  0.00     0.037 A 
HETATM   15  C           1     -17.983  -9.778  -4.734  0.00  0.00     0.010 A 
BRANCH  13  16
HETATM   16  O           1     -14.663 -11.169  -5.359  0.00  0.00    -0.361 OA
HETATM   17  H           1     -13.961 -10.497  -5.340  0.00  0.00     0.217 HD
ENDBRANCH  13  16
ENDBRANCH   9  10
ENDBRANCH   5   9
ENDBRANCH   4   5
BRANCH   3  18
HETATM   18  C           1     -21.460  -6.252  -5.750  0.00  0.00     0.298 C 
BRANCH  18  19
HETATM   19  N           1     -21.139  -5.257  -4.676  0.00  0.00    -0.064 N 
HETATM   20  H           1     -20.216  -4.809  -4.880  0.00  0.00     0.275 HD
HETATM   21  H           1     -21.093  -5.743  -3.752  0.00  0.00     0.275 HD
HETATM   22  H           1     -21.882  -4.522  -4.646  0.00  0.00     0.275 HD
ENDBRANCH  18  19
BRANCH  18  23
HETATM   23  C           1     -20.660  -5.922  -7.004  0.00  0.00     0.224 C 
BRANCH  23  24
HETATM   24  O           1     -21.538  -5.636  -8.058  0.00  0.00    -0.287 OA
BRANCH  24  25
HETATM   25  P           1     -22.158  -4.145  -8.079  0.00  0.00     0.406 P 
HETATM   26  O           1     -21.380  -3.275  -7.168  0.00  0.00    -0.624 OA
HETATM   27  O           1     -22.093  -3.603  -9.455  0.00  0.00    -0.624 OA
BRANCH  25  28
HETATM   28  O           1     -23.697  -4.194  -7.592  0.00  0.00    -0.300 OA
HETATM   29  H           1     -24.205  -4.105  -8.380  0.00  0.00     0.223 HD
ENDBRANCH  25  28
ENDBRANCH  24  25
ENDBRANCH  23  24
ENDBRANCH  18  23
ENDBRANCH   3  18
TORSDOF 11
ENDMDL
