MODEL 1
REMARK VINA RESULT:      -7.3      0.000      0.000
REMARK  9 active torsions:
REMARK  status: ('A' for Active; 'I' for Inactive)
REMARK    1  A    between atoms: P_2  and  O_3 
REMARK    2  A    between atoms: P_2  and  O_7 
REMARK    3  A    between atoms: O_3  and  C_4 
REMARK    4  A    between atoms: C_6  and  C_10 
REMARK    5  A    between atoms: C_10  and  C_11 
REMARK    6  A    between atoms: C_11  and  C_13 
REMARK    7  A    between atoms: C_11  and  N_20 
REMARK    8  A    between atoms: N_15  and  C_26 
REMARK       I    between atoms: C_17  and  N_20 
REMARK    9  A    between atoms: C_17  and  C_26 
ROOT
HETATM    1  C           1     -21.969  -4.188  -7.104  0.00  0.00     0.074 C 
ENDROOT
BRANCH   1   2
HETATM    2  C           1     -22.420  -4.241  -8.530  0.00  0.00    -0.056 A 
HETATM    3  C           1     -23.776  -4.136  -8.837  0.00  0.00     0.010 A 
HETATM    4  C           1     -24.197  -4.184 -10.166  0.00  0.00     0.038 A 
HETATM    5  C           1     -23.260  -4.337 -11.188  0.00  0.00     0.081 A 
HETATM    6  C           1     -21.903  -4.441 -10.882  0.00  0.00     0.038 A 
HETATM    7  C           1     -21.483  -4.393  -9.552  0.00  0.00     0.010 A 
BRANCH   5   8
HETATM    8  O           1     -23.669  -4.384 -12.480  0.00  0.00    -0.247 OA
BRANCH   8   9
HETATM    9  P           1     -23.956  -2.986 -13.235  0.00  0.00     0.411 P 
HETATM   10  O           1     -25.379  -2.615 -13.065  0.00  0.00    -0.624 OA
HETATM   11  O           1     -23.653  -3.132 -14.676  0.00  0.00    -0.624 OA
BRANCH   9  12
HETATM   12  O           1     -23.020  -1.831 -12.602  0.00  0.00    -0.300 OA
HETATM   13  H           1     -23.396  -1.020 -12.903  0.00  0.00     0.223 HD
ENDBRANCH   9  12
ENDBRANCH   8   9
ENDBRANCH   5   8
ENDBRANCH   1   2
BRANCH   1  14
HETATM   14  C           1     -21.623  -5.593  -6.628  0.00  0.00     0.189 C 
BRANCH  14  15
HETATM   15  C           1     -20.138  -5.691  -6.382  0.00  0.00     0.197 C 
HETATM   16  O           1     -19.509  -4.700  -5.952  0.00  0.00    -0.646 OA
HETATM   17  O           1     -19.536  -6.763  -6.609  0.00  0.00    -0.646 OA
ENDBRANCH  14  15
BRANCH  14  18
HETATM   18  N           1     -22.335  -5.874  -5.397  0.00  0.00    -0.345 N 
HETATM   19  C           1     -21.697  -6.508  -4.364  0.00  0.00     0.243 C 
HETATM   20  O           1     -21.116  -5.862  -3.525  0.00  0.00    -0.272 OA
HETATM   21  H           1     -23.305  -5.600  -5.300  0.00  0.00     0.163 HD
BRANCH  19  22
HETATM   22  C           1     -21.719  -8.014  -4.276  0.00  0.00     0.332 C 
BRANCH  22  23
HETATM   23  N           1     -20.314  -8.531  -4.194  0.00  0.00    -0.071 N 
HETATM   24  H           1     -19.876  -8.503  -5.142  0.00  0.00     0.274 HD
HETATM   25  H           1     -19.762  -7.935  -3.537  0.00  0.00     0.274 HD
HETATM   26  H           1     -20.324  -9.517  -3.845  0.00  0.00     0.274 HD
ENDBRANCH  22  23
ENDBRANCH  19  22
ENDBRANCH  14  18
ENDBRANCH   1  14
TORSDOF 9
ENDMDL
MODEL 2
REMARK VINA RESULT:      -7.2      3.691      7.589
REMARK  9 active torsions:
REMARK  status: ('A' for Active; 'I' for Inactive)
REMARK    1  A    between atoms: P_2  and  O_3 
REMARK    2  A    between atoms: P_2  and  O_7 
REMARK    3  A    between atoms: O_3  and  C_4 
REMARK    4  A    between atoms: C_6  and  C_10 
REMARK    5  A    between atoms: C_10  and  C_11 
REMARK    6  A    between atoms: C_11  and  C_13 
REMARK    7  A    between atoms: C_11  and  N_20 
REMARK    8  A    between atoms: N_15  and  C_26 
REMARK       I    between atoms: C_17  and  N_20 
REMARK    9  A    between atoms: C_17  and  C_26 
ROOT
HETATM    1  C           1     -22.331  -3.549  -9.230  0.00  0.00     0.074 C 
ENDROOT
BRANCH   1   2
HETATM    2  C           1     -21.772  -4.375  -8.114  0.00  0.00    -0.056 A 
HETATM    3  C           1     -22.571  -4.700  -7.018  0.00  0.00     0.010 A 
HETATM    4  C           1     -22.050  -5.470  -5.978  0.00  0.00     0.038 A 
HETATM    5  C           1     -20.729  -5.915  -6.035  0.00  0.00     0.081 A 
HETATM    6  C           1     -19.929  -5.591  -7.131  0.00  0.00     0.038 A 
HETATM    7  C           1     -20.451  -4.820  -8.171  0.00  0.00     0.010 A 
BRANCH   5   8
HETATM    8  O           1     -20.223  -6.663  -5.024  0.00  0.00    -0.247 OA
BRANCH   8   9
HETATM    9  P           1     -20.210  -8.268  -5.203  0.00  0.00     0.411 P 
HETATM   10  O           1     -18.947  -8.683  -5.854  0.00  0.00    -0.624 OA
HETATM   11  O           1     -21.356  -8.680  -6.044  0.00  0.00    -0.624 OA
BRANCH   9  12
HETATM   12  O           1     -20.324  -8.972  -3.754  0.00  0.00    -0.300 OA
HETATM   13  H           1     -20.477  -8.264  -3.150  0.00  0.00     0.223 HD
ENDBRANCH   9  12
ENDBRANCH   8   9
ENDBRANCH   5   8
ENDBRANCH   1   2
BRANCH   1  14
HETATM   14  C           1     -23.441  -4.324  -9.929  0.00  0.00     0.189 C 
BRANCH  14  15
HETATM   15  C           1     -24.625  -3.417 -10.153  0.00  0.00     0.197 C 
HETATM   16  O           1     -25.137  -3.329 -11.290  0.00  0.00    -0.646 OA
HETATM   17  O           1     -25.094  -2.754  -9.203  0.00  0.00    -0.646 OA
ENDBRANCH  14  15
BRANCH  14  18
HETATM   18  N           1     -22.957  -4.812 -11.206  0.00  0.00    -0.345 N 
HETATM   19  C           1     -21.954  -4.146 -11.859  0.00  0.00     0.243 C 
HETATM   20  O           1     -20.801  -4.438 -11.653  0.00  0.00    -0.272 OA
HETATM   21  H           1     -23.361  -5.645 -11.614  0.00  0.00     0.163 HD
BRANCH  19  22
HETATM   22  C           1     -22.292  -3.046 -12.835  0.00  0.00     0.332 C 
BRANCH  22  23
HETATM   23  N           1     -23.371  -3.516 -13.765  0.00  0.00    -0.071 N 
HETATM   24  H           1     -22.949  -4.104 -14.519  0.00  0.00     0.274 HD
HETATM   25  H           1     -24.069  -4.081 -13.230  0.00  0.00     0.274 HD
HETATM   26  H           1     -23.846  -2.690 -14.194  0.00  0.00     0.274 HD
ENDBRANCH  22  23
ENDBRANCH  19  22
ENDBRANCH  14  18
ENDBRANCH   1  14
TORSDOF 9
ENDMDL
MODEL 3
REMARK VINA RESULT:      -7.0      1.628      2.259
REMARK  9 active torsions:
REMARK  status: ('A' for Active; 'I' for Inactive)
REMARK    1  A    between atoms: P_2  and  O_3 
REMARK    2  A    between atoms: P_2  and  O_7 
REMARK    3  A    between atoms: O_3  and  C_4 
REMARK    4  A    between atoms: C_6  and  C_10 
REMARK    5  A    between atoms: C_10  and  C_11 
REMARK    6  A    between atoms: C_11  and  C_13 
REMARK    7  A    between atoms: C_11  and  N_20 
REMARK    8  A    between atoms: N_15  and  C_26 
REMARK       I    between atoms: C_17  and  N_20 
REMARK    9  A    between atoms: C_17  and  C_26 
ROOT
HETATM    1  C           1     -20.977  -5.548  -5.724  0.00  0.00     0.074 C 
ENDROOT
BRANCH   1   2
HETATM    2  C           1     -21.347  -4.949  -7.045  0.00  0.00    -0.056 A 
HETATM    3  C           1     -22.617  -4.405  -7.233  0.00  0.00     0.010 A 
HETATM    4  C           1     -22.962  -3.846  -8.464  0.00  0.00     0.038 A 
HETATM    5  C           1     -22.036  -3.833  -9.507  0.00  0.00     0.081 A 
HETATM    6  C           1     -20.765  -4.377  -9.319  0.00  0.00     0.038 A 
HETATM    7  C           1     -20.421  -4.935  -8.088  0.00  0.00     0.010 A 
BRANCH   5   8
HETATM    8  O           1     -22.371  -3.291 -10.703  0.00  0.00    -0.247 OA
BRANCH   8   9
HETATM    9  P           1     -23.609  -3.942 -11.510  0.00  0.00     0.411 P 
HETATM   10  O           1     -24.847  -3.189 -11.208  0.00  0.00    -0.624 OA
HETATM   11  O           1     -23.778  -5.354 -11.099  0.00  0.00    -0.624 OA
BRANCH   9  12
HETATM   12  O           1     -23.312  -3.874 -13.096  0.00  0.00    -0.300 OA
HETATM   13  H           1     -22.372  -3.875 -13.169  0.00  0.00     0.223 HD
ENDBRANCH   9  12
ENDBRANCH   8   9
ENDBRANCH   5   8
ENDBRANCH   1   2
BRANCH   1  14
HETATM   14  C           1     -21.695  -6.880  -5.549  0.00  0.00     0.189 C 
BRANCH  14  15
HETATM   15  C           1     -20.708  -8.009  -5.707  0.00  0.00     0.197 C 
HETATM   16  O           1     -19.501  -7.760  -5.915  0.00  0.00    -0.646 OA
HETATM   17  O           1     -21.097  -9.195  -5.629  0.00  0.00    -0.646 OA
ENDBRANCH  14  15
BRANCH  14  18
HETATM   18  N           1     -22.288  -6.937  -4.228  0.00  0.00    -0.345 N 
HETATM   19  C           1     -21.525  -6.677  -3.121  0.00  0.00     0.243 C 
HETATM   20  O           1     -21.435  -5.548  -2.701  0.00  0.00    -0.272 OA
HETATM   21  H           1     -23.267  -7.170  -4.123  0.00  0.00     0.163 HD
BRANCH  19  22
HETATM   22  C           1     -20.793  -7.800  -2.428  0.00  0.00     0.332 C 
BRANCH  22  23
HETATM   23  N           1     -21.620  -9.050  -2.495  0.00  0.00    -0.071 N 
HETATM   24  H           1     -22.537  -8.838  -2.948  0.00  0.00     0.274 HD
HETATM   25  H           1     -21.113  -9.773  -3.054  0.00  0.00     0.274 HD
HETATM   26  H           1     -21.786  -9.411  -1.528  0.00  0.00     0.274 HD
ENDBRANCH  22  23
ENDBRANCH  19  22
ENDBRANCH  14  18
ENDBRANCH   1  14
TORSDOF 9
ENDMDL
MODEL 4
REMARK VINA RESULT:      -6.6      3.919      7.706
REMARK  9 active torsions:
REMARK  status: ('A' for Active; 'I' for Inactive)
REMARK    1  A    between atoms: P_2  and  O_3 
REMARK    2  A    between atoms: P_2  and  O_7 
REMARK    3  A    between atoms: O_3  and  C_4 
REMARK    4  A    between atoms: C_6  and  C_10 
REMARK    5  A    between atoms: C_10  and  C_11 
REMARK    6  A    between atoms: C_11  and  C_13 
REMARK    7  A    between atoms: C_11  and  N_20 
REMARK    8  A    between atoms: N_15  and  C_26 
REMARK       I    between atoms: C_17  and  N_20 
REMARK    9  A    between atoms: C_17  and  C_26 
ROOT
HETATM    1  C           1     -22.431  -2.968 -10.551  0.00  0.00     0.074 C 
ENDROOT
BRANCH   1   2
HETATM    2  C           1     -21.858  -3.684  -9.369  0.00  0.00    -0.056 A 
HETATM    3  C           1     -22.151  -3.246  -8.078  0.00  0.00     0.010 A 
HETATM    4  C           1     -21.617  -3.914  -6.975  0.00  0.00     0.038 A 
HETATM    5  C           1     -20.791  -5.021  -7.165  0.00  0.00     0.081 A 
HETATM    6  C           1     -20.499  -5.461  -8.456  0.00  0.00     0.038 A 
HETATM    7  C           1     -21.032  -4.792  -9.558  0.00  0.00     0.010 A 
BRANCH   5   8
HETATM    8  O           1     -20.273  -5.671  -6.094  0.00  0.00    -0.247 OA
BRANCH   8   9
HETATM    9  P           1     -21.190  -6.782  -5.365  0.00  0.00     0.411 P 
HETATM   10  O           1     -21.316  -7.970  -6.238  0.00  0.00    -0.624 OA
HETATM   11  O           1     -22.534  -6.218  -5.104  0.00  0.00    -0.624 OA
BRANCH   9  12
HETATM   12  O           1     -20.505  -7.212  -3.967  0.00  0.00    -0.300 OA
HETATM   13  H           1     -19.656  -6.803  -3.975  0.00  0.00     0.223 HD
ENDBRANCH   9  12
ENDBRANCH   8   9
ENDBRANCH   5   8
ENDBRANCH   1   2
BRANCH   1  14
HETATM   14  C           1     -23.607  -3.761 -11.106  0.00  0.00     0.189 C 
BRANCH  14  15
HETATM   15  C           1     -24.661  -3.914 -10.038  0.00  0.00     0.197 C 
HETATM   16  O           1     -25.257  -2.906  -9.600  0.00  0.00    -0.646 OA
HETATM   17  O           1     -24.939  -5.048  -9.591  0.00  0.00    -0.646 OA
ENDBRANCH  14  15
BRANCH  14  18
HETATM   18  N           1     -24.169  -3.058 -12.242  0.00  0.00    -0.345 N 
HETATM   19  C           1     -23.845  -3.443 -13.516  0.00  0.00     0.243 C 
HETATM   20  O           1     -24.512  -4.274 -14.085  0.00  0.00    -0.272 OA
HETATM   21  H           1     -24.803  -2.283 -12.094  0.00  0.00     0.163 HD
BRANCH  19  22
HETATM   22  C           1     -22.652  -2.829 -14.207  0.00  0.00     0.332 C 
BRANCH  22  23
HETATM   23  N           1     -23.123  -1.821 -15.214  0.00  0.00    -0.071 N 
HETATM   24  H           1     -24.048  -2.118 -15.598  0.00  0.00     0.274 HD
HETATM   25  H           1     -23.218  -0.888 -14.754  0.00  0.00     0.274 HD
HETATM   26  H           1     -22.428  -1.756 -15.993  0.00  0.00     0.274 HD
ENDBRANCH  22  23
ENDBRANCH  19  22
ENDBRANCH  14  18
ENDBRANCH   1  14
TORSDOF 9
ENDMDL
MODEL 5
REMARK VINA RESULT:      -6.5      2.898      4.271
REMARK  9 active torsions:
REMARK  status: ('A' for Active; 'I' for Inactive)
REMARK    1  A    between atoms: P_2  and  O_3 
REMARK    2  A    between atoms: P_2  and  O_7 
REMARK    3  A    between atoms: O_3  and  C_4 
REMARK    4  A    between atoms: C_6  and  C_10 
REMARK    5  A    between atoms: C_10  and  C_11 
REMARK    6  A    between atoms: C_11  and  C_13 
REMARK    7  A    between atoms: C_11  and  N_20 
REMARK    8  A    between atoms: N_15  and  C_26 
REMARK       I    between atoms: C_17  and  N_20 
REMARK    9  A    between atoms: C_17  and  C_26 
ROOT
HETATM    1  C           1     -21.990  -7.286  -4.850  0.00  0.00     0.074 C 
ENDROOT
BRANCH   1   2
HETATM    2  C           1     -21.553  -6.327  -5.913  0.00  0.00    -0.056 A 
HETATM    3  C           1     -20.270  -6.420  -6.452  0.00  0.00     0.010 A 
HETATM    4  C           1     -19.863  -5.526  -7.442  0.00  0.00     0.038 A 
HETATM    5  C           1     -20.739  -4.540  -7.894  0.00  0.00     0.081 A 
HETATM    6  C           1     -22.023  -4.447  -7.356  0.00  0.00     0.038 A 
HETATM    7  C           1     -22.430  -5.341  -6.365  0.00  0.00     0.010 A 
BRANCH   5   8
HETATM    8  O           1     -20.344  -3.672  -8.857  0.00  0.00    -0.247 OA
BRANCH   8   9
HETATM    9  P           1     -20.584  -4.088 -10.398  0.00  0.00     0.411 P 
HETATM   10  O           1     -21.955  -4.623 -10.558  0.00  0.00    -0.624 OA
HETATM   11  O           1     -19.603  -5.125 -10.788  0.00  0.00    -0.624 OA
BRANCH   9  12
HETATM   12  O           1     -20.401  -2.790 -11.342  0.00  0.00    -0.300 OA
HETATM   13  H           1     -20.181  -2.089 -10.752  0.00  0.00     0.223 HD
ENDBRANCH   9  12
ENDBRANCH   8   9
ENDBRANCH   5   8
ENDBRANCH   1   2
BRANCH   1  14
HETATM   14  C           1     -20.920  -7.372  -3.770  0.00  0.00     0.189 C 
BRANCH  14  15
HETATM   15  C           1     -21.482  -6.873  -2.462  0.00  0.00     0.197 C 
HETATM   16  O           1     -21.207  -7.467  -1.397  0.00  0.00    -0.646 OA
HETATM   17  O           1     -22.222  -5.866  -2.444  0.00  0.00    -0.646 OA
ENDBRANCH  14  15
BRANCH  14  18
HETATM   18  N           1     -20.497  -8.750  -3.619  0.00  0.00    -0.345 N 
HETATM   19  C           1     -19.182  -9.088  -3.801  0.00  0.00     0.243 C 
HETATM   20  O           1     -18.418  -9.068  -2.867  0.00  0.00    -0.272 OA
HETATM   21  H           1     -21.173  -9.463  -3.378  0.00  0.00     0.163 HD
BRANCH  19  22
HETATM   22  C           1     -18.689  -9.483  -5.172  0.00  0.00     0.332 C 
BRANCH  22  23
HETATM   23  N           1     -19.761 -10.252  -5.886  0.00  0.00    -0.071 N 
HETATM   24  H           1     -20.379  -9.588  -6.404  0.00  0.00     0.274 HD
HETATM   25  H           1     -19.320 -10.917  -6.560  0.00  0.00     0.274 HD
HETATM   26  H           1     -20.329 -10.786  -5.190  0.00  0.00     0.274 HD
ENDBRANCH  22  23
ENDBRANCH  19  22
ENDBRANCH  14  18
ENDBRANCH   1  14
TORSDOF 9
ENDMDL
MODEL 6
REMARK VINA RESULT:      -6.4      4.798      8.664
REMARK  9 active torsions:
REMARK  status: ('A' for Active; 'I' for Inactive)
REMARK    1  A    between atoms: P_2  and  O_3 
REMARK    2  A    between atoms: P_2  and  O_7 
REMARK    3  A    between atoms: O_3  and  C_4 
REMARK    4  A    between atoms: C_6  and  C_10 
REMARK    5  A    between atoms: C_10  and  C_11 
REMARK    6  A    between atoms: C_11  and  C_13 
REMARK    7  A    between atoms: C_11  and  N_20 
REMARK    8  A    between atoms: N_15  and  C_26 
REMARK       I    between atoms: C_17  and  N_20 
REMARK    9  A    between atoms: C_17  and  C_26 
ROOT
HETATM    1  C           1     -21.185  -6.489  -6.120  0.00  0.00     0.074 C 
ENDROOT
BRANCH   1   2
HETATM    2  C           1     -21.079  -6.949  -4.699  0.00  0.00    -0.056 A 
HETATM    3  C           1     -21.788  -6.289  -3.697  0.00  0.00     0.010 A 
HETATM    4  C           1     -21.690  -6.717  -2.373  0.00  0.00     0.038 A 
HETATM    5  C           1     -20.880  -7.807  -2.053  0.00  0.00     0.081 A 
HETATM    6  C           1     -20.171  -8.469  -3.055  0.00  0.00     0.038 A 
HETATM    7  C           1     -20.270  -8.039  -4.379  0.00  0.00     0.010 A 
BRANCH   5   8
HETATM    8  O           1     -20.784  -8.224  -0.767  0.00  0.00    -0.247 OA
BRANCH   8   9
HETATM    9  P           1     -21.975  -9.142  -0.177  0.00  0.00     0.411 P 
HETATM   10  O           1     -21.423 -10.089   0.817  0.00  0.00    -0.624 OA
HETATM   11  O           1     -22.608  -9.899  -1.280  0.00  0.00    -0.624 OA
BRANCH   9  12
HETATM   12  O           1     -23.079  -8.200   0.534  0.00  0.00    -0.300 OA
HETATM   13  H           1     -23.403  -8.708   1.259  0.00  0.00     0.223 HD
ENDBRANCH   9  12
ENDBRANCH   8   9
ENDBRANCH   5   8
ENDBRANCH   1   2
BRANCH   1  14
HETATM   14  C           1     -20.524  -5.124  -6.264  0.00  0.00     0.189 C 
BRANCH  14  15
HETATM   15  C           1     -19.611  -5.130  -7.464  0.00  0.00     0.197 C 
HETATM   16  O           1     -18.649  -4.333  -7.521  0.00  0.00    -0.646 OA
HETATM   17  O           1     -19.817  -5.930  -8.402  0.00  0.00    -0.646 OA
ENDBRANCH  14  15
BRANCH  14  18
HETATM   18  N           1     -21.546  -4.110  -6.439  0.00  0.00    -0.345 N 
HETATM   19  C           1     -22.731  -4.429  -7.045  0.00  0.00     0.243 C 
HETATM   20  O           1     -23.663  -4.822  -6.384  0.00  0.00    -0.272 OA
HETATM   21  H           1     -21.383  -3.167  -6.112  0.00  0.00     0.163 HD
BRANCH  19  22
HETATM   22  C           1     -22.873  -4.291  -8.542  0.00  0.00     0.332 C 
BRANCH  22  23
HETATM   23  N           1     -24.185  -3.638  -8.861  0.00  0.00    -0.071 N 
HETATM   24  H           1     -24.937  -4.363  -8.891  0.00  0.00     0.274 HD
HETATM   25  H           1     -24.410  -2.931  -8.125  0.00  0.00     0.274 HD
HETATM   26  H           1     -24.122  -3.164  -9.791  0.00  0.00     0.274 HD
ENDBRANCH  22  23
ENDBRANCH  19  22
ENDBRANCH  14  18
ENDBRANCH   1  14
TORSDOF 9
ENDMDL
MODEL 7
REMARK VINA RESULT:      -6.4      3.516      7.408
REMARK  9 active torsions:
REMARK  status: ('A' for Active; 'I' for Inactive)
REMARK    1  A    between atoms: P_2  and  O_3 
REMARK    2  A    between atoms: P_2  and  O_7 
REMARK    3  A    between atoms: O_3  and  C_4 
REMARK    4  A    between atoms: C_6  and  C_10 
REMARK    5  A    between atoms: C_10  and  C_11 
REMARK    6  A    between atoms: C_11  and  C_13 
REMARK    7  A    between atoms: C_11  and  N_20 
REMARK    8  A    between atoms: N_15  and  C_26 
REMARK       I    between atoms: C_17  and  N_20 
REMARK    9  A    between atoms: C_17  and  C_26 
ROOT
HETATM    1  C           1     -20.205  -4.267  -8.911  0.00  0.00     0.074 C 
ENDROOT
BRANCH   1   2
HETATM    2  C           1     -20.668  -5.005  -7.694  0.00  0.00    -0.056 A 
HETATM    3  C           1     -21.891  -4.685  -7.107  0.00  0.00     0.010 A 
HETATM    4  C           1     -22.324  -5.374  -5.973  0.00  0.00     0.038 A 
HETATM    5  C           1     -21.531  -6.384  -5.427  0.00  0.00     0.081 A 
HETATM    6  C           1     -20.308  -6.705  -6.015  0.00  0.00     0.038 A 
HETATM    7  C           1     -19.876  -6.016  -7.149  0.00  0.00     0.010 A 
BRANCH   5   8
HETATM    8  O           1     -21.951  -7.053  -4.326  0.00  0.00    -0.247 OA
BRANCH   8   9
HETATM    9  P           1     -21.526  -6.474  -2.880  0.00  0.00     0.411 P 
HETATM   10  O           1     -20.616  -5.321  -3.057  0.00  0.00    -0.624 OA
HETATM   11  O           1     -20.836  -7.532  -2.109  0.00  0.00    -0.624 OA
BRANCH   9  12
HETATM   12  O           1     -22.847  -5.999  -2.081  0.00  0.00    -0.300 OA
HETATM   13  H           1     -23.470  -6.696  -2.202  0.00  0.00     0.223 HD
ENDBRANCH   9  12
ENDBRANCH   8   9
ENDBRANCH   5   8
ENDBRANCH   1   2
BRANCH   1  14
HETATM   14  C           1     -21.409  -3.867  -9.753  0.00  0.00     0.189 C 
BRANCH  14  15
HETATM   15  C           1     -20.943  -3.379 -11.101  0.00  0.00     0.197 C 
HETATM   16  O           1     -19.973  -3.932 -11.664  0.00  0.00    -0.646 OA
HETATM   17  O           1     -21.526  -2.423 -11.656  0.00  0.00    -0.646 OA
ENDBRANCH  14  15
BRANCH  14  18
HETATM   18  N           1     -22.276  -5.016  -9.928  0.00  0.00    -0.345 N 
HETATM   19  C           1     -23.514  -4.862 -10.494  0.00  0.00     0.243 C 
HETATM   20  O           1     -23.648  -4.958 -11.690  0.00  0.00    -0.272 OA
HETATM   21  H           1     -21.966  -5.934  -9.634  0.00  0.00     0.163 HD
BRANCH  19  22
HETATM   22  C           1     -24.710  -4.569  -9.621  0.00  0.00     0.332 C 
BRANCH  22  23
HETATM   23  N           1     -24.683  -3.129  -9.203  0.00  0.00    -0.071 N 
HETATM   24  H           1     -24.895  -2.523 -10.028  0.00  0.00     0.274 HD
HETATM   25  H           1     -25.399  -2.969  -8.459  0.00  0.00     0.274 HD
HETATM   26  H           1     -23.735  -2.891  -8.832  0.00  0.00     0.274 HD
ENDBRANCH  22  23
ENDBRANCH  19  22
ENDBRANCH  14  18
ENDBRANCH   1  14
TORSDOF 9
ENDMDL
MODEL 8
REMARK VINA RESULT:      -6.2      6.072      8.390
REMARK  9 active torsions:
REMARK  status: ('A' for Active; 'I' for Inactive)
REMARK    1  A    between atoms: P_2  and  O_3 
REMARK    2  A    between atoms: P_2  and  O_7 
REMARK    3  A    between atoms: O_3  and  C_4 
REMARK    4  A    between atoms: C_6  and  C_10 
REMARK    5  A    between atoms: C_10  and  C_11 
REMARK    6  A    between atoms: C_11  and  C_13 
REMARK    7  A    between atoms: C_11  and  N_20 
REMARK    8  A    between atoms: N_15  and  C_26 
REMARK       I    between atoms: C_17  and  N_20 
REMARK    9  A    between atoms: C_17  and  C_26 
ROOT
HETATM    1  C           1     -22.368  -9.081   0.204  0.00  0.00     0.074 C 
ENDROOT
BRANCH   1   2
HETATM    2  C           1     -21.989  -8.209  -0.952  0.00  0.00    -0.056 A 
HETATM    3  C           1     -22.373  -6.869  -0.972  0.00  0.00     0.010 A 
HETATM    4  C           1     -22.019  -6.056  -2.049  0.00  0.00     0.038 A 
HETATM    5  C           1     -21.279  -6.585  -3.107  0.00  0.00     0.081 A 
HETATM    6  C           1     -20.893  -7.925  -3.088  0.00  0.00     0.038 A 
HETATM    7  C           1     -21.248  -8.737  -2.010  0.00  0.00     0.010 A 
BRANCH   5   8
HETATM    8  O           1     -20.935  -5.795  -4.153  0.00  0.00    -0.247 OA
BRANCH   8   9
HETATM    9  P           1     -21.731  -5.992  -5.545  0.00  0.00     0.411 P 
HETATM   10  O           1     -21.563  -4.785  -6.384  0.00  0.00    -0.624 OA
HETATM   11  O           1     -23.169  -6.202  -5.265  0.00  0.00    -0.624 OA
BRANCH   9  12
HETATM   12  O           1     -21.140  -7.276  -6.326  0.00  0.00    -0.300 OA
HETATM   13  H           1     -21.136  -7.969  -5.688  0.00  0.00     0.223 HD
ENDBRANCH   9  12
ENDBRANCH   8   9
ENDBRANCH   5   8
ENDBRANCH   1   2
BRANCH   1  14
HETATM   14  C           1     -21.721 -10.450   0.042  0.00  0.00     0.189 C 
BRANCH  14  15
HETATM   15  C           1     -20.503 -10.540   0.928  0.00  0.00     0.197 C 
HETATM   16  O           1     -19.587 -11.344   0.650  0.00  0.00    -0.646 OA
HETATM   17  O           1     -20.411  -9.812   1.939  0.00  0.00    -0.646 OA
ENDBRANCH  14  15
BRANCH  14  18
HETATM   18  N           1     -22.670 -11.479   0.419  0.00  0.00    -0.345 N 
HETATM   19  C           1     -22.679 -12.679  -0.241  0.00  0.00     0.243 C 
HETATM   20  O           1     -21.993 -13.591   0.155  0.00  0.00    -0.272 OA
HETATM   21  H           1     -23.326 -11.311   1.171  0.00  0.00     0.163 HD
BRANCH  19  22
HETATM   22  C           1     -23.544 -12.860  -1.463  0.00  0.00     0.332 C 
BRANCH  22  23
HETATM   23  N           1     -22.714 -12.664  -2.697  0.00  0.00    -0.071 N 
HETATM   24  H           1     -22.475 -13.594  -3.108  0.00  0.00     0.274 HD
HETATM   25  H           1     -23.254 -12.102  -3.394  0.00  0.00     0.274 HD
HETATM   26  H           1     -21.834 -12.157  -2.448  0.00  0.00     0.274 HD
ENDBRANCH  22  23
ENDBRANCH  19  22
ENDBRANCH  14  18
ENDBRANCH   1  14
TORSDOF 9
ENDMDL
MODEL 9
REMARK VINA RESULT:      -6.2      5.053      7.092
REMARK  9 active torsions:
REMARK  status: ('A' for Active; 'I' for Inactive)
REMARK    1  A    between atoms: P_2  and  O_3 
REMARK    2  A    between atoms: P_2  and  O_7 
REMARK    3  A    between atoms: O_3  and  C_4 
REMARK    4  A    between atoms: C_6  and  C_10 
REMARK    5  A    between atoms: C_10  and  C_11 
REMARK    6  A    between atoms: C_11  and  C_13 
REMARK    7  A    between atoms: C_11  and  N_20 
REMARK    8  A    between atoms: N_15  and  C_26 
REMARK       I    between atoms: C_17  and  N_20 
REMARK    9  A    between atoms: C_17  and  C_26 
ROOT
HETATM    1  C           1     -20.305  -9.324  -1.890  0.00  0.00     0.074 C 
ENDROOT
BRANCH   1   2
HETATM    2  C           1     -20.818  -8.331  -2.886  0.00  0.00    -0.056 A 
HETATM    3  C           1     -21.155  -7.042  -2.477  0.00  0.00     0.010 A 
HETATM    4  C           1     -21.632  -6.116  -3.405  0.00  0.00     0.038 A 
HETATM    5  C           1     -21.771  -6.482  -4.744  0.00  0.00     0.081 A 
HETATM    6  C           1     -21.433  -7.771  -5.155  0.00  0.00     0.038 A 
HETATM    7  C           1     -20.956  -8.696  -4.225  0.00  0.00     0.010 A 
BRANCH   5   8
HETATM    8  O           1     -22.234  -5.583  -5.647  0.00  0.00    -0.247 OA
BRANCH   8   9
HETATM    9  P           1     -21.162  -4.857  -6.612  0.00  0.00     0.411 P 
HETATM   10  O           1     -20.914  -5.704  -7.800  0.00  0.00    -0.624 OA
HETATM   11  O           1     -19.893  -4.656  -5.877  0.00  0.00    -0.624 OA
BRANCH   9  12
HETATM   12  O           1     -21.745  -3.427  -7.084  0.00  0.00    -0.300 OA
HETATM   13  H           1     -21.445  -3.322  -7.972  0.00  0.00     0.223 HD
ENDBRANCH   9  12
ENDBRANCH   8   9
ENDBRANCH   5   8
ENDBRANCH   1   2
BRANCH   1  14
HETATM   14  C           1     -21.336 -10.428  -1.696  0.00  0.00     0.189 C 
BRANCH  14  15
HETATM   15  C           1     -20.701 -11.767  -1.976  0.00  0.00     0.197 C 
HETATM   16  O           1     -19.891 -11.888  -2.921  0.00  0.00    -0.646 OA
HETATM   17  O           1     -20.984 -12.755  -1.265  0.00  0.00    -0.646 OA
ENDBRANCH  14  15
BRANCH  14  18
HETATM   18  N           1     -21.821 -10.401  -0.330  0.00  0.00    -0.345 N 
HETATM   19  C           1     -23.042  -9.849  -0.046  0.00  0.00     0.243 C 
HETATM   20  O           1     -24.035 -10.537  -0.064  0.00  0.00    -0.272 OA
HETATM   21  H           1     -21.256 -10.790   0.415  0.00  0.00     0.163 HD
BRANCH  19  22
HETATM   22  C           1     -23.146  -8.381   0.287  0.00  0.00     0.332 C 
BRANCH  22  23
HETATM   23  N           1     -21.947  -7.963   1.087  0.00  0.00    -0.071 N 
HETATM   24  H           1     -21.920  -8.502   1.982  0.00  0.00     0.274 HD
HETATM   25  H           1     -21.079  -8.155   0.537  0.00  0.00     0.274 HD
HETATM   26  H           1     -22.008  -6.941   1.298  0.00  0.00     0.274 HD
ENDBRANCH  22  23
ENDBRANCH  19  22
ENDBRANCH  14  18
ENDBRANCH   1  14
TORSDOF 9
ENDMDL
