MODEL 1
REMARK VINA RESULT:      -8.9      0.000      0.000
REMARK  10 active torsions:
REMARK  status: ('A' for Active; 'I' for Inactive)
REMARK    1  A    between atoms: C_3  and  C_13 
REMARK    2  A    between atoms: C_3  and  C_20 
REMARK    3  A    between atoms: C_4  and  C_22 
REMARK    4  A    between atoms: C_4  and  O_5 
REMARK    5  A    between atoms: O_5  and  P_10 
REMARK    6  A    between atoms: N_6  and  C_13 
REMARK    7  A    between atoms: P_10  and  O_11 
REMARK    8  A    between atoms: C_13  and  C_19 
REMARK    9  A    between atoms: C_16  and  C_22 
REMARK   10  A    between atoms: N_18  and  C_22 
REMARK       I    between atoms: N_18  and  C_19 
ROOT
HETATM    1  C           1     -21.124  -5.869  -6.949  0.00  0.00     0.278 C 
ENDROOT
BRANCH   1   2
HETATM    2  C           1     -20.944  -5.569  -5.467  0.00  0.00     0.083 C 
BRANCH   2   3
HETATM    3  C           1     -20.995  -6.847  -4.689  0.00  0.00    -0.028 A 
HETATM    4  C           1     -21.430  -6.992  -3.343  0.00  0.00    -0.002 A 
HETATM    5  C           1     -21.314  -8.344  -3.016  0.00  0.00     0.042 A 
HETATM    6  C           1     -21.914  -6.099  -2.367  0.00  0.00     0.014 A 
HETATM    7  N           1     -20.824  -8.987  -4.130  0.00  0.00    -0.365 N 
HETATM    8  C           1     -21.659  -8.849  -1.757  0.00  0.00     0.030 A 
HETATM    9  H           1     -20.630 -10.018  -4.191  0.00  0.00     0.165 HD
HETATM   10  C           1     -20.628  -8.091  -5.147  0.00  0.00     0.096 A 
HETATM   11  C           1     -22.137  -7.942  -0.806  0.00  0.00     0.002 A 
HETATM   12  C           1     -22.264  -6.588  -1.103  0.00  0.00     0.001 A 
ENDBRANCH   2   3
ENDBRANCH   1   2
BRANCH   1  13
HETATM   13  N           1     -19.791  -6.175  -7.562  0.00  0.00    -0.066 N 
HETATM   14  H           1     -19.156  -5.352  -7.449  0.00  0.00     0.275 HD
HETATM   15  H           1     -19.371  -7.006  -7.085  0.00  0.00     0.275 HD
HETATM   16  H           1     -19.914  -6.382  -8.579  0.00  0.00     0.275 HD
ENDBRANCH   1  13
BRANCH   1  17
HETATM   17  C           1     -21.730  -4.669  -7.636  0.00  0.00     0.249 C 
HETATM   18  O           1     -21.820  -3.618  -7.048  0.00  0.00    -0.271 OA
HETATM   19  N           1     -22.177  -4.773  -8.926  0.00  0.00    -0.343 N 
HETATM   20  H           1     -22.102  -5.653  -9.418  0.00  0.00     0.163 HD
BRANCH  19  21
HETATM   21  C           1     -22.759  -3.620  -9.586  0.00  0.00     0.210 C 
BRANCH  21  22
HETATM   22  C           1     -22.175  -3.490 -10.988  0.00  0.00     0.217 C 
BRANCH  22  23
HETATM   23  O           1     -22.904  -2.537 -11.711  0.00  0.00    -0.287 OA
BRANCH  23  24
HETATM   24  P           1     -23.672  -3.079 -13.024  0.00  0.00     0.406 P 
HETATM   25  O           1     -22.945  -2.642 -14.237  0.00  0.00    -0.624 OA
HETATM   26  O           1     -25.048  -2.535 -13.051  0.00  0.00    -0.624 OA
BRANCH  24  27
HETATM   27  O           1     -23.731  -4.693 -12.985  0.00  0.00    -0.300 OA
HETATM   28  H           1     -24.306  -4.899 -12.269  0.00  0.00     0.223 HD
ENDBRANCH  24  27
ENDBRANCH  23  24
ENDBRANCH  22  23
ENDBRANCH  21  22
BRANCH  21  29
HETATM   29  C           1     -24.255  -3.794  -9.679  0.00  0.00     0.198 C 
HETATM   30  O           1     -25.012  -2.836  -9.414  0.00  0.00    -0.646 OA
HETATM   31  O           1     -24.736  -4.895 -10.020  0.00  0.00    -0.646 OA
ENDBRANCH  21  29
ENDBRANCH  19  21
ENDBRANCH   1  17
TORSDOF 10
ENDMDL
MODEL 2
REMARK VINA RESULT:      -8.2      5.258      8.999
REMARK  10 active torsions:
REMARK  status: ('A' for Active; 'I' for Inactive)
REMARK    1  A    between atoms: C_3  and  C_13 
REMARK    2  A    between atoms: C_3  and  C_20 
REMARK    3  A    between atoms: C_4  and  C_22 
REMARK    4  A    between atoms: C_4  and  O_5 
REMARK    5  A    between atoms: O_5  and  P_10 
REMARK    6  A    between atoms: N_6  and  C_13 
REMARK    7  A    between atoms: P_10  and  O_11 
REMARK    8  A    between atoms: C_13  and  C_19 
REMARK    9  A    between atoms: C_16  and  C_22 
REMARK   10  A    between atoms: N_18  and  C_22 
REMARK       I    between atoms: N_18  and  C_19 
ROOT
HETATM    1  C           1     -20.828  -5.493  -6.077  0.00  0.00     0.278 C 
ENDROOT
BRANCH   1   2
HETATM    2  C           1     -20.631  -5.267  -7.570  0.00  0.00     0.083 C 
BRANCH   2   3
HETATM    3  C           1     -21.871  -4.662  -8.152  0.00  0.00    -0.028 A 
HETATM    4  C           1     -22.041  -4.228  -9.496  0.00  0.00    -0.002 A 
HETATM    5  C           1     -23.341  -3.732  -9.607  0.00  0.00     0.042 A 
HETATM    6  C           1     -21.210  -4.210 -10.633  0.00  0.00     0.014 A 
HETATM    7  N           1     -23.930  -3.864  -8.369  0.00  0.00    -0.365 N 
HETATM    8  C           1     -23.853  -3.217 -10.803  0.00  0.00     0.030 A 
HETATM    9  H           1     -24.913  -3.577  -8.139  0.00  0.00     0.165 HD
HETATM   10  C           1     -23.049  -4.426  -7.483  0.00  0.00     0.096 A 
HETATM   11  C           1     -23.009  -3.210 -11.918  0.00  0.00     0.002 A 
HETATM   12  C           1     -21.707  -3.698 -11.837  0.00  0.00     0.001 A 
ENDBRANCH   2   3
ENDBRANCH   1   2
BRANCH   1  13
HETATM   13  N           1     -20.077  -4.447  -5.310  0.00  0.00    -0.066 N 
HETATM   14  H           1     -19.153  -4.830  -5.007  0.00  0.00     0.275 HD
HETATM   15  H           1     -19.923  -3.611  -5.920  0.00  0.00     0.275 HD
HETATM   16  H           1     -20.631  -4.168  -4.468  0.00  0.00     0.275 HD
ENDBRANCH   1  13
BRANCH   1  17
HETATM   17  C           1     -20.310  -6.861  -5.702  0.00  0.00     0.249 C 
HETATM   18  O           1     -19.532  -7.432  -6.429  0.00  0.00    -0.271 OA
HETATM   19  N           1     -20.723  -7.453  -4.539  0.00  0.00    -0.343 N 
HETATM   20  H           1     -21.375  -6.975  -3.931  0.00  0.00     0.163 HD
BRANCH  19  21
HETATM   21  C           1     -20.225  -8.766  -4.179  0.00  0.00     0.210 C 
BRANCH  21  22
HETATM   22  C           1     -20.117  -8.869  -2.662  0.00  0.00     0.217 C 
BRANCH  22  23
HETATM   23  O           1     -20.719  -7.750  -2.073  0.00  0.00    -0.287 OA
BRANCH  23  24
HETATM   24  P           1     -21.773  -8.054  -0.889  0.00  0.00     0.406 P 
HETATM   25  O           1     -22.730  -6.930  -0.777  0.00  0.00    -0.624 OA
HETATM   26  O           1     -21.046  -8.211   0.391  0.00  0.00    -0.624 OA
BRANCH  24  27
HETATM   27  O           1     -22.579  -9.414  -1.221  0.00  0.00    -0.300 OA
HETATM   28  H           1     -23.438  -9.284  -0.859  0.00  0.00     0.223 HD
ENDBRANCH  24  27
ENDBRANCH  23  24
ENDBRANCH  22  23
ENDBRANCH  21  22
BRANCH  21  29
HETATM   29  C           1     -21.175  -9.822  -4.687  0.00  0.00     0.198 C 
HETATM   30  O           1     -22.143 -10.183  -3.983  0.00  0.00    -0.646 OA
HETATM   31  O           1     -20.993 -10.337  -5.811  0.00  0.00    -0.646 OA
ENDBRANCH  21  29
ENDBRANCH  19  21
ENDBRANCH   1  17
TORSDOF 10
ENDMDL
MODEL 3
REMARK VINA RESULT:      -8.0      5.057      9.251
REMARK  10 active torsions:
REMARK  status: ('A' for Active; 'I' for Inactive)
REMARK    1  A    between atoms: C_3  and  C_13 
REMARK    2  A    between atoms: C_3  and  C_20 
REMARK    3  A    between atoms: C_4  and  C_22 
REMARK    4  A    between atoms: C_4  and  O_5 
REMARK    5  A    between atoms: O_5  and  P_10 
REMARK    6  A    between atoms: N_6  and  C_13 
REMARK    7  A    between atoms: P_10  and  O_11 
REMARK    8  A    between atoms: C_13  and  C_19 
REMARK    9  A    between atoms: C_16  and  C_22 
REMARK   10  A    between atoms: N_18  and  C_22 
REMARK       I    between atoms: N_18  and  C_19 
ROOT
HETATM    1  C           1     -22.222  -5.189  -6.775  0.00  0.00     0.278 C 
ENDROOT
BRANCH   1   2
HETATM    2  C           1     -21.602  -3.895  -7.284  0.00  0.00     0.083 C 
BRANCH   2   3
HETATM    3  C           1     -21.349  -4.006  -8.755  0.00  0.00    -0.028 A 
HETATM    4  C           1     -22.303  -3.794  -9.788  0.00  0.00    -0.002 A 
HETATM    5  C           1     -21.648  -4.000 -11.002  0.00  0.00     0.042 A 
HETATM    6  C           1     -23.668  -3.446  -9.806  0.00  0.00     0.014 A 
HETATM    7  N           1     -20.343  -4.325 -10.706  0.00  0.00    -0.365 N 
HETATM    8  C           1     -22.291  -3.875 -12.239  0.00  0.00     0.030 A 
HETATM    9  H           1     -19.601  -4.537 -11.419  0.00  0.00     0.165 HD
HETATM   10  C           1     -20.152  -4.331  -9.350  0.00  0.00     0.096 A 
HETATM   11  C           1     -23.646  -3.528 -12.230  0.00  0.00     0.002 A 
HETATM   12  C           1     -24.326  -3.316 -11.034  0.00  0.00     0.001 A 
ENDBRANCH   2   3
ENDBRANCH   1   2
BRANCH   1  13
HETATM   13  N           1     -23.641  -4.934  -6.362  0.00  0.00    -0.066 N 
HETATM   14  H           1     -24.081  -5.830  -6.051  0.00  0.00     0.275 HD
HETATM   15  H           1     -23.657  -4.248  -5.574  0.00  0.00     0.275 HD
HETATM   16  H           1     -24.175  -4.547  -7.173  0.00  0.00     0.275 HD
ENDBRANCH   1  13
BRANCH   1  17
HETATM   17  C           1     -21.436  -5.693  -5.589  0.00  0.00     0.249 C 
HETATM   18  O           1     -20.230  -5.631  -5.594  0.00  0.00    -0.271 OA
HETATM   19  N           1     -22.090  -6.221  -4.509  0.00  0.00    -0.343 N 
HETATM   20  H           1     -23.100  -6.273  -4.505  0.00  0.00     0.163 HD
BRANCH  19  21
HETATM   21  C           1     -21.335  -6.704  -3.369  0.00  0.00     0.210 C 
BRANCH  21  22
HETATM   22  C           1     -22.198  -6.622  -2.116  0.00  0.00     0.217 C 
BRANCH  22  23
HETATM   23  O           1     -21.482  -7.125  -1.022  0.00  0.00    -0.287 OA
BRANCH  23  24
HETATM   24  P           1     -22.271  -8.175  -0.083  0.00  0.00     0.406 P 
HETATM   25  O           1     -23.532  -7.563   0.393  0.00  0.00    -0.624 OA
HETATM   26  O           1     -21.426  -8.529   1.080  0.00  0.00    -0.624 OA
BRANCH  24  27
HETATM   27  O           1     -22.607  -9.509  -0.930  0.00  0.00    -0.300 OA
HETATM   28  H           1     -22.813  -9.203  -1.796  0.00  0.00     0.223 HD
ENDBRANCH  24  27
ENDBRANCH  23  24
ENDBRANCH  22  23
ENDBRANCH  21  22
BRANCH  21  29
HETATM   29  C           1     -20.929  -8.138  -3.606  0.00  0.00     0.198 C 
HETATM   30  O           1     -21.802  -9.008  -3.812  0.00  0.00    -0.646 OA
HETATM   31  O           1     -19.720  -8.456  -3.594  0.00  0.00    -0.646 OA
ENDBRANCH  21  29
ENDBRANCH  19  21
ENDBRANCH   1  17
TORSDOF 10
ENDMDL
MODEL 4
REMARK VINA RESULT:      -7.8      4.830      8.608
REMARK  10 active torsions:
REMARK  status: ('A' for Active; 'I' for Inactive)
REMARK    1  A    between atoms: C_3  and  C_13 
REMARK    2  A    between atoms: C_3  and  C_20 
REMARK    3  A    between atoms: C_4  and  C_22 
REMARK    4  A    between atoms: C_4  and  O_5 
REMARK    5  A    between atoms: O_5  and  P_10 
REMARK    6  A    between atoms: N_6  and  C_13 
REMARK    7  A    between atoms: P_10  and  O_11 
REMARK    8  A    between atoms: C_13  and  C_19 
REMARK    9  A    between atoms: C_16  and  C_22 
REMARK   10  A    between atoms: N_18  and  C_22 
REMARK       I    between atoms: N_18  and  C_19 
ROOT
HETATM    1  C           1     -21.124  -5.182  -5.716  0.00  0.00     0.278 C 
ENDROOT
BRANCH   1   2
HETATM    2  C           1     -20.972  -5.535  -7.189  0.00  0.00     0.083 C 
BRANCH   2   3
HETATM    3  C           1     -22.001  -4.797  -7.989  0.00  0.00    -0.028 A 
HETATM    4  C           1     -21.854  -4.346  -9.329  0.00  0.00    -0.002 A 
HETATM    5  C           1     -23.046  -3.710  -9.682  0.00  0.00     0.042 A 
HETATM    6  C           1     -20.817  -4.417 -10.281  0.00  0.00     0.014 A 
HETATM    7  N           1     -23.879  -3.779  -8.588  0.00  0.00    -0.365 N 
HETATM    8  C           1     -23.253  -3.140 -10.943  0.00  0.00     0.030 A 
HETATM    9  H           1     -24.851  -3.386  -8.549  0.00  0.00     0.165 HD
HETATM   10  C           1     -23.256  -4.435  -7.559  0.00  0.00     0.096 A 
HETATM   11  C           1     -22.209  -3.224 -11.870  0.00  0.00     0.002 A 
HETATM   12  C           1     -21.009  -3.852 -11.547  0.00  0.00     0.001 A 
ENDBRANCH   2   3
ENDBRANCH   1   2
BRANCH   1  13
HETATM   13  N           1     -19.848  -4.577  -5.213  0.00  0.00    -0.066 N 
HETATM   14  H           1     -19.685  -3.660  -5.687  0.00  0.00     0.275 HD
HETATM   15  H           1     -19.916  -4.427  -4.180  0.00  0.00     0.275 HD
HETATM   16  H           1     -19.052  -5.222  -5.421  0.00  0.00     0.275 HD
ENDBRANCH   1  13
BRANCH   1  17
HETATM   17  C           1     -21.434  -6.431  -4.927  0.00  0.00     0.249 C 
HETATM   18  O           1     -21.974  -7.367  -5.467  0.00  0.00    -0.271 OA
HETATM   19  N           1     -21.103  -6.503  -3.601  0.00  0.00    -0.343 N 
HETATM   20  H           1     -20.652  -5.718  -3.149  0.00  0.00     0.163 HD
BRANCH  19  21
HETATM   21  C           1     -21.400  -7.703  -2.844  0.00  0.00     0.210 C 
BRANCH  21  22
HETATM   22  C           1     -20.143  -8.556  -2.731  0.00  0.00     0.217 C 
BRANCH  22  23
HETATM   23  O           1     -20.386  -9.821  -3.282  0.00  0.00    -0.287 OA
BRANCH  23  24
HETATM   24  P           1     -19.756 -10.089  -4.745  0.00  0.00     0.406 P 
HETATM   25  O           1     -19.106 -11.419  -4.767  0.00  0.00    -0.624 OA
HETATM   26  O           1     -18.752  -9.044  -5.048  0.00  0.00    -0.624 OA
BRANCH  24  27
HETATM   27  O           1     -20.930 -10.046  -5.853  0.00  0.00    -0.300 OA
HETATM   28  H           1     -21.568 -10.673  -5.558  0.00  0.00     0.223 HD
ENDBRANCH  24  27
ENDBRANCH  23  24
ENDBRANCH  22  23
ENDBRANCH  21  22
BRANCH  21  29
HETATM   29  C           1     -21.875  -7.323  -1.462  0.00  0.00     0.198 C 
HETATM   30  O           1     -22.502  -6.256  -1.289  0.00  0.00    -0.646 OA
HETATM   31  O           1     -21.639  -8.075  -0.492  0.00  0.00    -0.646 OA
ENDBRANCH  21  29
ENDBRANCH  19  21
ENDBRANCH   1  17
TORSDOF 10
ENDMDL
MODEL 5
REMARK VINA RESULT:      -7.4      5.019      7.723
REMARK  10 active torsions:
REMARK  status: ('A' for Active; 'I' for Inactive)
REMARK    1  A    between atoms: C_3  and  C_13 
REMARK    2  A    between atoms: C_3  and  C_20 
REMARK    3  A    between atoms: C_4  and  C_22 
REMARK    4  A    between atoms: C_4  and  O_5 
REMARK    5  A    between atoms: O_5  and  P_10 
REMARK    6  A    between atoms: N_6  and  C_13 
REMARK    7  A    between atoms: P_10  and  O_11 
REMARK    8  A    between atoms: C_13  and  C_19 
REMARK    9  A    between atoms: C_16  and  C_22 
REMARK   10  A    between atoms: N_18  and  C_22 
REMARK       I    between atoms: N_18  and  C_19 
ROOT
HETATM    1  C           1     -23.360  -3.816 -13.275  0.00  0.00     0.278 C 
ENDROOT
BRANCH   1   2
HETATM    2  C           1     -24.211  -2.934 -12.372  0.00  0.00     0.083 C 
BRANCH   2   3
HETATM    3  C           1     -23.936  -3.272 -10.939  0.00  0.00    -0.028 A 
HETATM    4  C           1     -22.673  -3.623 -10.389  0.00  0.00    -0.002 A 
HETATM    5  C           1     -22.868  -3.857  -9.027  0.00  0.00     0.042 A 
HETATM    6  C           1     -21.376  -3.764 -10.921  0.00  0.00     0.014 A 
HETATM    7  N           1     -24.206  -3.653  -8.770  0.00  0.00    -0.365 N 
HETATM    8  C           1     -21.828  -4.227  -8.167  0.00  0.00     0.030 A 
HETATM    9  H           1     -24.657  -3.754  -7.828  0.00  0.00     0.165 HD
HETATM   10  C           1     -24.860  -3.299  -9.920  0.00  0.00     0.096 A 
HETATM   11  C           1     -20.550  -4.360  -8.719  0.00  0.00     0.002 A 
HETATM   12  C           1     -20.324  -4.133 -10.074  0.00  0.00     0.001 A 
ENDBRANCH   2   3
ENDBRANCH   1   2
BRANCH   1  13
HETATM   13  N           1     -23.046  -3.078 -14.541  0.00  0.00    -0.066 N 
HETATM   14  H           1     -23.871  -3.115 -15.182  0.00  0.00     0.275 HD
HETATM   15  H           1     -22.825  -2.080 -14.318  0.00  0.00     0.275 HD
HETATM   16  H           1     -22.223  -3.522 -15.008  0.00  0.00     0.275 HD
ENDBRANCH   1  13
BRANCH   1  17
HETATM   17  C           1     -24.116  -5.080 -13.603  0.00  0.00     0.249 C 
HETATM   18  O           1     -24.181  -5.973 -12.792  0.00  0.00    -0.271 OA
HETATM   19  N           1     -24.728  -5.214 -14.821  0.00  0.00    -0.343 N 
HETATM   20  H           1     -24.673  -4.467 -15.500  0.00  0.00     0.163 HD
BRANCH  19  21
HETATM   21  C           1     -25.455  -6.429 -15.136  0.00  0.00     0.210 C 
BRANCH  21  22
HETATM   22  C           1     -26.913  -6.089 -15.417  0.00  0.00     0.217 C 
BRANCH  22  23
HETATM   23  O           1     -27.568  -7.220 -15.923  0.00  0.00    -0.287 OA
BRANCH  23  24
HETATM   24  P           1     -28.793  -6.935 -16.936  0.00  0.00     0.406 P 
HETATM   25  O           1     -28.289  -6.226 -18.134  0.00  0.00    -0.624 OA
HETATM   26  O           1     -29.808  -6.098 -16.259  0.00  0.00    -0.624 OA
BRANCH  24  27
HETATM   27  O           1     -29.460  -8.337 -17.381  0.00  0.00    -0.300 OA
HETATM   28  H           1     -30.359  -8.130 -17.571  0.00  0.00     0.223 HD
ENDBRANCH  24  27
ENDBRANCH  23  24
ENDBRANCH  22  23
ENDBRANCH  21  22
BRANCH  21  29
HETATM   29  C           1     -24.847  -7.079 -16.355  0.00  0.00     0.198 C 
HETATM   30  O           1     -24.882  -6.492 -17.458  0.00  0.00    -0.646 OA
HETATM   31  O           1     -24.310  -8.203 -16.261  0.00  0.00    -0.646 OA
ENDBRANCH  21  29
ENDBRANCH  19  21
ENDBRANCH   1  17
TORSDOF 10
ENDMDL
MODEL 6
REMARK VINA RESULT:      -7.3      4.754      9.294
REMARK  10 active torsions:
REMARK  status: ('A' for Active; 'I' for Inactive)
REMARK    1  A    between atoms: C_3  and  C_13 
REMARK    2  A    between atoms: C_3  and  C_20 
REMARK    3  A    between atoms: C_4  and  C_22 
REMARK    4  A    between atoms: C_4  and  O_5 
REMARK    5  A    between atoms: O_5  and  P_10 
REMARK    6  A    between atoms: N_6  and  C_13 
REMARK    7  A    between atoms: P_10  and  O_11 
REMARK    8  A    between atoms: C_13  and  C_19 
REMARK    9  A    between atoms: C_16  and  C_22 
REMARK   10  A    between atoms: N_18  and  C_22 
REMARK       I    between atoms: N_18  and  C_19 
ROOT
HETATM    1  C           1     -21.903  -4.467  -7.220  0.00  0.00     0.278 C 
ENDROOT
BRANCH   1   2
HETATM    2  C           1     -21.723  -4.770  -8.701  0.00  0.00     0.083 C 
BRANCH   2   3
HETATM    3  C           1     -22.922  -4.290  -9.459  0.00  0.00    -0.028 A 
HETATM    4  C           1     -22.933  -3.826 -10.803  0.00  0.00    -0.002 A 
HETATM    5  C           1     -24.250  -3.480 -11.108  0.00  0.00     0.042 A 
HETATM    6  C           1     -21.944  -3.665 -11.794  0.00  0.00     0.014 A 
HETATM    7  N           1     -25.003  -3.729  -9.983  0.00  0.00    -0.365 N 
HETATM    8  C           1     -24.630  -2.980 -12.359  0.00  0.00     0.030 A 
HETATM    9  H           1     -26.038  -3.567  -9.906  0.00  0.00     0.165 HD
HETATM   10  C           1     -24.209  -4.220  -8.980  0.00  0.00     0.096 A 
HETATM   11  C           1     -23.630  -2.830 -13.326  0.00  0.00     0.002 A 
HETATM   12  C           1     -22.307  -3.167 -13.050  0.00  0.00     0.001 A 
ENDBRANCH   2   3
ENDBRANCH   1   2
BRANCH   1  13
HETATM   13  N           1     -21.567  -3.030  -6.959  0.00  0.00    -0.066 N 
HETATM   14  H           1     -21.898  -2.443  -7.758  0.00  0.00     0.275 HD
HETATM   15  H           1     -22.036  -2.716  -6.079  0.00  0.00     0.275 HD
HETATM   16  H           1     -20.531  -2.927  -6.859  0.00  0.00     0.275 HD
ENDBRANCH   1  13
BRANCH   1  17
HETATM   17  C           1     -20.989  -5.353  -6.409  0.00  0.00     0.249 C 
HETATM   18  O           1     -19.800  -5.348  -6.620  0.00  0.00    -0.271 OA
HETATM   19  N           1     -21.508  -6.163  -5.435  0.00  0.00    -0.343 N 
HETATM   20  H           1     -22.504  -6.168  -5.258  0.00  0.00     0.163 HD
BRANCH  19  21
HETATM   21  C           1     -20.629  -7.014  -4.656  0.00  0.00     0.210 C 
BRANCH  21  22
HETATM   22  C           1     -21.300  -7.360  -3.333  0.00  0.00     0.217 C 
BRANCH  22  23
HETATM   23  O           1     -20.655  -8.462  -2.755  0.00  0.00    -0.287 OA
BRANCH  23  24
HETATM   24  P           1     -21.283  -9.004  -1.370  0.00  0.00     0.406 P 
HETATM   25  O           1     -20.305  -9.889  -0.697  0.00  0.00    -0.624 OA
HETATM   26  O           1     -22.521  -9.764  -1.654  0.00  0.00    -0.624 OA
BRANCH  24  27
HETATM   27  O           1     -21.627  -7.753  -0.408  0.00  0.00    -0.300 OA
HETATM   28  H           1     -21.337  -8.016   0.448  0.00  0.00     0.223 HD
ENDBRANCH  24  27
ENDBRANCH  23  24
ENDBRANCH  22  23
ENDBRANCH  21  22
BRANCH  21  29
HETATM   29  C           1     -20.346  -8.282  -5.422  0.00  0.00     0.198 C 
HETATM   30  O           1     -19.166  -8.663  -5.585  0.00  0.00    -0.646 OA
HETATM   31  O           1     -21.289  -8.950  -5.896  0.00  0.00    -0.646 OA
ENDBRANCH  21  29
ENDBRANCH  19  21
ENDBRANCH   1  17
TORSDOF 10
ENDMDL
MODEL 7
REMARK VINA RESULT:      -7.1      5.364      9.276
REMARK  10 active torsions:
REMARK  status: ('A' for Active; 'I' for Inactive)
REMARK    1  A    between atoms: C_3  and  C_13 
REMARK    2  A    between atoms: C_3  and  C_20 
REMARK    3  A    between atoms: C_4  and  C_22 
REMARK    4  A    between atoms: C_4  and  O_5 
REMARK    5  A    between atoms: O_5  and  P_10 
REMARK    6  A    between atoms: N_6  and  C_13 
REMARK    7  A    between atoms: P_10  and  O_11 
REMARK    8  A    between atoms: C_13  and  C_19 
REMARK    9  A    between atoms: C_16  and  C_22 
REMARK   10  A    between atoms: N_18  and  C_22 
REMARK       I    between atoms: N_18  and  C_19 
ROOT
HETATM    1  C           1     -21.222  -5.899  -5.591  0.00  0.00     0.278 C 
ENDROOT
BRANCH   1   2
HETATM    2  C           1     -20.647  -5.425  -6.919  0.00  0.00     0.083 C 
BRANCH   2   3
HETATM    3  C           1     -21.729  -4.786  -7.734  0.00  0.00    -0.028 A 
HETATM    4  C           1     -21.621  -4.364  -9.087  0.00  0.00    -0.002 A 
HETATM    5  C           1     -22.857  -3.827  -9.450  0.00  0.00     0.042 A 
HETATM    6  C           1     -20.585  -4.386 -10.041  0.00  0.00     0.014 A 
HETATM    7  N           1     -23.678  -3.925  -8.350  0.00  0.00    -0.365 N 
HETATM    8  C           1     -23.110  -3.309 -10.726  0.00  0.00     0.030 A 
HETATM    9  H           1     -24.677  -3.602  -8.317  0.00  0.00     0.165 HD
HETATM   10  C           1     -23.006  -4.504  -7.306  0.00  0.00     0.096 A 
HETATM   11  C           1     -22.066  -3.343 -11.656  0.00  0.00     0.002 A 
HETATM   12  C           1     -20.822  -3.873 -11.322  0.00  0.00     0.001 A 
ENDBRANCH   2   3
ENDBRANCH   1   2
BRANCH   1  13
HETATM   13  N           1     -20.543  -5.177  -4.466  0.00  0.00    -0.066 N 
HETATM   14  H           1     -20.515  -5.793  -3.622  0.00  0.00     0.275 HD
HETATM   15  H           1     -19.567  -4.932  -4.749  0.00  0.00     0.275 HD
HETATM   16  H           1     -21.072  -4.304  -4.243  0.00  0.00     0.275 HD
ENDBRANCH   1  13
BRANCH   1  17
HETATM   17  C           1     -20.996  -7.384  -5.446  0.00  0.00     0.249 C 
HETATM   18  O           1     -21.374  -8.140  -6.309  0.00  0.00    -0.271 OA
HETATM   19  N           1     -20.363  -7.874  -4.335  0.00  0.00    -0.343 N 
HETATM   20  H           1     -20.047  -7.241  -3.612  0.00  0.00     0.163 HD
BRANCH  19  21
HETATM   21  C           1     -20.145  -9.301  -4.196  0.00  0.00     0.210 C 
BRANCH  21  22
HETATM   22  C           1     -18.745  -9.651  -4.685  0.00  0.00     0.217 C 
BRANCH  22  23
HETATM   23  O           1     -17.801  -9.223  -3.742  0.00  0.00    -0.287 OA
BRANCH  23  24
HETATM   24  P           1     -16.435 -10.081  -3.669  0.00  0.00     0.406 P 
HETATM   25  O           1     -16.760 -11.526  -3.635  0.00  0.00    -0.624 OA
HETATM   26  O           1     -15.687  -9.715  -2.445  0.00  0.00    -0.624 OA
BRANCH  24  27
HETATM   27  O           1     -15.529  -9.765  -4.969  0.00  0.00    -0.300 OA
HETATM   28  H           1     -16.095  -9.287  -5.550  0.00  0.00     0.223 HD
ENDBRANCH  24  27
ENDBRANCH  23  24
ENDBRANCH  22  23
ENDBRANCH  21  22
BRANCH  21  29
HETATM   29  C           1     -20.283  -9.693  -2.745  0.00  0.00     0.198 C 
HETATM   30  O           1     -20.447  -8.812  -1.874  0.00  0.00    -0.646 OA
HETATM   31  O           1     -20.233 -10.897  -2.416  0.00  0.00    -0.646 OA
ENDBRANCH  21  29
ENDBRANCH  19  21
ENDBRANCH   1  17
TORSDOF 10
ENDMDL
MODEL 8
REMARK VINA RESULT:      -7.1      4.490      8.441
REMARK  10 active torsions:
REMARK  status: ('A' for Active; 'I' for Inactive)
REMARK    1  A    between atoms: C_3  and  C_13 
REMARK    2  A    between atoms: C_3  and  C_20 
REMARK    3  A    between atoms: C_4  and  C_22 
REMARK    4  A    between atoms: C_4  and  O_5 
REMARK    5  A    between atoms: O_5  and  P_10 
REMARK    6  A    between atoms: N_6  and  C_13 
REMARK    7  A    between atoms: P_10  and  O_11 
REMARK    8  A    between atoms: C_13  and  C_19 
REMARK    9  A    between atoms: C_16  and  C_22 
REMARK   10  A    between atoms: N_18  and  C_22 
REMARK       I    between atoms: N_18  and  C_19 
ROOT
HETATM    1  C           1     -21.028  -4.908  -6.590  0.00  0.00     0.278 C 
ENDROOT
BRANCH   1   2
HETATM    2  C           1     -20.695  -5.684  -7.857  0.00  0.00     0.083 C 
BRANCH   2   3
HETATM    3  C           1     -20.908  -4.807  -9.052  0.00  0.00    -0.028 A 
HETATM    4  C           1     -22.163  -4.369  -9.557  0.00  0.00    -0.002 A 
HETATM    5  C           1     -21.902  -3.575 -10.674  0.00  0.00     0.042 A 
HETATM    6  C           1     -23.502  -4.574  -9.169  0.00  0.00     0.014 A 
HETATM    7  N           1     -20.535  -3.538 -10.833  0.00  0.00    -0.365 N 
HETATM    8  C           1     -22.917  -2.972 -11.426  0.00  0.00     0.030 A 
HETATM    9  H           1     -20.033  -3.016 -11.593  0.00  0.00     0.165 HD
HETATM   10  C           1     -19.924  -4.280  -9.857  0.00  0.00     0.096 A 
HETATM   11  C           1     -24.238  -3.190 -11.021  0.00  0.00     0.002 A 
HETATM   12  C           1     -24.529  -3.978  -9.910  0.00  0.00     0.001 A 
ENDBRANCH   2   3
ENDBRANCH   1   2
BRANCH   1  13
HETATM   13  N           1     -19.761  -4.397  -5.971  0.00  0.00    -0.066 N 
HETATM   14  H           1     -19.953  -3.497  -5.475  0.00  0.00     0.275 HD
HETATM   15  H           1     -19.400  -5.100  -5.286  0.00  0.00     0.275 HD
HETATM   16  H           1     -19.048  -4.238  -6.718  0.00  0.00     0.275 HD
ENDBRANCH   1  13
BRANCH   1  17
HETATM   17  C           1     -21.735  -5.816  -5.614  0.00  0.00     0.249 C 
HETATM   18  O           1     -22.941  -5.824  -5.561  0.00  0.00    -0.271 OA
HETATM   19  N           1     -21.008  -6.632  -4.788  0.00  0.00    -0.343 N 
HETATM   20  H           1     -19.997  -6.625  -4.832  0.00  0.00     0.163 HD
BRANCH  19  21
HETATM   21  C           1     -21.687  -7.505  -3.851  0.00  0.00     0.210 C 
BRANCH  21  22
HETATM   22  C           1     -20.998  -8.863  -3.831  0.00  0.00     0.217 C 
BRANCH  22  23
HETATM   23  O           1     -19.746  -8.761  -4.453  0.00  0.00    -0.287 OA
BRANCH  23  24
HETATM   24  P           1     -19.006 -10.157  -4.788  0.00  0.00     0.406 P 
HETATM   25  O           1     -19.053 -10.404  -6.247  0.00  0.00    -0.624 OA
HETATM   26  O           1     -19.691 -11.261  -4.079  0.00  0.00    -0.624 OA
BRANCH  24  27
HETATM   27  O           1     -17.466 -10.080  -4.306  0.00  0.00    -0.300 OA
HETATM   28  H           1     -17.035 -10.786  -4.754  0.00  0.00     0.223 HD
ENDBRANCH  24  27
ENDBRANCH  23  24
ENDBRANCH  22  23
ENDBRANCH  21  22
BRANCH  21  29
HETATM   29  C           1     -21.638  -6.897  -2.470  0.00  0.00     0.198 C 
HETATM   30  O           1     -22.325  -5.887  -2.208  0.00  0.00    -0.646 OA
HETATM   31  O           1     -20.911  -7.404  -1.590  0.00  0.00    -0.646 OA
ENDBRANCH  21  29
ENDBRANCH  19  21
ENDBRANCH   1  17
TORSDOF 10
ENDMDL
MODEL 9
REMARK VINA RESULT:      -6.9     12.138     14.225
REMARK  10 active torsions:
REMARK  status: ('A' for Active; 'I' for Inactive)
REMARK    1  A    between atoms: C_3  and  C_13 
REMARK    2  A    between atoms: C_3  and  C_20 
REMARK    3  A    between atoms: C_4  and  C_22 
REMARK    4  A    between atoms: C_4  and  O_5 
REMARK    5  A    between atoms: O_5  and  P_10 
REMARK    6  A    between atoms: N_6  and  C_13 
REMARK    7  A    between atoms: P_10  and  O_11 
REMARK    8  A    between atoms: C_13  and  C_19 
REMARK    9  A    between atoms: C_16  and  C_22 
REMARK   10  A    between atoms: N_18  and  C_22 
REMARK       I    between atoms: N_18  and  C_19 
ROOT
HETATM    1  C           1     -29.547  -7.173 -17.774  0.00  0.00     0.278 C 
ENDROOT
BRANCH   1   2
HETATM    2  C           1     -28.711  -6.197 -18.592  0.00  0.00     0.083 C 
BRANCH   2   3
HETATM    3  C           1     -27.257  -6.447 -18.336  0.00  0.00    -0.028 A 
HETATM    4  C           1     -26.300  -6.882 -19.293  0.00  0.00    -0.002 A 
HETATM    5  C           1     -25.075  -6.987 -18.633  0.00  0.00     0.042 A 
HETATM    6  C           1     -26.359  -7.199 -20.665  0.00  0.00     0.014 A 
HETATM    7  N           1     -25.292  -6.626 -17.322  0.00  0.00    -0.365 N 
HETATM    8  C           1     -23.901  -7.393 -19.277  0.00  0.00     0.030 A 
HETATM    9  H           1     -24.553  -6.605 -16.576  0.00  0.00     0.165 HD
HETATM   10  C           1     -26.608  -6.298 -17.132  0.00  0.00     0.096 A 
HETATM   11  C           1     -23.985  -7.702 -20.639  0.00  0.00     0.002 A 
HETATM   12  C           1     -25.194  -7.607 -21.325  0.00  0.00     0.001 A 
ENDBRANCH   2   3
ENDBRANCH   1   2
BRANCH   1  13
HETATM   13  N           1     -29.714  -8.451 -18.541  0.00  0.00    -0.066 N 
HETATM   14  H           1     -29.048  -9.168 -18.175  0.00  0.00     0.275 HD
HETATM   15  H           1     -30.694  -8.798 -18.429  0.00  0.00     0.275 HD
HETATM   16  H           1     -29.518  -8.277 -19.553  0.00  0.00     0.275 HD
ENDBRANCH   1  13
BRANCH   1  17
HETATM   17  C           1     -30.902  -6.569 -17.500  0.00  0.00     0.249 C 
HETATM   18  O           1     -31.904  -7.172 -17.800  0.00  0.00    -0.271 OA
HETATM   19  N           1     -30.995  -5.336 -16.911  0.00  0.00    -0.343 N 
HETATM   20  H           1     -30.156  -4.831 -16.660  0.00  0.00     0.163 HD
BRANCH  19  21
HETATM   21  C           1     -32.298  -4.756 -16.647  0.00  0.00     0.210 C 
BRANCH  21  22
HETATM   22  C           1     -32.455  -4.522 -15.150  0.00  0.00     0.217 C 
BRANCH  22  23
HETATM   23  O           1     -33.760  -4.090 -14.878  0.00  0.00    -0.287 OA
BRANCH  23  24
HETATM   24  P           1     -34.182  -4.049 -13.320  0.00  0.00     0.406 P 
HETATM   25  O           1     -34.941  -2.807 -13.046  0.00  0.00    -0.624 OA
HETATM   26  O           1     -32.965  -4.079 -12.478  0.00  0.00    -0.624 OA
BRANCH  24  27
HETATM   27  O           1     -35.105  -5.329 -12.978  0.00  0.00    -0.300 OA
HETATM   28  H           1     -35.947  -4.971 -12.756  0.00  0.00     0.223 HD
ENDBRANCH  24  27
ENDBRANCH  23  24
ENDBRANCH  22  23
ENDBRANCH  21  22
BRANCH  21  29
HETATM   29  C           1     -32.421  -3.441 -17.376  0.00  0.00     0.198 C 
HETATM   30  O           1     -31.405  -2.901 -17.865  0.00  0.00    -0.646 OA
HETATM   31  O           1     -33.538  -2.892 -17.491  0.00  0.00    -0.646 OA
ENDBRANCH  21  29
ENDBRANCH  19  21
ENDBRANCH   1  17
TORSDOF 10
ENDMDL
