MODEL 1
REMARK VINA RESULT:      -6.0      0.000      0.000
REMARK  3 active torsions:
REMARK  status: ('A' for Active; 'I' for Inactive)
REMARK    1  A    between atoms: C_1  and  C_2 
REMARK       I    between atoms: C_2  and  N_12 
REMARK    2  A    between atoms: C_4  and  C_11 
REMARK    3  A    between atoms: C_11  and  N_12 
ROOT
HETATM    1  C           1     -24.064  -3.518 -12.234  0.00  0.00     0.251 C 
HETATM    2  N           1     -23.644  -2.956 -13.409  0.00  0.00    -0.349 N 
HETATM    3  O           1     -24.990  -3.032 -11.630  0.00  0.00    -0.271 OA
HETATM    4  H           1     -22.868  -3.363 -13.915  0.00  0.00     0.163 HD
ENDROOT
BRANCH   1   5
HETATM    5  C           1     -23.372  -4.744 -11.693  0.00  0.00     0.311 C 
HETATM    6  N           1     -21.922  -4.606 -11.783  0.00  0.00     0.097 N 
HETATM    7  C           1     -21.554  -3.746 -10.661  0.00  0.00     0.271 C 
HETATM    8  H           1     -21.464  -5.511 -11.681  0.00  0.00     0.317 HD
HETATM    9  C           1     -22.435  -4.236  -9.525  0.00  0.00     0.033 C 
HETATM   10  C           1     -23.629  -4.897 -10.204  0.00  0.00     0.047 C 
ENDBRANCH   1   5
BRANCH   2  11
HETATM   11  C           1     -24.309  -1.777 -13.929  0.00  0.00     0.235 C 
BRANCH  11  12
HETATM   12  C           1     -23.502  -1.203 -15.067  0.00  0.00     0.191 C 
HETATM   13  O           1     -23.732  -0.043 -15.474  0.00  0.00    -0.647 OA
HETATM   14  O           1     -22.603  -1.886 -15.602  0.00  0.00    -0.647 OA
ENDBRANCH  11  12
ENDBRANCH   2  11
TORSDOF 3
ENDMDL
MODEL 2
REMARK VINA RESULT:      -5.9     10.887     11.752
REMARK  3 active torsions:
REMARK  status: ('A' for Active; 'I' for Inactive)
REMARK    1  A    between atoms: C_1  and  C_2 
REMARK       I    between atoms: C_2  and  N_12 
REMARK    2  A    between atoms: C_4  and  C_11 
REMARK    3  A    between atoms: C_11  and  N_12 
ROOT
HETATM    1  C           1     -35.309  -1.853 -11.371  0.00  0.00     0.251 C 
HETATM    2  N           1     -34.614  -0.838 -11.971  0.00  0.00    -0.349 N 
HETATM    3  O           1     -36.516  -1.865 -11.414  0.00  0.00    -0.271 OA
HETATM    4  H           1     -33.602  -0.828 -11.935  0.00  0.00     0.163 HD
ENDROOT
BRANCH   1   5
HETATM    5  C           1     -34.569  -2.958 -10.658  0.00  0.00     0.311 C 
HETATM    6  N           1     -35.121  -4.263 -11.006  0.00  0.00     0.097 N 
HETATM    7  C           1     -34.568  -4.568 -12.322  0.00  0.00     0.271 C 
HETATM    8  H           1     -34.821  -4.974 -10.338  0.00  0.00     0.317 HD
HETATM    9  C           1     -33.128  -4.093 -12.231  0.00  0.00     0.033 C 
HETATM   10  C           1     -33.128  -3.036 -11.132  0.00  0.00     0.047 C 
ENDBRANCH   1   5
BRANCH   2  11
HETATM   11  C           1     -35.326   0.223 -12.656  0.00  0.00     0.235 C 
BRANCH  11  12
HETATM   12  C           1     -35.330  -0.049 -14.140  0.00  0.00     0.191 C 
HETATM   13  O           1     -36.219  -0.772 -14.640  0.00  0.00    -0.647 OA
HETATM   14  O           1     -34.446   0.449 -14.869  0.00  0.00    -0.647 OA
ENDBRANCH  11  12
ENDBRANCH   2  11
TORSDOF 3
ENDMDL
MODEL 3
REMARK VINA RESULT:      -5.7      3.316      4.991
REMARK  3 active torsions:
REMARK  status: ('A' for Active; 'I' for Inactive)
REMARK    1  A    between atoms: C_1  and  C_2 
REMARK       I    between atoms: C_2  and  N_12 
REMARK    2  A    between atoms: C_4  and  C_11 
REMARK    3  A    between atoms: C_11  and  N_12 
ROOT
HETATM    1  C           1     -22.445  -4.153  -7.888  0.00  0.00     0.251 C 
HETATM    2  N           1     -22.525  -4.210  -9.253  0.00  0.00    -0.349 N 
HETATM    3  O           1     -23.395  -4.474  -7.215  0.00  0.00    -0.271 OA
HETATM    4  H           1     -21.729  -3.941  -9.818  0.00  0.00     0.163 HD
ENDROOT
BRANCH   1   5
HETATM    5  C           1     -21.171  -3.692  -7.224  0.00  0.00     0.311 C 
HETATM    6  N           1     -20.882  -4.493  -6.039  0.00  0.00     0.097 N 
HETATM    7  C           1     -20.316  -5.737  -6.553  0.00  0.00     0.271 C 
HETATM    8  H           1     -20.197  -4.028  -5.445  0.00  0.00     0.317 HD
HETATM    9  C           1     -19.413  -5.283  -7.688  0.00  0.00     0.033 C 
HETATM   10  C           1     -19.973  -3.935  -8.126  0.00  0.00     0.047 C 
ENDBRANCH   1   5
BRANCH   2  11
HETATM   11  C           1     -23.749  -4.653  -9.891  0.00  0.00     0.235 C 
BRANCH  11  12
HETATM   12  C           1     -24.515  -3.456 -10.398  0.00  0.00     0.191 C 
HETATM   13  O           1     -25.573  -3.105  -9.832  0.00  0.00    -0.647 OA
HETATM   14  O           1     -24.091  -2.814 -11.383  0.00  0.00    -0.647 OA
ENDBRANCH  11  12
ENDBRANCH   2  11
TORSDOF 3
ENDMDL
MODEL 4
REMARK VINA RESULT:      -5.7      3.131      4.807
REMARK  3 active torsions:
REMARK  status: ('A' for Active; 'I' for Inactive)
REMARK    1  A    between atoms: C_1  and  C_2 
REMARK       I    between atoms: C_2  and  N_12 
REMARK    2  A    between atoms: C_4  and  C_11 
REMARK    3  A    between atoms: C_11  and  N_12 
ROOT
HETATM    1  C           1     -21.789  -4.208  -8.921  0.00  0.00     0.251 C 
HETATM    2  N           1     -23.139  -4.368  -9.081  0.00  0.00    -0.349 N 
HETATM    3  O           1     -21.059  -4.247  -9.882  0.00  0.00    -0.271 OA
HETATM    4  H           1     -23.751  -4.335  -8.275  0.00  0.00     0.163 HD
ENDROOT
BRANCH   1   5
HETATM    5  C           1     -21.212  -3.981  -7.545  0.00  0.00     0.311 C 
HETATM    6  N           1     -21.814  -4.888  -6.573  0.00  0.00     0.097 N 
HETATM    7  C           1     -21.142  -6.167  -6.784  0.00  0.00     0.271 C 
HETATM    8  H           1     -21.640  -4.566  -5.621  0.00  0.00     0.317 HD
HETATM    9  C           1     -19.691  -5.781  -7.015  0.00  0.00     0.033 C 
HETATM   10  C           1     -19.737  -4.340  -7.512  0.00  0.00     0.047 C 
ENDBRANCH   1   5
BRANCH   2  11
HETATM   11  C           1     -23.692  -4.587 -10.403  0.00  0.00     0.235 C 
BRANCH  11  12
HETATM   12  C           1     -24.642  -3.465 -10.743  0.00  0.00     0.191 C 
HETATM   13  O           1     -24.546  -2.876 -11.842  0.00  0.00    -0.647 OA
HETATM   14  O           1     -25.526  -3.125  -9.927  0.00  0.00    -0.647 OA
ENDBRANCH  11  12
ENDBRANCH   2  11
TORSDOF 3
ENDMDL
MODEL 5
REMARK VINA RESULT:      -5.4      2.238      3.053
REMARK  3 active torsions:
REMARK  status: ('A' for Active; 'I' for Inactive)
REMARK    1  A    between atoms: C_1  and  C_2 
REMARK       I    between atoms: C_2  and  N_12 
REMARK    2  A    between atoms: C_4  and  C_11 
REMARK    3  A    between atoms: C_11  and  N_12 
ROOT
HETATM    1  C           1     -21.641  -4.007 -10.603  0.00  0.00     0.251 C 
HETATM    2  N           1     -22.743  -3.397 -11.139  0.00  0.00    -0.349 N 
HETATM    3  O           1     -20.562  -3.871 -11.128  0.00  0.00    -0.271 OA
HETATM    4  H           1     -23.648  -3.510 -10.699  0.00  0.00     0.163 HD
ENDROOT
BRANCH   1   5
HETATM    5  C           1     -21.774  -4.847  -9.357  0.00  0.00     0.311 C 
HETATM    6  N           1     -20.467  -5.097  -8.757  0.00  0.00     0.097 N 
HETATM    7  C           1     -20.137  -3.865  -8.046  0.00  0.00     0.271 C 
HETATM    8  H           1     -20.515  -5.870  -8.093  0.00  0.00     0.317 HD
HETATM    9  C           1     -21.453  -3.445  -7.416  0.00  0.00     0.033 C 
HETATM   10  C           1     -22.531  -4.095  -8.276  0.00  0.00     0.047 C 
ENDBRANCH   1   5
BRANCH   2  11
HETATM   11  C           1     -22.616  -2.589 -12.337  0.00  0.00     0.235 C 
BRANCH  11  12
HETATM   12  C           1     -23.756  -2.897 -13.276  0.00  0.00     0.191 C 
HETATM   13  O           1     -23.541  -3.015 -14.502  0.00  0.00    -0.647 OA
HETATM   14  O           1     -24.914  -3.036 -12.828  0.00  0.00    -0.647 OA
ENDBRANCH  11  12
ENDBRANCH   2  11
TORSDOF 3
ENDMDL
MODEL 6
REMARK VINA RESULT:      -5.3     11.476     12.579
REMARK  3 active torsions:
REMARK  status: ('A' for Active; 'I' for Inactive)
REMARK    1  A    between atoms: C_1  and  C_2 
REMARK       I    between atoms: C_2  and  N_12 
REMARK    2  A    between atoms: C_4  and  C_11 
REMARK    3  A    between atoms: C_11  and  N_12 
ROOT
HETATM    1  C           1     -35.447  -2.278 -10.916  0.00  0.00     0.251 C 
HETATM    2  N           1     -35.077  -1.019 -11.307  0.00  0.00    -0.349 N 
HETATM    3  O           1     -36.613  -2.593 -10.922  0.00  0.00    -0.271 OA
HETATM    4  H           1     -34.100  -0.755 -11.302  0.00  0.00     0.163 HD
ENDROOT
BRANCH   1   5
HETATM    5  C           1     -34.400  -3.272 -10.478  0.00  0.00     0.311 C 
HETATM    6  N           1     -34.815  -4.636 -10.789  0.00  0.00     0.097 N 
HETATM    7  C           1     -34.553  -4.794 -12.217  0.00  0.00     0.271 C 
HETATM    8  H           1     -34.260  -5.312 -10.265  0.00  0.00     0.317 HD
HETATM    9  C           1     -33.222  -4.092 -12.422  0.00  0.00     0.033 C 
HETATM   10  C           1     -33.119  -3.093 -11.274  0.00  0.00     0.047 C 
ENDBRANCH   1   5
BRANCH   2  11
HETATM   11  C           1     -36.084  -0.064 -11.727  0.00  0.00     0.235 C 
BRANCH  11  12
HETATM   12  C           1     -36.825   0.452 -10.519  0.00  0.00     0.191 C 
HETATM   13  O           1     -38.075   0.465 -10.511  0.00  0.00    -0.647 OA
HETATM   14  O           1     -36.190   0.865  -9.525  0.00  0.00    -0.647 OA
ENDBRANCH  11  12
ENDBRANCH   2  11
TORSDOF 3
ENDMDL
MODEL 7
REMARK VINA RESULT:      -5.2     11.178     12.277
REMARK  3 active torsions:
REMARK  status: ('A' for Active; 'I' for Inactive)
REMARK    1  A    between atoms: C_1  and  C_2 
REMARK       I    between atoms: C_2  and  N_12 
REMARK    2  A    between atoms: C_4  and  C_11 
REMARK    3  A    between atoms: C_11  and  N_12 
ROOT
HETATM    1  C           1     -35.039  -2.412 -12.812  0.00  0.00     0.251 C 
HETATM    2  N           1     -35.528  -1.726 -11.733  0.00  0.00    -0.349 N 
HETATM    3  O           1     -34.839  -1.834 -13.854  0.00  0.00    -0.271 OA
HETATM    4  H           1     -35.696  -2.210 -10.860  0.00  0.00     0.163 HD
ENDROOT
BRANCH   1   5
HETATM    5  C           1     -34.748  -3.888 -12.700  0.00  0.00     0.311 C 
HETATM    6  N           1     -33.327  -4.155 -12.895  0.00  0.00     0.097 N 
HETATM    7  C           1     -32.700  -3.804 -11.624  0.00  0.00     0.271 C 
HETATM    8  H           1     -33.167  -5.143 -13.092  0.00  0.00     0.317 HD
HETATM    9  C           1     -33.673  -4.328 -10.582  0.00  0.00     0.033 C 
HETATM   10  C           1     -35.021  -4.388 -11.292  0.00  0.00     0.047 C 
ENDBRANCH   1   5
BRANCH   2  11
HETATM   11  C           1     -35.808  -0.307 -11.841  0.00  0.00     0.235 C 
BRANCH  11  12
HETATM   12  C           1     -36.761   0.103 -10.746  0.00  0.00     0.191 C 
HETATM   13  O           1     -36.382   0.104  -9.555  0.00  0.00    -0.647 OA
HETATM   14  O           1     -37.930   0.443 -11.030  0.00  0.00    -0.647 OA
ENDBRANCH  11  12
ENDBRANCH   2  11
TORSDOF 3
ENDMDL
MODEL 8
REMARK VINA RESULT:      -5.1     15.377     17.115
REMARK  3 active torsions:
REMARK  status: ('A' for Active; 'I' for Inactive)
REMARK    1  A    between atoms: C_1  and  C_2 
REMARK       I    between atoms: C_2  and  N_12 
REMARK    2  A    between atoms: C_4  and  C_11 
REMARK    3  A    between atoms: C_11  and  N_12 
ROOT
HETATM    1  C           1     -12.330   6.022 -19.982  0.00  0.00     0.251 C 
HETATM    2  N           1     -11.226   6.722 -20.388  0.00  0.00    -0.349 N 
HETATM    3  O           1     -13.385   6.591 -19.835  0.00  0.00    -0.271 OA
HETATM    4  H           1     -10.342   6.245 -20.511  0.00  0.00     0.163 HD
ENDROOT
BRANCH   1   5
HETATM    5  C           1     -12.231   4.539 -19.719  0.00  0.00     0.311 C 
HETATM    6  N           1     -13.194   3.802 -20.530  0.00  0.00     0.097 N 
HETATM    7  C           1     -12.596   3.736 -21.860  0.00  0.00     0.271 C 
HETATM    8  H           1     -13.324   2.856 -20.168  0.00  0.00     0.317 HD
HETATM    9  C           1     -11.126   3.475 -21.585  0.00  0.00     0.033 C 
HETATM   10  C           1     -10.886   3.999 -20.174  0.00  0.00     0.047 C 
ENDBRANCH   1   5
BRANCH   2  11
HETATM   11  C           1     -11.322   8.147 -20.640  0.00  0.00     0.235 C 
BRANCH  11  12
HETATM   12  C           1     -10.332   8.880 -19.770  0.00  0.00     0.191 C 
HETATM   13  O           1     -10.291   8.653 -18.541  0.00  0.00    -0.647 OA
HETATM   14  O           1      -9.552   9.714 -20.276  0.00  0.00    -0.647 OA
ENDBRANCH  11  12
ENDBRANCH   2  11
TORSDOF 3
ENDMDL
MODEL 9
REMARK VINA RESULT:      -4.8     11.248     12.301
REMARK  3 active torsions:
REMARK  status: ('A' for Active; 'I' for Inactive)
REMARK    1  A    between atoms: C_1  and  C_2 
REMARK       I    between atoms: C_2  and  N_12 
REMARK    2  A    between atoms: C_4  and  C_11 
REMARK    3  A    between atoms: C_11  and  N_12 
ROOT
HETATM    1  C           1     -34.272  -2.263 -11.254  0.00  0.00     0.251 C 
HETATM    2  N           1     -35.631  -2.109 -11.290  0.00  0.00    -0.349 N 
HETATM    3  O           1     -33.610  -1.606 -10.486  0.00  0.00    -0.271 OA
HETATM    4  H           1     -36.186  -2.660 -11.933  0.00  0.00     0.163 HD
ENDROOT
BRANCH   1   5
HETATM    5  C           1     -33.599  -3.253 -12.172  0.00  0.00     0.311 C 
HETATM    6  N           1     -32.779  -4.192 -11.413  0.00  0.00     0.097 N 
HETATM    7  C           1     -33.726  -5.155 -10.858  0.00  0.00     0.271 C 
HETATM    8  H           1     -32.122  -4.676 -12.025  0.00  0.00     0.317 HD
HETATM    9  C           1     -34.712  -5.389 -11.989  0.00  0.00     0.033 C 
HETATM   10  C           1     -34.625  -4.139 -12.857  0.00  0.00     0.047 C 
ENDBRANCH   1   5
BRANCH   2  11
HETATM   11  C           1     -36.278  -1.157 -10.407  0.00  0.00     0.235 C 
BRANCH  11  12
HETATM   12  C           1     -37.287  -0.352 -11.188  0.00  0.00     0.191 C 
HETATM   13  O           1     -37.876   0.608 -10.644  0.00  0.00    -0.647 OA
HETATM   14  O           1     -37.534  -0.643 -12.378  0.00  0.00    -0.647 OA
ENDBRANCH  11  12
ENDBRANCH   2  11
TORSDOF 3
ENDMDL
