MODEL 1
REMARK VINA RESULT:      -6.1      0.000      0.000
REMARK  9 active torsions:
REMARK  status: ('A' for Active; 'I' for Inactive)
REMARK       I    between atoms: C_5  and  N_10 
REMARK    1  A    between atoms: C_5  and  C_6 
REMARK    2  A    between atoms: C_6  and  C_7 
REMARK    3  A    between atoms: C_6  and  N_8 
REMARK    4  A    between atoms: C_7  and  S_21 
REMARK    5  A    between atoms: N_10  and  C_15 
REMARK    6  A    between atoms: C_13  and  C_20 
REMARK    7  A    between atoms: C_13  and  C_14 
REMARK    8  A    between atoms: C_14  and  C_15 
REMARK    9  A    between atoms: C_15  and  C_16 
ROOT
HETATM    1  C           1     -21.736  -4.557  -7.941  0.00  0.00     0.249 C 
HETATM    2  O           1     -21.782  -3.425  -7.520  0.00  0.00    -0.271 OA
HETATM    3  N           1     -22.251  -4.849  -9.176  0.00  0.00    -0.345 N 
HETATM    4  H           1     -22.213  -5.797  -9.528  0.00  0.00     0.163 HD
ENDROOT
BRANCH   3   5
HETATM    5  C           1     -22.850  -3.800  -9.979  0.00  0.00     0.186 C 
BRANCH   5   6
HETATM    6  C           1     -22.519  -4.034 -11.446  0.00  0.00     0.046 C 
BRANCH   6   7
HETATM    7  C           1     -22.733  -2.744 -12.227  0.00  0.00     0.116 C 
BRANCH   7   8
HETATM    8  C           1     -23.781  -2.967 -13.290  0.00  0.00     0.172 C 
HETATM    9  O           1     -24.992  -2.983 -12.980  0.00  0.00    -0.648 OA
HETATM   10  O           1     -23.439  -3.135 -14.481  0.00  0.00    -0.648 OA
ENDBRANCH   7   8
ENDBRANCH   6   7
ENDBRANCH   5   6
BRANCH   5  11
HETATM   11  C           1     -24.347  -3.818  -9.790  0.00  0.00     0.196 C 
HETATM   12  O           1     -24.975  -4.896  -9.871  0.00  0.00    -0.646 OA
HETATM   13  O           1     -24.959  -2.753  -9.553  0.00  0.00    -0.646 OA
ENDBRANCH   5  11
ENDBRANCH   3   5
BRANCH   1  14
HETATM   14  C           1     -21.112  -5.648  -7.106  0.00  0.00     0.283 C 
BRANCH  14  15
HETATM   15  C           1     -20.844  -5.123  -5.702  0.00  0.00     0.113 C 
BRANCH  15  16
HETATM   16  S           1     -21.481  -6.305  -4.482  0.00  0.00    -0.180 SA
HETATM   17  H           1     -21.405  -5.474  -3.427  0.00  0.00     0.101 HD
ENDBRANCH  15  16
ENDBRANCH  14  15
BRANCH  14  18
HETATM   18  N           1     -19.821  -6.081  -7.734  0.00  0.00    -0.066 N 
HETATM   19  H           1     -19.669  -7.099  -7.550  0.00  0.00     0.275 HD
HETATM   20  H           1     -19.033  -5.532  -7.322  0.00  0.00     0.275 HD
HETATM   21  H           1     -19.861  -5.915  -8.764  0.00  0.00     0.275 HD
ENDBRANCH  14  18
ENDBRANCH   1  14
TORSDOF 9
ENDMDL
MODEL 2
REMARK VINA RESULT:      -5.9     12.879     14.807
REMARK  9 active torsions:
REMARK  status: ('A' for Active; 'I' for Inactive)
REMARK       I    between atoms: C_5  and  N_10 
REMARK    1  A    between atoms: C_5  and  C_6 
REMARK    2  A    between atoms: C_6  and  C_7 
REMARK    3  A    between atoms: C_6  and  N_8 
REMARK    4  A    between atoms: C_7  and  S_21 
REMARK    5  A    between atoms: N_10  and  C_15 
REMARK    6  A    between atoms: C_13  and  C_20 
REMARK    7  A    between atoms: C_13  and  C_14 
REMARK    8  A    between atoms: C_14  and  C_15 
REMARK    9  A    between atoms: C_15  and  C_16 
ROOT
HETATM    1  C           1     -36.596  -0.157 -13.370  0.00  0.00     0.249 C 
HETATM    2  O           1     -37.626  -0.782 -13.471  0.00  0.00    -0.271 OA
HETATM    3  N           1     -35.918  -0.142 -12.181  0.00  0.00    -0.345 N 
HETATM    4  H           1     -35.056   0.381 -12.096  0.00  0.00     0.163 HD
ENDROOT
BRANCH   3   5
HETATM    5  C           1     -36.434  -0.877 -11.042  0.00  0.00     0.186 C 
BRANCH   5   6
HETATM    6  C           1     -35.344  -1.785 -10.488  0.00  0.00     0.046 C 
BRANCH   6   7
HETATM    7  C           1     -35.370  -3.118 -11.224  0.00  0.00     0.116 C 
BRANCH   7   8
HETATM    8  C           1     -34.298  -3.127 -12.286  0.00  0.00     0.172 C 
HETATM    9  O           1     -34.556  -2.719 -13.439  0.00  0.00    -0.648 OA
HETATM   10  O           1     -33.151  -3.543 -12.013  0.00  0.00    -0.648 OA
ENDBRANCH   7   8
ENDBRANCH   6   7
ENDBRANCH   5   6
BRANCH   5  11
HETATM   11  C           1     -36.871   0.095  -9.974  0.00  0.00     0.196 C 
HETATM   12  O           1     -37.822   0.877 -10.191  0.00  0.00    -0.646 OA
HETATM   13  O           1     -36.282   0.118  -8.871  0.00  0.00    -0.646 OA
ENDBRANCH   5  11
ENDBRANCH   3   5
BRANCH   1  14
HETATM   14  C           1     -36.059   0.607 -14.555  0.00  0.00     0.283 C 
BRANCH  14  15
HETATM   15  C           1     -36.780   0.157 -15.818  0.00  0.00     0.113 C 
BRANCH  15  16
HETATM   16  S           1     -35.802  -1.127 -16.648  0.00  0.00    -0.180 SA
HETATM   17  H           1     -35.607  -0.441 -17.789  0.00  0.00     0.101 HD
ENDBRANCH  15  16
ENDBRANCH  14  15
BRANCH  14  18
HETATM   18  N           1     -34.589   0.342 -14.696  0.00  0.00    -0.066 N 
HETATM   19  H           1     -34.082   0.753 -13.879  0.00  0.00     0.275 HD
HETATM   20  H           1     -34.241   0.779 -15.579  0.00  0.00     0.275 HD
HETATM   21  H           1     -34.422  -0.689 -14.728  0.00  0.00     0.275 HD
ENDBRANCH  14  18
ENDBRANCH   1  14
TORSDOF 9
ENDMDL
MODEL 3
REMARK VINA RESULT:      -5.3      2.209      3.422
REMARK  9 active torsions:
REMARK  status: ('A' for Active; 'I' for Inactive)
REMARK       I    between atoms: C_5  and  N_10 
REMARK    1  A    between atoms: C_5  and  C_6 
REMARK    2  A    between atoms: C_6  and  C_7 
REMARK    3  A    between atoms: C_6  and  N_8 
REMARK    4  A    between atoms: C_7  and  S_21 
REMARK    5  A    between atoms: N_10  and  C_15 
REMARK    6  A    between atoms: C_13  and  C_20 
REMARK    7  A    between atoms: C_13  and  C_14 
REMARK    8  A    between atoms: C_14  and  C_15 
REMARK    9  A    between atoms: C_15  and  C_16 
ROOT
HETATM    1  C           1     -21.244  -6.040  -6.308  0.00  0.00     0.249 C 
HETATM    2  O           1     -20.847  -6.975  -6.963  0.00  0.00    -0.271 OA
HETATM    3  N           1     -21.736  -4.926  -6.933  0.00  0.00    -0.345 N 
HETATM    4  H           1     -22.068  -4.143  -6.385  0.00  0.00     0.163 HD
ENDROOT
BRANCH   3   5
HETATM    5  C           1     -21.780  -4.867  -8.382  0.00  0.00     0.186 C 
BRANCH   5   6
HETATM    6  C           1     -22.883  -3.912  -8.816  0.00  0.00     0.046 C 
BRANCH   6   7
HETATM    7  C           1     -23.463  -4.377 -10.146  0.00  0.00     0.116 C 
BRANCH   7   8
HETATM    8  C           1     -24.531  -3.410 -10.595  0.00  0.00     0.172 C 
HETATM    9  O           1     -24.456  -2.876 -11.722  0.00  0.00    -0.648 OA
HETATM   10  O           1     -25.491  -3.143  -9.839  0.00  0.00    -0.648 OA
ENDBRANCH   7   8
ENDBRANCH   6   7
ENDBRANCH   5   6
BRANCH   5  11
HETATM   11  C           1     -20.452  -4.374  -8.904  0.00  0.00     0.196 C 
HETATM   12  O           1     -20.045  -4.747 -10.026  0.00  0.00    -0.646 OA
HETATM   13  O           1     -19.761  -3.593  -8.215  0.00  0.00    -0.646 OA
ENDBRANCH   5  11
ENDBRANCH   3   5
BRANCH   1  14
HETATM   14  C           1     -21.199  -6.102  -4.801  0.00  0.00     0.283 C 
BRANCH  14  15
HETATM   15  C           1     -20.391  -7.317  -4.366  0.00  0.00     0.113 C 
BRANCH  15  16
HETATM   16  S           1     -21.520  -8.645  -3.859  0.00  0.00    -0.180 SA
HETATM   17  H           1     -22.467  -7.837  -3.349  0.00  0.00     0.101 HD
ENDBRANCH  15  16
ENDBRANCH  14  15
BRANCH  14  18
HETATM   18  N           1     -22.594  -6.211  -4.263  0.00  0.00    -0.066 N 
HETATM   19  H           1     -23.131  -6.909  -4.826  0.00  0.00     0.275 HD
HETATM   20  H           1     -23.063  -5.279  -4.323  0.00  0.00     0.275 HD
HETATM   21  H           1     -22.560  -6.520  -3.265  0.00  0.00     0.275 HD
ENDBRANCH  14  18
ENDBRANCH   1  14
TORSDOF 9
ENDMDL
MODEL 4
REMARK VINA RESULT:      -5.3     12.345     14.079
REMARK  9 active torsions:
REMARK  status: ('A' for Active; 'I' for Inactive)
REMARK       I    between atoms: C_5  and  N_10 
REMARK    1  A    between atoms: C_5  and  C_6 
REMARK    2  A    between atoms: C_6  and  C_7 
REMARK    3  A    between atoms: C_6  and  N_8 
REMARK    4  A    between atoms: C_7  and  S_21 
REMARK    5  A    between atoms: N_10  and  C_15 
REMARK    6  A    between atoms: C_13  and  C_20 
REMARK    7  A    between atoms: C_13  and  C_14 
REMARK    8  A    between atoms: C_14  and  C_15 
REMARK    9  A    between atoms: C_15  and  C_16 
ROOT
HETATM    1  C           1     -35.004  -1.236 -13.860  0.00  0.00     0.249 C 
HETATM    2  O           1     -34.996  -2.408 -14.154  0.00  0.00    -0.271 OA
HETATM    3  N           1     -35.039  -0.862 -12.543  0.00  0.00    -0.345 N 
HETATM    4  H           1     -35.047   0.120 -12.297  0.00  0.00     0.163 HD
ENDROOT
BRANCH   3   5
HETATM    5  C           1     -35.066  -1.871 -11.502  0.00  0.00     0.186 C 
BRANCH   5   6
HETATM    6  C           1     -33.668  -2.041 -10.925  0.00  0.00     0.046 C 
BRANCH   6   7
HETATM    7  C           1     -33.025  -3.292 -11.510  0.00  0.00     0.116 C 
BRANCH   7   8
HETATM    8  C           1     -33.932  -4.477 -11.283  0.00  0.00     0.172 C 
HETATM    9  O           1     -34.101  -4.922 -10.128  0.00  0.00    -0.648 OA
HETATM   10  O           1     -34.515  -5.013 -12.251  0.00  0.00    -0.648 OA
ENDBRANCH   7   8
ENDBRANCH   6   7
ENDBRANCH   5   6
BRANCH   5  11
HETATM   11  C           1     -36.013  -1.440 -10.410  0.00  0.00     0.196 C 
HETATM   12  O           1     -35.579  -0.822  -9.414  0.00  0.00    -0.646 OA
HETATM   13  O           1     -37.233  -1.701 -10.501  0.00  0.00    -0.646 OA
ENDBRANCH   5  11
ENDBRANCH   3   5
BRANCH   1  14
HETATM   14  C           1     -34.976  -0.186 -14.943  0.00  0.00     0.283 C 
BRANCH  14  15
HETATM   15  C           1     -36.165   0.749 -14.775  0.00  0.00     0.113 C 
BRANCH  15  16
HETATM   16  S           1     -37.648  -0.025 -15.480  0.00  0.00    -0.180 SA
HETATM   17  H           1     -37.172  -1.283 -15.462  0.00  0.00     0.101 HD
ENDBRANCH  15  16
ENDBRANCH  14  15
BRANCH  14  18
HETATM   18  N           1     -35.047  -0.851 -16.286  0.00  0.00    -0.066 N 
HETATM   19  H           1     -35.512  -1.782 -16.188  0.00  0.00     0.275 HD
HETATM   20  H           1     -34.081  -0.981 -16.660  0.00  0.00     0.275 HD
HETATM   21  H           1     -35.598  -0.253 -16.942  0.00  0.00     0.275 HD
ENDBRANCH  14  18
ENDBRANCH   1  14
TORSDOF 9
ENDMDL
MODEL 5
REMARK VINA RESULT:      -5.2      3.615      7.240
REMARK  9 active torsions:
REMARK  status: ('A' for Active; 'I' for Inactive)
REMARK       I    between atoms: C_5  and  N_10 
REMARK    1  A    between atoms: C_5  and  C_6 
REMARK    2  A    between atoms: C_6  and  C_7 
REMARK    3  A    between atoms: C_6  and  N_8 
REMARK    4  A    between atoms: C_7  and  S_21 
REMARK    5  A    between atoms: N_10  and  C_15 
REMARK    6  A    between atoms: C_13  and  C_20 
REMARK    7  A    between atoms: C_13  and  C_14 
REMARK    8  A    between atoms: C_14  and  C_15 
REMARK    9  A    between atoms: C_15  and  C_16 
ROOT
HETATM    1  C           1     -22.419  -4.127  -8.173  0.00  0.00     0.249 C 
HETATM    2  O           1     -21.808  -3.114  -7.925  0.00  0.00    -0.271 OA
HETATM    3  N           1     -22.236  -5.243  -7.401  0.00  0.00    -0.345 N 
HETATM    4  H           1     -22.748  -6.090  -7.608  0.00  0.00     0.163 HD
ENDROOT
BRANCH   3   5
HETATM    5  C           1     -21.309  -5.210  -6.286  0.00  0.00     0.186 C 
BRANCH   5   6
HETATM    6  C           1     -21.774  -6.182  -5.211  0.00  0.00     0.046 C 
BRANCH   6   7
HETATM    7  C           1     -21.066  -5.868  -3.900  0.00  0.00     0.116 C 
BRANCH   7   8
HETATM    8  C           1     -21.770  -6.573  -2.766  0.00  0.00     0.172 C 
HETATM    9  O           1     -22.588  -5.950  -2.056  0.00  0.00    -0.648 OA
HETATM   10  O           1     -21.534  -7.779  -2.537  0.00  0.00    -0.648 OA
ENDBRANCH   7   8
ENDBRANCH   6   7
ENDBRANCH   5   6
BRANCH   5  11
HETATM   11  C           1     -19.934  -5.608  -6.765  0.00  0.00     0.196 C 
HETATM   12  O           1     -19.680  -6.807  -7.010  0.00  0.00    -0.646 OA
HETATM   13  O           1     -19.050  -4.737  -6.917  0.00  0.00    -0.646 OA
ENDBRANCH   5  11
ENDBRANCH   3   5
BRANCH   1  14
HETATM   14  C           1     -23.384  -4.161  -9.332  0.00  0.00     0.283 C 
BRANCH  14  15
HETATM   15  C           1     -22.727  -3.541 -10.558  0.00  0.00     0.113 C 
BRANCH  15  16
HETATM   16  S           1     -23.984  -3.245 -11.834  0.00  0.00    -0.180 SA
HETATM   17  H           1     -24.848  -2.595 -11.033  0.00  0.00     0.101 HD
ENDBRANCH  15  16
ENDBRANCH  14  15
BRANCH  14  18
HETATM   18  N           1     -24.618  -3.384  -8.979  0.00  0.00    -0.066 N 
HETATM   19  H           1     -24.343  -2.472  -8.549  0.00  0.00     0.275 HD
HETATM   20  H           1     -25.190  -3.932  -8.299  0.00  0.00     0.275 HD
HETATM   21  H           1     -25.178  -3.208  -9.844  0.00  0.00     0.275 HD
ENDBRANCH  14  18
ENDBRANCH   1  14
TORSDOF 9
ENDMDL
MODEL 6
REMARK VINA RESULT:      -5.1      4.723      7.947
REMARK  9 active torsions:
REMARK  status: ('A' for Active; 'I' for Inactive)
REMARK       I    between atoms: C_5  and  N_10 
REMARK    1  A    between atoms: C_5  and  C_6 
REMARK    2  A    between atoms: C_6  and  C_7 
REMARK    3  A    between atoms: C_6  and  N_8 
REMARK    4  A    between atoms: C_7  and  S_21 
REMARK    5  A    between atoms: N_10  and  C_15 
REMARK    6  A    between atoms: C_13  and  C_20 
REMARK    7  A    between atoms: C_13  and  C_14 
REMARK    8  A    between atoms: C_14  and  C_15 
REMARK    9  A    between atoms: C_15  and  C_16 
ROOT
HETATM    1  C           1     -21.019  -5.129  -6.833  0.00  0.00     0.249 C 
HETATM    2  O           1     -20.467  -4.327  -6.116  0.00  0.00    -0.271 OA
HETATM    3  N           1     -21.246  -6.403  -6.388  0.00  0.00    -0.345 N 
HETATM    4  H           1     -21.707  -7.074  -6.988  0.00  0.00     0.163 HD
ENDROOT
BRANCH   3   5
HETATM    5  C           1     -20.826  -6.791  -5.055  0.00  0.00     0.186 C 
BRANCH   5   6
HETATM    6  C           1     -21.998  -6.649  -4.093  0.00  0.00     0.046 C 
BRANCH   6   7
HETATM    7  C           1     -21.493  -6.139  -2.749  0.00  0.00     0.116 C 
BRANCH   7   8
HETATM    8  C           1     -21.891  -7.107  -1.662  0.00  0.00     0.172 C 
HETATM    9  O           1     -22.709  -6.759  -0.784  0.00  0.00    -0.648 OA
HETATM   10  O           1     -21.402  -8.258  -1.639  0.00  0.00    -0.648 OA
ENDBRANCH   7   8
ENDBRANCH   6   7
ENDBRANCH   5   6
BRANCH   5  11
HETATM   11  C           1     -20.361  -8.227  -5.073  0.00  0.00     0.196 C 
HETATM   12  O           1     -20.964  -9.071  -5.770  0.00  0.00    -0.646 OA
HETATM   13  O           1     -19.371  -8.571  -4.391  0.00  0.00    -0.646 OA
ENDBRANCH   5  11
ENDBRANCH   3   5
BRANCH   1  14
HETATM   14  C           1     -21.456  -4.725  -8.220  0.00  0.00     0.283 C 
BRANCH  14  15
HETATM   15  C           1     -20.232  -4.388  -9.061  0.00  0.00     0.113 C 
BRANCH  15  16
HETATM   16  S           1     -20.721  -4.216 -10.800  0.00  0.00    -0.180 SA
HETATM   17  H           1     -19.489  -3.943 -11.267  0.00  0.00     0.101 HD
ENDBRANCH  15  16
ENDBRANCH  14  15
BRANCH  14  18
HETATM   18  N           1     -22.349  -3.523  -8.132  0.00  0.00    -0.066 N 
HETATM   19  H           1     -23.345  -3.822  -8.240  0.00  0.00     0.275 HD
HETATM   20  H           1     -22.102  -2.851  -8.893  0.00  0.00     0.275 HD
HETATM   21  H           1     -22.222  -3.061  -7.204  0.00  0.00     0.275 HD
ENDBRANCH  14  18
ENDBRANCH   1  14
TORSDOF 9
ENDMDL
MODEL 7
REMARK VINA RESULT:      -4.9      6.312      8.637
REMARK  9 active torsions:
REMARK  status: ('A' for Active; 'I' for Inactive)
REMARK       I    between atoms: C_5  and  N_10 
REMARK    1  A    between atoms: C_5  and  C_6 
REMARK    2  A    between atoms: C_6  and  C_7 
REMARK    3  A    between atoms: C_6  and  N_8 
REMARK    4  A    between atoms: C_7  and  S_21 
REMARK    5  A    between atoms: N_10  and  C_15 
REMARK    6  A    between atoms: C_13  and  C_20 
REMARK    7  A    between atoms: C_13  and  C_14 
REMARK    8  A    between atoms: C_14  and  C_15 
REMARK    9  A    between atoms: C_15  and  C_16 
ROOT
HETATM    1  C           1     -20.812  -7.472  -5.306  0.00  0.00     0.249 C 
HETATM    2  O           1     -19.734  -7.943  -5.585  0.00  0.00    -0.271 OA
HETATM    3  N           1     -21.581  -8.051  -4.333  0.00  0.00    -0.345 N 
HETATM    4  H           1     -22.483  -7.657  -4.100  0.00  0.00     0.163 HD
ENDROOT
BRANCH   3   5
HETATM    5  C           1     -21.103  -9.229  -3.636  0.00  0.00     0.186 C 
BRANCH   5   6
HETATM    6  C           1     -21.388  -9.087  -2.146  0.00  0.00     0.046 C 
BRANCH   6   7
HETATM    7  C           1     -20.939  -7.711  -1.672  0.00  0.00     0.116 C 
BRANCH   7   8
HETATM    8  C           1     -22.147  -6.827  -1.479  0.00  0.00     0.172 C 
HETATM    9  O           1     -22.414  -5.943  -2.321  0.00  0.00    -0.648 OA
HETATM   10  O           1     -22.879  -6.978  -0.478  0.00  0.00    -0.648 OA
ENDBRANCH   7   8
ENDBRANCH   6   7
ENDBRANCH   5   6
BRANCH   5  11
HETATM   11  C           1     -21.811 -10.450  -4.170  0.00  0.00     0.196 C 
HETATM   12  O           1     -22.793 -10.922  -3.557  0.00  0.00    -0.646 OA
HETATM   13  O           1     -21.414 -10.990  -5.226  0.00  0.00    -0.646 OA
ENDBRANCH   5  11
ENDBRANCH   3   5
BRANCH   1  14
HETATM   14  C           1     -21.309  -6.246  -6.032  0.00  0.00     0.283 C 
BRANCH  14  15
HETATM   15  C           1     -20.301  -5.116  -5.868  0.00  0.00     0.113 C 
BRANCH  15  16
HETATM   16  S           1     -19.658  -4.639  -7.497  0.00  0.00    -0.180 SA
HETATM   17  H           1     -18.392  -4.430  -7.093  0.00  0.00     0.101 HD
ENDBRANCH  15  16
ENDBRANCH  14  15
BRANCH  14  18
HETATM   18  N           1     -22.629  -5.826  -5.457  0.00  0.00    -0.066 N 
HETATM   19  H           1     -22.716  -4.786  -5.511  0.00  0.00     0.275 HD
HETATM   20  H           1     -22.686  -6.130  -4.460  0.00  0.00     0.275 HD
HETATM   21  H           1     -23.403  -6.269  -6.002  0.00  0.00     0.275 HD
ENDBRANCH  14  18
ENDBRANCH   1  14
TORSDOF 9
ENDMDL
MODEL 8
REMARK VINA RESULT:      -4.6      5.284      7.965
REMARK  9 active torsions:
REMARK  status: ('A' for Active; 'I' for Inactive)
REMARK       I    between atoms: C_5  and  N_10 
REMARK    1  A    between atoms: C_5  and  C_6 
REMARK    2  A    between atoms: C_6  and  C_7 
REMARK    3  A    between atoms: C_6  and  N_8 
REMARK    4  A    between atoms: C_7  and  S_21 
REMARK    5  A    between atoms: N_10  and  C_15 
REMARK    6  A    between atoms: C_13  and  C_20 
REMARK    7  A    between atoms: C_13  and  C_14 
REMARK    8  A    between atoms: C_14  and  C_15 
REMARK    9  A    between atoms: C_15  and  C_16 
ROOT
HETATM    1  C           1     -19.584  -8.938  -5.057  0.00  0.00     0.249 C 
HETATM    2  O           1     -20.252  -9.760  -5.640  0.00  0.00    -0.271 OA
HETATM    3  N           1     -19.990  -7.631  -5.017  0.00  0.00    -0.345 N 
HETATM    4  H           1     -19.431  -6.943  -4.530  0.00  0.00     0.163 HD
ENDROOT
BRANCH   3   5
HETATM    5  C           1     -21.220  -7.232  -5.675  0.00  0.00     0.186 C 
BRANCH   5   6
HETATM    6  C           1     -22.174  -6.640  -4.647  0.00  0.00     0.046 C 
BRANCH   6   7
HETATM    7  C           1     -21.378  -6.100  -3.466  0.00  0.00     0.116 C 
BRANCH   7   8
HETATM    8  C           1     -21.710  -6.898  -2.228  0.00  0.00     0.172 C 
HETATM    9  O           1     -21.178  -8.013  -2.043  0.00  0.00    -0.648 OA
HETATM   10  O           1     -22.516  -6.442  -1.389  0.00  0.00    -0.648 OA
ENDBRANCH   7   8
ENDBRANCH   6   7
ENDBRANCH   5   6
BRANCH   5  11
HETATM   11  C           1     -20.913  -6.200  -6.731  0.00  0.00     0.196 C 
HETATM   12  O           1     -21.690  -5.237  -6.909  0.00  0.00    -0.646 OA
HETATM   13  O           1     -19.880  -6.308  -7.428  0.00  0.00    -0.646 OA
ENDBRANCH   5  11
ENDBRANCH   3   5
BRANCH   1  14
HETATM   14  C           1     -18.305  -9.353  -4.373  0.00  0.00     0.283 C 
BRANCH  14  15
HETATM   15  C           1     -17.985 -10.799  -4.727  0.00  0.00     0.113 C 
BRANCH  15  16
HETATM   16  S           1     -16.240 -11.140  -4.361  0.00  0.00    -0.180 SA
HETATM   17  H           1     -15.965  -9.928  -3.845  0.00  0.00     0.101 HD
ENDBRANCH  15  16
ENDBRANCH  14  15
BRANCH  14  18
HETATM   18  N           1     -18.468  -9.226  -2.888  0.00  0.00    -0.066 N 
HETATM   19  H           1     -18.804 -10.135  -2.496  0.00  0.00     0.275 HD
HETATM   20  H           1     -19.166  -8.477  -2.678  0.00  0.00     0.275 HD
HETATM   21  H           1     -17.549  -8.978  -2.456  0.00  0.00     0.275 HD
ENDBRANCH  14  18
ENDBRANCH   1  14
TORSDOF 9
ENDMDL
MODEL 9
REMARK VINA RESULT:      -4.5      5.971      9.369
REMARK  9 active torsions:
REMARK  status: ('A' for Active; 'I' for Inactive)
REMARK       I    between atoms: C_5  and  N_10 
REMARK    1  A    between atoms: C_5  and  C_6 
REMARK    2  A    between atoms: C_6  and  C_7 
REMARK    3  A    between atoms: C_6  and  N_8 
REMARK    4  A    between atoms: C_7  and  S_21 
REMARK    5  A    between atoms: N_10  and  C_15 
REMARK    6  A    between atoms: C_13  and  C_20 
REMARK    7  A    between atoms: C_13  and  C_14 
REMARK    8  A    between atoms: C_14  and  C_15 
REMARK    9  A    between atoms: C_15  and  C_16 
ROOT
HETATM    1  C           1     -21.144  -6.980  -4.790  0.00  0.00     0.249 C 
HETATM    2  O           1     -22.201  -7.445  -5.147  0.00  0.00    -0.271 OA
HETATM    3  N           1     -20.767  -7.066  -3.477  0.00  0.00    -0.345 N 
HETATM    4  H           1     -19.882  -6.677  -3.178  0.00  0.00     0.163 HD
ENDROOT
BRANCH   3   5
HETATM    5  C           1     -21.636  -7.715  -2.513  0.00  0.00     0.186 C 
BRANCH   5   6
HETATM    6  C           1     -20.834  -8.730  -1.711  0.00  0.00     0.046 C 
BRANCH   6   7
HETATM    7  C           1     -21.415 -10.122  -1.927  0.00  0.00     0.116 C 
BRANCH   7   8
HETATM    8  C           1     -22.341 -10.463  -0.785  0.00  0.00     0.172 C 
HETATM    9  O           1     -21.900 -10.518   0.382  0.00  0.00    -0.648 OA
HETATM   10  O           1     -23.550 -10.691  -1.008  0.00  0.00    -0.648 OA
ENDBRANCH   7   8
ENDBRANCH   6   7
ENDBRANCH   5   6
BRANCH   5  11
HETATM   11  C           1     -22.214  -6.679  -1.581  0.00  0.00     0.196 C 
HETATM   12  O           1     -22.085  -5.462  -1.841  0.00  0.00    -0.646 OA
HETATM   13  O           1     -22.821  -7.037  -0.549  0.00  0.00    -0.646 OA
ENDBRANCH   5  11
ENDBRANCH   3   5
BRANCH   1  14
HETATM   14  C           1     -20.240  -6.306  -5.792  0.00  0.00     0.283 C 
BRANCH  14  15
HETATM   15  C           1     -20.268  -4.800  -5.569  0.00  0.00     0.113 C 
BRANCH  15  16
HETATM   16  S           1     -21.009  -3.988  -7.014  0.00  0.00    -0.180 SA
HETATM   17  H           1     -20.882  -2.731  -6.550  0.00  0.00     0.101 HD
ENDBRANCH  15  16
ENDBRANCH  14  15
BRANCH  14  18
HETATM   18  N           1     -20.715  -6.615  -7.181  0.00  0.00    -0.066 N 
HETATM   19  H           1     -20.985  -7.623  -7.240  0.00  0.00     0.275 HD
HETATM   20  H           1     -19.947  -6.419  -7.862  0.00  0.00     0.275 HD
HETATM   21  H           1     -21.542  -6.018  -7.407  0.00  0.00     0.275 HD
ENDBRANCH  14  18
ENDBRANCH   1  14
TORSDOF 9
ENDMDL
