MODEL 1
REMARK VINA RESULT:      -6.6      0.000      0.000
REMARK  9 active torsions:
REMARK  status: ('A' for Active; 'I' for Inactive)
REMARK       I    between atoms: N_2  and  C_3 
REMARK    1  A    between atoms: C_3  and  C_18 
REMARK    2  A    between atoms: N_5  and  C_11 
REMARK       I    between atoms: N_5  and  C_8 
REMARK    3  A    between atoms: C_7  and  C_8 
REMARK    4  A    between atoms: C_7  and  C_17 
REMARK    5  A    between atoms: C_7  and  N_16 
REMARK    6  A    between atoms: O_9  and  C_12 
REMARK    7  A    between atoms: C_10  and  C_11 
REMARK    8  A    between atoms: C_11  and  C_12 
REMARK    9  A    between atoms: C_17  and  C_18 
ROOT
HETATM    1  C           1     -34.428  -1.684 -11.961  0.00  0.00     0.275 C 
ENDROOT
BRANCH   1   2
HETATM    2  C           1     -35.424  -1.127 -12.948  0.00  0.00     0.249 C 
HETATM    3  N           1     -34.987  -0.488 -14.077  0.00  0.00    -0.343 N 
HETATM    4  H           1     -33.995  -0.389 -14.250  0.00  0.00     0.163 HD
HETATM    5  O           1     -36.609  -1.246 -12.742  0.00  0.00    -0.271 OA
BRANCH   3   6
HETATM    6  C           1     -35.946   0.047 -15.024  0.00  0.00     0.209 C 
BRANCH   6   7
HETATM    7  C           1     -35.934  -0.793 -16.278  0.00  0.00     0.198 C 
HETATM    8  O           1     -36.926  -0.793 -17.039  0.00  0.00    -0.646 OA
HETATM    9  O           1     -34.934  -1.489 -16.554  0.00  0.00    -0.646 OA
ENDBRANCH   6   7
BRANCH   6  10
HETATM   10  C           1     -35.569   1.481 -15.370  0.00  0.00     0.200 C 
BRANCH  10  11
HETATM   11  O           1     -36.554   2.037 -16.199  0.00  0.00    -0.398 OA
HETATM   12  H           1     -37.011   2.681 -15.687  0.00  0.00     0.209 HD
ENDBRANCH  10  11
ENDBRANCH   6  10
ENDBRANCH   3   6
ENDBRANCH   1   2
BRANCH   1  13
HETATM   13  C           1     -34.004  -3.080 -12.398  0.00  0.00     0.052 C 
BRANCH  13  14
HETATM   14  C           1     -33.244  -3.758 -11.266  0.00  0.00     0.105 C 
BRANCH  14  15
HETATM   15  C           1     -33.903  -5.074 -10.935  0.00  0.00     0.215 C 
HETATM   16  O           1     -35.014  -5.091 -10.459  0.00  0.00    -0.274 OA
HETATM   17  N           1     -33.242  -6.249 -11.173  0.00  0.00    -0.370 N 
HETATM   18  H           1     -33.684  -7.132 -10.951  0.00  0.00     0.159 HD
HETATM   19  H           1     -32.312  -6.235 -11.571  0.00  0.00     0.159 HD
ENDBRANCH  14  15
ENDBRANCH  13  14
ENDBRANCH   1  13
BRANCH   1  20
HETATM   20  N           1     -35.059  -1.756 -10.602  0.00  0.00    -0.066 N 
HETATM   21  H           1     -34.359  -2.111  -9.911  0.00  0.00     0.275 HD
HETATM   22  H           1     -35.378  -0.803 -10.315  0.00  0.00     0.275 HD
HETATM   23  H           1     -35.878  -2.405 -10.633  0.00  0.00     0.275 HD
ENDBRANCH   1  20
TORSDOF 9
ENDMDL
MODEL 2
REMARK VINA RESULT:      -6.3     11.766     14.597
REMARK  9 active torsions:
REMARK  status: ('A' for Active; 'I' for Inactive)
REMARK       I    between atoms: N_2  and  C_3 
REMARK    1  A    between atoms: C_3  and  C_18 
REMARK    2  A    between atoms: N_5  and  C_11 
REMARK       I    between atoms: N_5  and  C_8 
REMARK    3  A    between atoms: C_7  and  C_8 
REMARK    4  A    between atoms: C_7  and  C_17 
REMARK    5  A    between atoms: C_7  and  N_16 
REMARK    6  A    between atoms: O_9  and  C_12 
REMARK    7  A    between atoms: C_10  and  C_11 
REMARK    8  A    between atoms: C_11  and  C_12 
REMARK    9  A    between atoms: C_17  and  C_18 
ROOT
HETATM    1  C           1     -23.919  -4.315 -10.640  0.00  0.00     0.275 C 
ENDROOT
BRANCH   1   2
HETATM    2  C           1     -22.594  -4.591  -9.971  0.00  0.00     0.249 C 
HETATM    3  N           1     -22.542  -4.814  -8.622  0.00  0.00    -0.343 N 
HETATM    4  H           1     -23.391  -4.795  -8.072  0.00  0.00     0.163 HD
HETATM    5  O           1     -21.580  -4.615 -10.628  0.00  0.00    -0.271 OA
BRANCH   3   6
HETATM    6  C           1     -21.268  -5.079  -7.980  0.00  0.00     0.209 C 
BRANCH   6   7
HETATM    7  C           1     -21.490  -5.941  -6.762  0.00  0.00     0.198 C 
HETATM    8  O           1     -22.237  -5.543  -5.842  0.00  0.00    -0.646 OA
HETATM    9  O           1     -20.926  -7.053  -6.673  0.00  0.00    -0.646 OA
ENDBRANCH   6   7
BRANCH   6  10
HETATM   10  C           1     -20.629  -3.761  -7.561  0.00  0.00     0.200 C 
BRANCH  10  11
HETATM   11  O           1     -21.614  -2.908  -7.044  0.00  0.00    -0.398 OA
HETATM   12  H           1     -21.211  -2.064  -6.927  0.00  0.00     0.209 HD
ENDBRANCH  10  11
ENDBRANCH   6  10
ENDBRANCH   3   6
ENDBRANCH   1   2
BRANCH   1  13
HETATM   13  C           1     -23.860  -2.969 -11.350  0.00  0.00     0.052 C 
BRANCH  13  14
HETATM   14  C           1     -24.451  -3.106 -12.747  0.00  0.00     0.105 C 
BRANCH  14  15
HETATM   15  C           1     -23.348  -2.998 -13.772  0.00  0.00     0.215 C 
HETATM   16  O           1     -23.594  -2.596 -14.885  0.00  0.00    -0.274 OA
HETATM   17  N           1     -22.069  -3.357 -13.441  0.00  0.00    -0.370 N 
HETATM   18  H           1     -21.330  -3.286 -14.128  0.00  0.00     0.159 HD
HETATM   19  H           1     -21.864  -3.694 -12.509  0.00  0.00     0.159 HD
ENDBRANCH  14  15
ENDBRANCH  13  14
ENDBRANCH   1  13
BRANCH   1  20
HETATM   20  N           1     -25.004  -4.288  -9.604  0.00  0.00    -0.066 N 
HETATM   21  H           1     -24.578  -4.351  -8.652  0.00  0.00     0.275 HD
HETATM   22  H           1     -25.541  -3.395  -9.686  0.00  0.00     0.275 HD
HETATM   23  H           1     -25.647  -5.098  -9.753  0.00  0.00     0.275 HD
ENDBRANCH   1  20
TORSDOF 9
ENDMDL
MODEL 3
REMARK VINA RESULT:      -6.1      1.912      2.577
REMARK  9 active torsions:
REMARK  status: ('A' for Active; 'I' for Inactive)
REMARK       I    between atoms: N_2  and  C_3 
REMARK    1  A    between atoms: C_3  and  C_18 
REMARK    2  A    between atoms: N_5  and  C_11 
REMARK       I    between atoms: N_5  and  C_8 
REMARK    3  A    between atoms: C_7  and  C_8 
REMARK    4  A    between atoms: C_7  and  C_17 
REMARK    5  A    between atoms: C_7  and  N_16 
REMARK    6  A    between atoms: O_9  and  C_12 
REMARK    7  A    between atoms: C_10  and  C_11 
REMARK    8  A    between atoms: C_11  and  C_12 
REMARK    9  A    between atoms: C_17  and  C_18 
ROOT
HETATM    1  C           1     -34.310  -3.907 -12.360  0.00  0.00     0.275 C 
ENDROOT
BRANCH   1   2
HETATM    2  C           1     -34.757  -2.471 -12.233  0.00  0.00     0.249 C 
HETATM    3  N           1     -34.984  -1.723 -13.356  0.00  0.00    -0.343 N 
HETATM    4  H           1     -34.853  -2.132 -14.272  0.00  0.00     0.163 HD
HETATM    5  O           1     -34.914  -1.983 -11.139  0.00  0.00    -0.271 OA
BRANCH   3   6
HETATM    6  C           1     -35.413  -0.343 -13.233  0.00  0.00     0.209 C 
BRANCH   6   7
HETATM    7  C           1     -36.921  -0.283 -13.238  0.00  0.00     0.198 C 
HETATM    8  O           1     -37.563  -0.789 -14.183  0.00  0.00    -0.646 OA
HETATM    9  O           1     -37.527   0.271 -12.296  0.00  0.00    -0.646 OA
ENDBRANCH   6   7
BRANCH   6  10
HETATM   10  C           1     -34.869   0.463 -14.406  0.00  0.00     0.200 C 
BRANCH  10  11
HETATM   11  O           1     -35.790   1.460 -14.756  0.00  0.00    -0.398 OA
HETATM   12  H           1     -36.549   1.335 -14.212  0.00  0.00     0.209 HD
ENDBRANCH  10  11
ENDBRANCH   6  10
ENDBRANCH   3   6
ENDBRANCH   1   2
BRANCH   1  13
HETATM   13  C           1     -33.474  -4.290 -11.146  0.00  0.00     0.052 C 
BRANCH  13  14
HETATM   14  C           1     -33.188  -5.786 -11.177  0.00  0.00     0.105 C 
BRANCH  14  15
HETATM   15  C           1     -34.414  -6.541 -10.724  0.00  0.00     0.215 C 
HETATM   16  O           1     -34.776  -6.470  -9.573  0.00  0.00    -0.274 OA
HETATM   17  N           1     -35.113  -7.308 -11.617  0.00  0.00    -0.370 N 
HETATM   18  H           1     -35.934  -7.815 -11.312  0.00  0.00     0.159 HD
HETATM   19  H           1     -34.809  -7.368 -12.580  0.00  0.00     0.159 HD
ENDBRANCH  14  15
ENDBRANCH  13  14
ENDBRANCH   1  13
BRANCH   1  20
HETATM   20  N           1     -33.487  -4.065 -13.604  0.00  0.00    -0.066 N 
HETATM   21  H           1     -33.817  -3.387 -14.328  0.00  0.00     0.275 HD
HETATM   22  H           1     -32.483  -3.879 -13.384  0.00  0.00     0.275 HD
HETATM   23  H           1     -33.590  -5.040 -13.968  0.00  0.00     0.275 HD
ENDBRANCH   1  20
TORSDOF 9
ENDMDL
MODEL 4
REMARK VINA RESULT:      -5.8     12.177     14.861
REMARK  9 active torsions:
REMARK  status: ('A' for Active; 'I' for Inactive)
REMARK       I    between atoms: N_2  and  C_3 
REMARK    1  A    between atoms: C_3  and  C_18 
REMARK    2  A    between atoms: N_5  and  C_11 
REMARK       I    between atoms: N_5  and  C_8 
REMARK    3  A    between atoms: C_7  and  C_8 
REMARK    4  A    between atoms: C_7  and  C_17 
REMARK    5  A    between atoms: C_7  and  N_16 
REMARK    6  A    between atoms: O_9  and  C_12 
REMARK    7  A    between atoms: C_10  and  C_11 
REMARK    8  A    between atoms: C_11  and  C_12 
REMARK    9  A    between atoms: C_17  and  C_18 
ROOT
HETATM    1  C           1     -24.156  -4.594 -10.199  0.00  0.00     0.275 C 
ENDROOT
BRANCH   1   2
HETATM    2  C           1     -23.124  -4.259  -9.150  0.00  0.00     0.249 C 
HETATM    3  N           1     -22.192  -5.193  -8.785  0.00  0.00    -0.343 N 
HETATM    4  H           1     -22.194  -6.107  -9.218  0.00  0.00     0.163 HD
HETATM    5  O           1     -23.121  -3.167  -8.633  0.00  0.00    -0.271 OA
BRANCH   3   6
HETATM    6  C           1     -21.200  -4.871  -7.776  0.00  0.00     0.209 C 
BRANCH   6   7
HETATM    7  C           1     -19.875  -4.598  -8.444  0.00  0.00     0.198 C 
HETATM    8  O           1     -18.920  -4.145  -7.776  0.00  0.00    -0.646 OA
HETATM    9  O           1     -19.733  -4.823  -9.665  0.00  0.00    -0.646 OA
ENDBRANCH   6   7
BRANCH   6  10
HETATM   10  C           1     -21.054  -6.045  -6.817  0.00  0.00     0.200 C 
BRANCH  10  11
HETATM   11  O           1     -19.846  -6.709  -7.072  0.00  0.00    -0.398 OA
HETATM   12  H           1     -19.816  -7.454  -6.497  0.00  0.00     0.209 HD
ENDBRANCH  10  11
ENDBRANCH   6  10
ENDBRANCH   3   6
ENDBRANCH   1   2
BRANCH   1  13
HETATM   13  C           1     -23.470  -4.791 -11.544  0.00  0.00     0.052 C 
BRANCH  13  14
HETATM   14  C           1     -22.773  -3.500 -11.953  0.00  0.00     0.105 C 
BRANCH  14  15
HETATM   15  C           1     -23.351  -3.007 -13.257  0.00  0.00     0.215 C 
HETATM   16  O           1     -24.489  -2.603 -13.299  0.00  0.00    -0.274 OA
HETATM   17  N           1     -22.586  -3.020 -14.392  0.00  0.00    -0.370 N 
HETATM   18  H           1     -22.974  -2.691 -15.267  0.00  0.00     0.159 HD
HETATM   19  H           1     -21.633  -3.359 -14.357  0.00  0.00     0.159 HD
ENDBRANCH  14  15
ENDBRANCH  13  14
ENDBRANCH   1  13
BRANCH   1  20
HETATM   20  N           1     -25.145  -3.469 -10.302  0.00  0.00    -0.066 N 
HETATM   21  H           1     -24.694  -2.580  -9.987  0.00  0.00     0.275 HD
HETATM   22  H           1     -25.456  -3.369 -11.295  0.00  0.00     0.275 HD
HETATM   23  H           1     -25.970  -3.676  -9.696  0.00  0.00     0.275 HD
ENDBRANCH   1  20
TORSDOF 9
ENDMDL
MODEL 5
REMARK VINA RESULT:      -5.8     12.177     14.027
REMARK  9 active torsions:
REMARK  status: ('A' for Active; 'I' for Inactive)
REMARK       I    between atoms: N_2  and  C_3 
REMARK    1  A    between atoms: C_3  and  C_18 
REMARK    2  A    between atoms: N_5  and  C_11 
REMARK       I    between atoms: N_5  and  C_8 
REMARK    3  A    between atoms: C_7  and  C_8 
REMARK    4  A    between atoms: C_7  and  C_17 
REMARK    5  A    between atoms: C_7  and  N_16 
REMARK    6  A    between atoms: O_9  and  C_12 
REMARK    7  A    between atoms: C_10  and  C_11 
REMARK    8  A    between atoms: C_11  and  C_12 
REMARK    9  A    between atoms: C_17  and  C_18 
ROOT
HETATM    1  C           1     -22.080  -4.359  -7.212  0.00  0.00     0.275 C 
ENDROOT
BRANCH   1   2
HETATM    2  C           1     -21.950  -3.931  -8.653  0.00  0.00     0.249 C 
HETATM    3  N           1     -23.069  -3.802  -9.432  0.00  0.00    -0.343 N 
HETATM    4  H           1     -23.982  -3.993  -9.042  0.00  0.00     0.163 HD
HETATM    5  O           1     -20.859  -3.701  -9.119  0.00  0.00    -0.271 OA
BRANCH   3   6
HETATM    6  C           1     -22.943  -3.391 -10.817  0.00  0.00     0.209 C 
BRANCH   6   7
HETATM    7  C           1     -24.316  -3.162 -11.399  0.00  0.00     0.198 C 
HETATM    8  O           1     -24.448  -2.946 -12.624  0.00  0.00    -0.646 OA
HETATM    9  O           1     -25.321  -3.188 -10.657  0.00  0.00    -0.646 OA
ENDBRANCH   6   7
BRANCH   6  10
HETATM   10  C           1     -22.232  -4.482 -11.607  0.00  0.00     0.200 C 
BRANCH  10  11
HETATM   11  O           1     -21.605  -3.916 -12.726  0.00  0.00    -0.398 OA
HETATM   12  H           1     -21.481  -4.610 -13.351  0.00  0.00     0.209 HD
ENDBRANCH  10  11
ENDBRANCH   6  10
ENDBRANCH   3   6
ENDBRANCH   1   2
BRANCH   1  13
HETATM   13  C           1     -21.341  -5.674  -7.003  0.00  0.00     0.052 C 
BRANCH  13  14
HETATM   14  C           1     -20.612  -5.640  -5.666  0.00  0.00     0.105 C 
BRANCH  14  15
HETATM   15  C           1     -21.385  -6.445  -4.650  0.00  0.00     0.215 C 
HETATM   16  O           1     -22.537  -6.168  -4.410  0.00  0.00    -0.274 OA
HETATM   17  N           1     -20.781  -7.487  -4.000  0.00  0.00    -0.370 N 
HETATM   18  H           1     -21.300  -8.026  -3.319  0.00  0.00     0.159 HD
HETATM   19  H           1     -19.817  -7.718  -4.201  0.00  0.00     0.159 HD
ENDBRANCH  14  15
ENDBRANCH  13  14
ENDBRANCH   1  13
BRANCH   1  20
HETATM   20  N           1     -23.530  -4.541  -6.874  0.00  0.00    -0.066 N 
HETATM   21  H           1     -24.055  -3.669  -7.113  0.00  0.00     0.275 HD
HETATM   22  H           1     -23.918  -5.342  -7.421  0.00  0.00     0.275 HD
HETATM   23  H           1     -23.627  -4.736  -5.851  0.00  0.00     0.275 HD
ENDBRANCH   1  20
TORSDOF 9
ENDMDL
MODEL 6
REMARK VINA RESULT:      -5.8     12.414     14.352
REMARK  9 active torsions:
REMARK  status: ('A' for Active; 'I' for Inactive)
REMARK       I    between atoms: N_2  and  C_3 
REMARK    1  A    between atoms: C_3  and  C_18 
REMARK    2  A    between atoms: N_5  and  C_11 
REMARK       I    between atoms: N_5  and  C_8 
REMARK    3  A    between atoms: C_7  and  C_8 
REMARK    4  A    between atoms: C_7  and  C_17 
REMARK    5  A    between atoms: C_7  and  N_16 
REMARK    6  A    between atoms: O_9  and  C_12 
REMARK    7  A    between atoms: C_10  and  C_11 
REMARK    8  A    between atoms: C_11  and  C_12 
REMARK    9  A    between atoms: C_17  and  C_18 
ROOT
HETATM    1  C           1     -20.391  -3.784  -7.894  0.00  0.00     0.275 C 
ENDROOT
BRANCH   1   2
HETATM    2  C           1     -20.963  -4.198  -9.228  0.00  0.00     0.249 C 
HETATM    3  N           1     -22.268  -3.916  -9.531  0.00  0.00    -0.343 N 
HETATM    4  H           1     -22.849  -3.429  -8.861  0.00  0.00     0.163 HD
HETATM    5  O           1     -20.269  -4.778 -10.029  0.00  0.00    -0.271 OA
BRANCH   3   6
HETATM    6  C           1     -22.817  -4.314 -10.813  0.00  0.00     0.209 C 
BRANCH   6   7
HETATM    7  C           1     -23.266  -3.088 -11.570  0.00  0.00     0.198 C 
HETATM    8  O           1     -24.485  -2.868 -11.736  0.00  0.00    -0.646 OA
HETATM    9  O           1     -22.418  -2.293 -12.030  0.00  0.00    -0.646 OA
ENDBRANCH   6   7
BRANCH   6  10
HETATM   10  C           1     -24.007  -5.237 -10.589  0.00  0.00     0.200 C 
BRANCH  10  11
HETATM   11  O           1     -24.896  -4.643  -9.681  0.00  0.00    -0.398 OA
HETATM   12  H           1     -25.670  -4.413 -10.166  0.00  0.00     0.209 HD
ENDBRANCH  10  11
ENDBRANCH   6  10
ENDBRANCH   3   6
ENDBRANCH   1   2
BRANCH   1  13
HETATM   13  C           1     -19.749  -4.989  -7.220  0.00  0.00     0.052 C 
BRANCH  13  14
HETATM   14  C           1     -20.275  -5.115  -5.796  0.00  0.00     0.105 C 
BRANCH  14  15
HETATM   15  C           1     -21.353  -6.170  -5.748  0.00  0.00     0.215 C 
HETATM   16  O           1     -22.474  -5.873  -5.410  0.00  0.00    -0.274 OA
HETATM   17  N           1     -21.059  -7.463  -6.087  0.00  0.00    -0.370 N 
HETATM   18  H           1     -21.781  -8.171  -6.054  0.00  0.00     0.159 HD
HETATM   19  H           1     -20.119  -7.711  -6.369  0.00  0.00     0.159 HD
ENDBRANCH  14  15
ENDBRANCH  13  14
ENDBRANCH   1  13
BRANCH   1  20
HETATM   20  N           1     -21.491  -3.251  -7.024  0.00  0.00    -0.066 N 
HETATM   21  H           1     -22.217  -2.795  -7.621  0.00  0.00     0.275 HD
HETATM   22  H           1     -21.923  -4.037  -6.488  0.00  0.00     0.275 HD
HETATM   23  H           1     -21.097  -2.549  -6.357  0.00  0.00     0.275 HD
ENDBRANCH   1  20
TORSDOF 9
ENDMDL
MODEL 7
REMARK VINA RESULT:      -5.8      6.870      8.019
REMARK  9 active torsions:
REMARK  status: ('A' for Active; 'I' for Inactive)
REMARK       I    between atoms: N_2  and  C_3 
REMARK    1  A    between atoms: C_3  and  C_18 
REMARK    2  A    between atoms: N_5  and  C_11 
REMARK       I    between atoms: N_5  and  C_8 
REMARK    3  A    between atoms: C_7  and  C_8 
REMARK    4  A    between atoms: C_7  and  C_17 
REMARK    5  A    between atoms: C_7  and  N_16 
REMARK    6  A    between atoms: O_9  and  C_12 
REMARK    7  A    between atoms: C_10  and  C_11 
REMARK    8  A    between atoms: C_11  and  C_12 
REMARK    9  A    between atoms: C_17  and  C_18 
ROOT
HETATM    1  C           1     -29.775  -7.491 -17.107  0.00  0.00     0.275 C 
ENDROOT
BRANCH   1   2
HETATM    2  C           1     -31.085  -6.766 -17.299  0.00  0.00     0.249 C 
HETATM    3  N           1     -31.299  -5.563 -16.680  0.00  0.00    -0.343 N 
HETATM    4  H           1     -30.579  -5.160 -16.094  0.00  0.00     0.163 HD
HETATM    5  O           1     -31.944  -7.246 -18.000  0.00  0.00    -0.271 OA
BRANCH   3   6
HETATM    6  C           1     -32.557  -4.867 -16.865  0.00  0.00     0.209 C 
BRANCH   6   7
HETATM    7  C           1     -32.291  -3.483 -17.404  0.00  0.00     0.198 C 
HETATM    8  O           1     -31.122  -3.133 -17.677  0.00  0.00    -0.646 OA
HETATM    9  O           1     -33.239  -2.688 -17.578  0.00  0.00    -0.646 OA
ENDBRANCH   6   7
BRANCH   6  10
HETATM   10  C           1     -33.278  -4.761 -15.527  0.00  0.00     0.200 C 
BRANCH  10  11
HETATM   11  O           1     -34.664  -4.815 -15.737  0.00  0.00    -0.398 OA
HETATM   12  H           1     -34.889  -4.072 -16.271  0.00  0.00     0.209 HD
ENDBRANCH  10  11
ENDBRANCH   6  10
ENDBRANCH   3   6
ENDBRANCH   1   2
BRANCH   1  13
HETATM   13  C           1     -28.683  -6.487 -16.765  0.00  0.00     0.052 C 
BRANCH  13  14
HETATM   14  C           1     -27.833  -7.031 -15.623  0.00  0.00     0.105 C 
BRANCH  14  15
HETATM   15  C           1     -26.376  -6.986 -16.015  0.00  0.00     0.215 C 
HETATM   16  O           1     -25.526  -7.315 -15.222  0.00  0.00    -0.274 OA
HETATM   17  N           1     -26.018  -6.570 -17.270  0.00  0.00    -0.370 N 
HETATM   18  H           1     -25.041  -6.540 -17.532  0.00  0.00     0.159 HD
HETATM   19  H           1     -26.730  -6.294 -17.934  0.00  0.00     0.159 HD
ENDBRANCH  14  15
ENDBRANCH  13  14
ENDBRANCH   1  13
BRANCH   1  20
HETATM   20  N           1     -29.414  -8.211 -18.373  0.00  0.00    -0.066 N 
HETATM   21  H           1     -29.584  -9.235 -18.251  0.00  0.00     0.275 HD
HETATM   22  H           1     -30.002  -7.852 -19.158  0.00  0.00     0.275 HD
HETATM   23  H           1     -28.404  -8.048 -18.589  0.00  0.00     0.275 HD
ENDBRANCH   1  20
TORSDOF 9
ENDMDL
MODEL 8
REMARK VINA RESULT:      -5.7     12.809     14.836
REMARK  9 active torsions:
REMARK  status: ('A' for Active; 'I' for Inactive)
REMARK       I    between atoms: N_2  and  C_3 
REMARK    1  A    between atoms: C_3  and  C_18 
REMARK    2  A    between atoms: N_5  and  C_11 
REMARK       I    between atoms: N_5  and  C_8 
REMARK    3  A    between atoms: C_7  and  C_8 
REMARK    4  A    between atoms: C_7  and  C_17 
REMARK    5  A    between atoms: C_7  and  N_16 
REMARK    6  A    between atoms: O_9  and  C_12 
REMARK    7  A    between atoms: C_10  and  C_11 
REMARK    8  A    between atoms: C_11  and  C_12 
REMARK    9  A    between atoms: C_17  and  C_18 
ROOT
HETATM    1  C           1     -21.255  -5.887  -7.167  0.00  0.00     0.275 C 
ENDROOT
BRANCH   1   2
HETATM    2  C           1     -21.680  -4.694  -7.988  0.00  0.00     0.249 C 
HETATM    3  N           1     -21.741  -4.787  -9.353  0.00  0.00    -0.343 N 
HETATM    4  H           1     -21.500  -5.657  -9.811  0.00  0.00     0.163 HD
HETATM    5  O           1     -21.969  -3.656  -7.440  0.00  0.00    -0.271 OA
BRANCH   3   6
HETATM    6  C           1     -22.150  -3.641 -10.140  0.00  0.00     0.209 C 
BRANCH   6   7
HETATM    7  C           1     -23.507  -3.905 -10.744  0.00  0.00     0.198 C 
HETATM    8  O           1     -24.232  -2.949 -11.095  0.00  0.00    -0.646 OA
HETATM    9  O           1     -23.906  -5.080 -10.893  0.00  0.00    -0.646 OA
ENDBRANCH   6   7
BRANCH   6  10
HETATM   10  C           1     -21.136  -3.403 -11.252  0.00  0.00     0.200 C 
BRANCH  10  11
HETATM   11  O           1     -21.684  -3.805 -12.478  0.00  0.00    -0.398 OA
HETATM   12  H           1     -20.962  -4.009 -13.047  0.00  0.00     0.209 HD
ENDBRANCH  10  11
ENDBRANCH   6  10
ENDBRANCH   3   6
ENDBRANCH   1   2
BRANCH   1  13
HETATM   13  C           1     -21.481  -5.595  -5.690  0.00  0.00     0.052 C 
BRANCH  13  14
HETATM   14  C           1     -22.044  -6.835  -5.008  0.00  0.00     0.105 C 
BRANCH  14  15
HETATM   15  C           1     -21.630  -6.843  -3.556  0.00  0.00     0.215 C 
HETATM   16  O           1     -20.765  -7.597  -3.179  0.00  0.00    -0.274 OA
HETATM   17  N           1     -22.237  -5.996  -2.668  0.00  0.00    -0.370 N 
HETATM   18  H           1     -21.960  -6.001  -1.695  0.00  0.00     0.159 HD
HETATM   19  H           1     -22.962  -5.365  -2.985  0.00  0.00     0.159 HD
ENDBRANCH  14  15
ENDBRANCH  13  14
ENDBRANCH   1  13
BRANCH   1  20
HETATM   20  N           1     -19.799  -6.162  -7.406  0.00  0.00    -0.066 N 
HETATM   21  H           1     -19.240  -5.803  -6.599  0.00  0.00     0.275 HD
HETATM   22  H           1     -19.650  -7.192  -7.501  0.00  0.00     0.275 HD
HETATM   23  H           1     -19.494  -5.681  -8.282  0.00  0.00     0.275 HD
ENDBRANCH   1  20
TORSDOF 9
ENDMDL
MODEL 9
REMARK VINA RESULT:      -5.6     11.626     13.168
REMARK  9 active torsions:
REMARK  status: ('A' for Active; 'I' for Inactive)
REMARK       I    between atoms: N_2  and  C_3 
REMARK    1  A    between atoms: C_3  and  C_18 
REMARK    2  A    between atoms: N_5  and  C_11 
REMARK       I    between atoms: N_5  and  C_8 
REMARK    3  A    between atoms: C_7  and  C_8 
REMARK    4  A    between atoms: C_7  and  C_17 
REMARK    5  A    between atoms: C_7  and  N_16 
REMARK    6  A    between atoms: O_9  and  C_12 
REMARK    7  A    between atoms: C_10  and  C_11 
REMARK    8  A    between atoms: C_11  and  C_12 
REMARK    9  A    between atoms: C_17  and  C_18 
ROOT
HETATM    1  C           1     -23.005  -3.417  -9.274  0.00  0.00     0.275 C 
ENDROOT
BRANCH   1   2
HETATM    2  C           1     -22.759  -3.860 -10.696  0.00  0.00     0.249 C 
HETATM    3  N           1     -23.559  -3.398 -11.706  0.00  0.00    -0.343 N 
HETATM    4  H           1     -24.317  -2.760 -11.500  0.00  0.00     0.163 HD
HETATM    5  O           1     -21.853  -4.621 -10.942  0.00  0.00    -0.271 OA
BRANCH   3   6
HETATM    6  C           1     -23.322  -3.825 -13.071  0.00  0.00     0.209 C 
BRANCH   6   7
HETATM    7  C           1     -23.523  -2.656 -14.004  0.00  0.00     0.198 C 
HETATM    8  O           1     -22.766  -2.504 -14.988  0.00  0.00    -0.646 OA
HETATM    9  O           1     -24.445  -1.840 -13.794  0.00  0.00    -0.646 OA
ENDBRANCH   6   7
BRANCH   6  10
HETATM   10  C           1     -24.298  -4.937 -13.432  0.00  0.00     0.200 C 
BRANCH  10  11
HETATM   11  O           1     -24.537  -4.920 -14.813  0.00  0.00    -0.398 OA
HETATM   12  H           1     -25.164  -4.235 -14.974  0.00  0.00     0.209 HD
ENDBRANCH  10  11
ENDBRANCH   6  10
ENDBRANCH   3   6
ENDBRANCH   1   2
BRANCH   1  13
HETATM   13  C           1     -22.411  -4.437  -8.313  0.00  0.00     0.052 C 
BRANCH  13  14
HETATM   14  C           1     -21.319  -3.775  -7.482  0.00  0.00     0.105 C 
BRANCH  14  15
HETATM   15  C           1     -20.528  -4.835  -6.755  0.00  0.00     0.215 C 
HETATM   16  O           1     -20.229  -4.677  -5.595  0.00  0.00    -0.274 OA
HETATM   17  N           1     -20.148  -5.975  -7.411  0.00  0.00    -0.370 N 
HETATM   18  H           1     -19.617  -6.686  -6.923  0.00  0.00     0.159 HD
HETATM   19  H           1     -20.398  -6.107  -8.382  0.00  0.00     0.159 HD
ENDBRANCH  14  15
ENDBRANCH  13  14
ENDBRANCH   1  13
BRANCH   1  20
HETATM   20  N           1     -24.483  -3.307  -9.036  0.00  0.00    -0.066 N 
HETATM   21  H           1     -24.690  -2.406  -8.548  0.00  0.00     0.275 HD
HETATM   22  H           1     -24.986  -3.331  -9.951  0.00  0.00     0.275 HD
HETATM   23  H           1     -24.799  -4.106  -8.441  0.00  0.00     0.275 HD
ENDBRANCH   1  20
TORSDOF 9
ENDMDL
