MODEL 1
REMARK VINA RESULT:      -6.5      0.000      0.000
REMARK  5 active torsions:
REMARK  status: ('A' for Active; 'I' for Inactive)
REMARK    1  A    between atoms: N_1  and  C_7 
REMARK    2  A    between atoms: C_6  and  C_7 
REMARK    3  A    between atoms: C_6  and  C_21 
REMARK    4  A    between atoms: C_7  and  C_10 
REMARK       I    between atoms: C_10  and  N_11 
REMARK    5  A    between atoms: C_13  and  C_14 
ROOT
HETATM    1  C           1     -36.478  -0.342 -11.041  0.00  0.00     0.280 C 
ENDROOT
BRANCH   1   2
HETATM    2  N           1     -37.462   0.413 -10.196  0.00  0.00    -0.066 N 
HETATM    3  H           1     -37.926   1.148 -10.775  0.00  0.00     0.275 HD
HETATM    4  H           1     -38.183  -0.249  -9.829  0.00  0.00     0.275 HD
HETATM    5  H           1     -36.962   0.863  -9.397  0.00  0.00     0.275 HD
ENDBRANCH   1   2
BRANCH   1   6
HETATM    6  C           1     -36.380  -1.779 -10.545  0.00  0.00     0.101 C 
BRANCH   6   7
HETATM    7  C           1     -35.110  -2.394 -11.041  0.00  0.00     0.028 A 
HETATM    8  C           1     -33.874  -2.202 -10.471  0.00  0.00     0.114 A 
HETATM    9  N           1     -33.012  -2.939 -11.235  0.00  0.00    -0.360 N 
HETATM   10  C           1     -33.746  -3.537 -12.219  0.00  0.00     0.180 A 
HETATM   11  H           1     -31.977  -3.029 -11.091  0.00  0.00     0.166 HD
HETATM   12  N           1     -35.019  -3.225 -12.128  0.00  0.00    -0.355 N 
ATOM     13  HN          1     -35.777  -3.536 -12.735  1.00  0.00     0.166 HD
ENDBRANCH   6   7
ENDBRANCH   1   6
BRANCH   1  14
HETATM   14  C           1     -36.941  -0.335 -12.477  0.00  0.00     0.251 C 
HETATM   15  O           1     -38.061  -0.695 -12.752  0.00  0.00    -0.271 OA
HETATM   16  N           1     -36.092   0.081 -13.468  0.00  0.00    -0.336 N 
HETATM   17  C           1     -34.716   0.547 -13.322  0.00  0.00     0.127 C 
HETATM   18  C           1     -36.366   0.153 -14.900  0.00  0.00     0.188 C 
HETATM   19  C           1     -34.624   1.713 -14.292  0.00  0.00     0.022 C 
HETATM   20  C           1     -35.712   1.457 -15.328  0.00  0.00     0.038 C 
BRANCH  18  21
HETATM   21  C           1     -35.751  -1.019 -15.625  0.00  0.00     0.196 C 
HETATM   22  O           1     -35.219  -1.945 -14.975  0.00  0.00    -0.646 OA
HETATM   23  O           1     -35.773  -1.064 -16.874  0.00  0.00    -0.646 OA
ENDBRANCH  18  21
ENDBRANCH   1  14
TORSDOF 5
ENDMDL
MODEL 2
REMARK VINA RESULT:      -6.2     13.133     15.301
REMARK  5 active torsions:
REMARK  status: ('A' for Active; 'I' for Inactive)
REMARK    1  A    between atoms: N_1  and  C_7 
REMARK    2  A    between atoms: C_6  and  C_7 
REMARK    3  A    between atoms: C_6  and  C_21 
REMARK    4  A    between atoms: C_7  and  C_10 
REMARK       I    between atoms: C_10  and  N_11 
REMARK    5  A    between atoms: C_13  and  C_14 
ROOT
HETATM    1  C           1     -21.606  -4.178  -6.989  0.00  0.00     0.280 C 
ENDROOT
BRANCH   1   2
HETATM    2  N           1     -22.897  -4.795  -6.538  0.00  0.00    -0.066 N 
HETATM    3  H           1     -23.696  -4.204  -6.861  0.00  0.00     0.275 HD
HETATM    4  H           1     -22.986  -5.752  -6.946  0.00  0.00     0.275 HD
HETATM    5  H           1     -22.908  -4.856  -5.495  0.00  0.00     0.275 HD
ENDBRANCH   1   2
BRANCH   1   6
HETATM    6  C           1     -20.472  -4.667  -6.097  0.00  0.00     0.101 C 
BRANCH   6   7
HETATM    7  C           1     -20.838  -5.990  -5.503  0.00  0.00     0.028 A 
HETATM    8  C           1     -21.264  -6.175  -4.209  0.00  0.00     0.114 A 
HETATM    9  N           1     -21.483  -7.521  -4.097  0.00  0.00    -0.360 N 
HETATM   10  C           1     -21.187  -8.086  -5.304  0.00  0.00     0.180 A 
HETATM   11  H           1     -21.819  -8.025  -3.240  0.00  0.00     0.166 HD
HETATM   12  N           1     -20.794  -7.185  -6.174  0.00  0.00    -0.355 N 
ATOM     13  HN          1     -20.515  -7.341  -7.143  1.00  0.00     0.166 HD
ENDBRANCH   6   7
ENDBRANCH   1   6
BRANCH   1  14
HETATM   14  C           1     -21.331  -4.579  -8.418  0.00  0.00     0.251 C 
HETATM   15  O           1     -20.340  -5.217  -8.686  0.00  0.00    -0.271 OA
HETATM   16  N           1     -22.205  -4.222  -9.409  0.00  0.00    -0.336 N 
HETATM   17  C           1     -23.442  -3.459  -9.271  0.00  0.00     0.127 C 
HETATM   18  C           1     -22.101  -4.519 -10.835  0.00  0.00     0.188 C 
HETATM   19  C           1     -24.408  -4.162 -10.211  0.00  0.00     0.022 C 
HETATM   20  C           1     -23.526  -4.863 -11.237  0.00  0.00     0.038 C 
BRANCH  18  21
HETATM   21  C           1     -21.603  -3.317 -11.600  0.00  0.00     0.196 C 
HETATM   22  O           1     -22.287  -2.842 -12.531  0.00  0.00    -0.646 OA
HETATM   23  O           1     -20.505  -2.798 -11.302  0.00  0.00    -0.646 OA
ENDBRANCH  18  21
ENDBRANCH   1  14
TORSDOF 5
ENDMDL
MODEL 3
REMARK VINA RESULT:      -6.1     14.037     16.823
REMARK  5 active torsions:
REMARK  status: ('A' for Active; 'I' for Inactive)
REMARK    1  A    between atoms: N_1  and  C_7 
REMARK    2  A    between atoms: C_6  and  C_7 
REMARK    3  A    between atoms: C_6  and  C_21 
REMARK    4  A    between atoms: C_7  and  C_10 
REMARK       I    between atoms: C_10  and  N_11 
REMARK    5  A    between atoms: C_13  and  C_14 
ROOT
HETATM    1  C           1     -21.624  -5.005  -7.209  0.00  0.00     0.280 C 
ENDROOT
BRANCH   1   2
HETATM    2  N           1     -21.056  -3.676  -6.808  0.00  0.00    -0.066 N 
HETATM    3  H           1     -20.336  -3.815  -6.063  0.00  0.00     0.275 HD
HETATM    4  H           1     -20.613  -3.223  -7.638  0.00  0.00     0.275 HD
HETATM    5  H           1     -21.821  -3.066  -6.443  0.00  0.00     0.275 HD
ENDBRANCH   1   2
BRANCH   1   6
HETATM    6  C           1     -21.615  -5.123  -8.728  0.00  0.00     0.101 C 
BRANCH   6   7
HETATM    7  C           1     -22.765  -4.353  -9.295  0.00  0.00     0.028 A 
HETATM    8  C           1     -22.837  -3.895 -10.590  0.00  0.00     0.114 A 
HETATM    9  N           1     -24.043  -3.255 -10.673  0.00  0.00    -0.360 N 
HETATM   10  C           1     -24.642  -3.349  -9.449  0.00  0.00     0.180 A 
HETATM   11  H           1     -24.435  -2.780 -11.522  0.00  0.00     0.166 HD
HETATM   12  N           1     -23.893  -4.008  -8.595  0.00  0.00    -0.355 N 
ATOM     13  HN          1     -24.105  -4.217  -7.620  1.00  0.00     0.166 HD
ENDBRANCH   6   7
ENDBRANCH   1   6
BRANCH   1  14
HETATM   14  C           1     -20.786  -6.110  -6.613  0.00  0.00     0.251 C 
HETATM   15  O           1     -19.773  -6.465  -7.168  0.00  0.00    -0.271 OA
HETATM   16  N           1     -21.172  -6.707  -5.444  0.00  0.00    -0.336 N 
HETATM   17  C           1     -22.356  -6.409  -4.642  0.00  0.00     0.127 C 
HETATM   18  C           1     -20.491  -7.783  -4.728  0.00  0.00     0.188 C 
HETATM   19  C           1     -21.851  -6.485  -3.210  0.00  0.00     0.022 C 
HETATM   20  C           1     -20.623  -7.385  -3.268  0.00  0.00     0.038 C 
BRANCH  18  21
HETATM   21  C           1     -21.164  -9.109  -4.985  0.00  0.00     0.196 C 
HETATM   22  O           1     -21.689  -9.737  -4.040  0.00  0.00    -0.646 OA
HETATM   23  O           1     -21.196  -9.580  -6.143  0.00  0.00    -0.646 OA
ENDBRANCH  18  21
ENDBRANCH   1  14
TORSDOF 5
ENDMDL
MODEL 4
REMARK VINA RESULT:      -5.9      2.299      3.323
REMARK  5 active torsions:
REMARK  status: ('A' for Active; 'I' for Inactive)
REMARK    1  A    between atoms: N_1  and  C_7 
REMARK    2  A    between atoms: C_6  and  C_7 
REMARK    3  A    between atoms: C_6  and  C_21 
REMARK    4  A    between atoms: C_7  and  C_10 
REMARK       I    between atoms: C_10  and  N_11 
REMARK    5  A    between atoms: C_13  and  C_14 
ROOT
HETATM    1  C           1     -34.064  -2.930 -11.600  0.00  0.00     0.280 C 
ENDROOT
BRANCH   1   2
HETATM    2  N           1     -33.642  -1.774 -10.741  0.00  0.00    -0.066 N 
HETATM    3  H           1     -33.186  -2.134  -9.872  0.00  0.00     0.275 HD
HETATM    4  H           1     -32.965  -1.179 -11.269  0.00  0.00     0.275 HD
HETATM    5  H           1     -34.481  -1.206 -10.485  0.00  0.00     0.275 HD
ENDBRANCH   1   2
BRANCH   1   6
HETATM    6  C           1     -35.110  -3.755 -10.862  0.00  0.00     0.101 C 
BRANCH   6   7
HETATM    7  C           1     -34.623  -5.161 -10.712  0.00  0.00     0.028 A 
HETATM    8  C           1     -33.433  -5.634 -11.213  0.00  0.00     0.114 A 
HETATM    9  N           1     -33.394  -6.952 -10.849  0.00  0.00    -0.360 N 
HETATM   10  C           1     -34.539  -7.220 -10.156  0.00  0.00     0.180 A 
HETATM   11  H           1     -32.624  -7.632 -11.064  0.00  0.00     0.166 HD
HETATM   12  N           1     -35.303  -6.157 -10.057  0.00  0.00    -0.355 N 
ATOM     13  HN          1     -36.208  -6.086  -9.592  1.00  0.00     0.166 HD
ENDBRANCH   6   7
ENDBRANCH   1   6
BRANCH   1  14
HETATM   14  C           1     -34.650  -2.409 -12.889  0.00  0.00     0.251 C 
HETATM   15  O           1     -34.443  -2.993 -13.927  0.00  0.00    -0.271 OA
HETATM   16  N           1     -35.417  -1.275 -12.883  0.00  0.00    -0.336 N 
HETATM   17  C           1     -35.770  -0.446 -11.734  0.00  0.00     0.127 C 
HETATM   18  C           1     -36.060  -0.631 -14.026  0.00  0.00     0.188 C 
HETATM   19  C           1     -37.226  -0.086 -11.980  0.00  0.00     0.022 C 
HETATM   20  C           1     -37.418  -0.212 -13.487  0.00  0.00     0.038 C 
BRANCH  18  21
HETATM   21  C           1     -35.268   0.570 -14.480  0.00  0.00     0.196 C 
HETATM   22  O           1     -35.745   1.344 -15.339  0.00  0.00    -0.646 OA
HETATM   23  O           1     -34.137   0.792 -13.998  0.00  0.00    -0.646 OA
ENDBRANCH  18  21
ENDBRANCH   1  14
TORSDOF 5
ENDMDL
MODEL 5
REMARK VINA RESULT:      -5.8     12.763     15.276
REMARK  5 active torsions:
REMARK  status: ('A' for Active; 'I' for Inactive)
REMARK    1  A    between atoms: N_1  and  C_7 
REMARK    2  A    between atoms: C_6  and  C_7 
REMARK    3  A    between atoms: C_6  and  C_21 
REMARK    4  A    between atoms: C_7  and  C_10 
REMARK       I    between atoms: C_10  and  N_11 
REMARK    5  A    between atoms: C_13  and  C_14 
ROOT
HETATM    1  C           1     -22.285  -3.298 -10.050  0.00  0.00     0.280 C 
ENDROOT
BRANCH   1   2
HETATM    2  N           1     -21.303  -3.419 -11.177  0.00  0.00    -0.066 N 
HETATM    3  H           1     -20.338  -3.523 -10.789  0.00  0.00     0.275 HD
HETATM    4  H           1     -21.538  -4.259 -11.753  0.00  0.00     0.275 HD
HETATM    5  H           1     -21.349  -2.563 -11.773  0.00  0.00     0.275 HD
ENDBRANCH   1   2
BRANCH   1   6
HETATM    6  C           1     -23.681  -3.069 -10.615  0.00  0.00     0.101 C 
BRANCH   6   7
HETATM    7  C           1     -23.625  -3.098 -12.110  0.00  0.00     0.028 A 
HETATM    8  C           1     -23.860  -4.213 -12.880  0.00  0.00     0.114 A 
HETATM    9  N           1     -23.705  -3.792 -14.172  0.00  0.00    -0.360 N 
HETATM   10  C           1     -23.387  -2.464 -14.134  0.00  0.00     0.180 A 
HETATM   11  H           1     -23.811  -4.381 -15.033  0.00  0.00     0.166 HD
HETATM   12  N           1     -23.331  -2.017 -12.901  0.00  0.00    -0.355 N 
ATOM     13  HN          1     -23.115  -1.068 -12.596  1.00  0.00     0.166 HD
ENDBRANCH   6   7
ENDBRANCH   1   6
BRANCH   1  14
HETATM   14  C           1     -22.273  -4.568  -9.235  0.00  0.00     0.251 C 
HETATM   15  O           1     -23.033  -5.467  -9.507  0.00  0.00    -0.271 OA
HETATM   16  N           1     -21.401  -4.702  -8.189  0.00  0.00    -0.336 N 
HETATM   17  C           1     -20.419  -3.728  -7.719  0.00  0.00     0.127 C 
HETATM   18  C           1     -21.251  -5.850  -7.298  0.00  0.00     0.188 C 
HETATM   19  C           1     -19.201  -4.574  -7.387  0.00  0.00     0.022 C 
HETATM   20  C           1     -19.747  -5.970  -7.114  0.00  0.00     0.038 C 
BRANCH  18  21
HETATM   21  C           1     -21.935  -5.597  -5.977  0.00  0.00     0.196 C 
HETATM   22  O           1     -21.297  -5.724  -4.909  0.00  0.00    -0.646 OA
HETATM   23  O           1     -23.139  -5.262  -5.950  0.00  0.00    -0.646 OA
ENDBRANCH  18  21
ENDBRANCH   1  14
TORSDOF 5
ENDMDL
MODEL 6
REMARK VINA RESULT:      -5.8      2.773      4.431
REMARK  5 active torsions:
REMARK  status: ('A' for Active; 'I' for Inactive)
REMARK    1  A    between atoms: N_1  and  C_7 
REMARK    2  A    between atoms: C_6  and  C_7 
REMARK    3  A    between atoms: C_6  and  C_21 
REMARK    4  A    between atoms: C_7  and  C_10 
REMARK       I    between atoms: C_10  and  N_11 
REMARK    5  A    between atoms: C_13  and  C_14 
ROOT
HETATM    1  C           1     -33.963  -4.038 -12.332  0.00  0.00     0.280 C 
ENDROOT
BRANCH   1   2
HETATM    2  N           1     -33.501  -3.992 -13.758  0.00  0.00    -0.066 N 
HETATM    3  H           1     -34.027  -4.702 -14.318  0.00  0.00     0.275 HD
HETATM    4  H           1     -33.678  -3.040 -14.150  0.00  0.00     0.275 HD
HETATM    5  H           1     -32.479  -4.204 -13.801  0.00  0.00     0.275 HD
ENDBRANCH   1   2
BRANCH   1   6
HETATM    6  C           1     -32.996  -4.884 -11.512  0.00  0.00     0.101 C 
BRANCH   6   7
HETATM    7  C           1     -33.748  -5.981 -10.828  0.00  0.00     0.028 A 
HETATM    8  C           1     -34.938  -5.815 -10.160  0.00  0.00     0.114 A 
HETATM    9  N           1     -35.262  -7.060  -9.697  0.00  0.00    -0.360 N 
HETATM   10  C           1     -34.274  -7.915 -10.095  0.00  0.00     0.180 A 
HETATM   11  H           1     -36.114  -7.312  -9.138  0.00  0.00     0.166 HD
HETATM   12  N           1     -33.345  -7.291 -10.780  0.00  0.00    -0.355 N 
ATOM     13  HN          1     -32.503  -7.695 -11.190  1.00  0.00     0.166 HD
ENDBRANCH   6   7
ENDBRANCH   1   6
BRANCH   1  14
HETATM   14  C           1     -34.006  -2.637 -11.773  0.00  0.00     0.251 C 
HETATM   15  O           1     -33.374  -2.364 -10.779  0.00  0.00    -0.271 OA
HETATM   16  N           1     -34.758  -1.676 -12.392  0.00  0.00    -0.336 N 
HETATM   17  C           1     -35.578  -1.824 -13.591  0.00  0.00     0.127 C 
HETATM   18  C           1     -34.917  -0.279 -11.995  0.00  0.00     0.188 C 
HETATM   19  C           1     -35.326  -0.539 -14.363  0.00  0.00     0.022 C 
HETATM   20  C           1     -34.888   0.476 -13.314  0.00  0.00     0.038 C 
BRANCH  18  21
HETATM   21  C           1     -36.232  -0.069 -11.285  0.00  0.00     0.196 C 
HETATM   22  O           1     -37.222   0.360 -11.918  0.00  0.00    -0.646 OA
HETATM   23  O           1     -36.332  -0.322 -10.066  0.00  0.00    -0.646 OA
ENDBRANCH  18  21
ENDBRANCH   1  14
TORSDOF 5
ENDMDL
MODEL 7
REMARK VINA RESULT:      -5.7     14.177     16.964
REMARK  5 active torsions:
REMARK  status: ('A' for Active; 'I' for Inactive)
REMARK    1  A    between atoms: N_1  and  C_7 
REMARK    2  A    between atoms: C_6  and  C_7 
REMARK    3  A    between atoms: C_6  and  C_21 
REMARK    4  A    between atoms: C_7  and  C_10 
REMARK       I    between atoms: C_10  and  N_11 
REMARK    5  A    between atoms: C_13  and  C_14 
ROOT
HETATM    1  C           1     -20.989  -5.027  -6.984  0.00  0.00     0.280 C 
ENDROOT
BRANCH   1   2
HETATM    2  N           1     -20.966  -5.860  -8.231  0.00  0.00    -0.066 N 
HETATM    3  H           1     -21.171  -6.856  -7.989  0.00  0.00     0.275 HD
HETATM    4  H           1     -21.691  -5.509  -8.897  0.00  0.00     0.275 HD
HETATM    5  H           1     -20.023  -5.797  -8.675  0.00  0.00     0.275 HD
ENDBRANCH   1   2
BRANCH   1   6
HETATM    6  C           1     -21.557  -3.650  -7.305  0.00  0.00     0.101 C 
BRANCH   6   7
HETATM    7  C           1     -22.491  -3.754  -8.469  0.00  0.00     0.028 A 
HETATM    8  C           1     -22.113  -3.643  -9.786  0.00  0.00     0.114 A 
HETATM    9  N           1     -23.269  -3.799 -10.501  0.00  0.00    -0.360 N 
HETATM   10  C           1     -24.281  -3.994  -9.606  0.00  0.00     0.180 A 
HETATM   11  H           1     -23.360  -3.774 -11.546  0.00  0.00     0.166 HD
HETATM   12  N           1     -23.841  -3.971  -8.369  0.00  0.00    -0.355 N 
ATOM     13  HN          1     -24.388  -4.091  -7.516  1.00  0.00     0.166 HD
ENDBRANCH   6   7
ENDBRANCH   1   6
BRANCH   1  14
HETATM   14  C           1     -21.855  -5.700  -5.947  0.00  0.00     0.251 C 
HETATM   15  O           1     -23.008  -5.365  -5.813  0.00  0.00    -0.271 OA
HETATM   16  N           1     -21.334  -6.691  -5.159  0.00  0.00    -0.336 N 
HETATM   17  C           1     -19.974  -7.222  -5.181  0.00  0.00     0.127 C 
HETATM   18  C           1     -22.018  -7.446  -4.113  0.00  0.00     0.188 C 
HETATM   19  C           1     -20.166  -8.718  -5.003  0.00  0.00     0.022 C 
HETATM   20  C           1     -21.513  -8.867  -4.304  0.00  0.00     0.038 C 
BRANCH  18  21
HETATM   21  C           1     -21.649  -6.924  -2.745  0.00  0.00     0.196 C 
HETATM   22  O           1     -20.954  -7.624  -1.977  0.00  0.00    -0.646 OA
HETATM   23  O           1     -22.038  -5.794  -2.382  0.00  0.00    -0.646 OA
ENDBRANCH  18  21
ENDBRANCH   1  14
TORSDOF 5
ENDMDL
MODEL 8
REMARK VINA RESULT:      -5.5     11.928     14.303
REMARK  5 active torsions:
REMARK  status: ('A' for Active; 'I' for Inactive)
REMARK    1  A    between atoms: N_1  and  C_7 
REMARK    2  A    between atoms: C_6  and  C_7 
REMARK    3  A    between atoms: C_6  and  C_21 
REMARK    4  A    between atoms: C_7  and  C_10 
REMARK       I    between atoms: C_10  and  N_11 
REMARK    5  A    between atoms: C_13  and  C_14 
ROOT
HETATM    1  C           1     -22.746  -3.153 -12.409  0.00  0.00     0.280 C 
ENDROOT
BRANCH   1   2
HETATM    2  N           1     -21.691  -3.647 -13.355  0.00  0.00    -0.066 N 
HETATM    3  H           1     -21.238  -2.832 -13.828  0.00  0.00     0.275 HD
HETATM    4  H           1     -20.971  -4.183 -12.821  0.00  0.00     0.275 HD
HETATM    5  H           1     -22.129  -4.267 -14.072  0.00  0.00     0.275 HD
ENDBRANCH   1   2
BRANCH   1   6
HETATM    6  C           1     -24.052  -2.949 -13.168  0.00  0.00     0.101 C 
BRANCH   6   7
HETATM    7  C           1     -23.858  -1.909 -14.225  0.00  0.00     0.028 A 
HETATM    8  C           1     -22.870  -1.939 -15.181  0.00  0.00     0.114 A 
HETATM    9  N           1     -23.064  -0.810 -15.927  0.00  0.00    -0.360 N 
HETATM   10  C           1     -24.141  -0.153 -15.405  0.00  0.00     0.180 A 
HETATM   11  H           1     -22.490  -0.505 -16.751  0.00  0.00     0.166 HD
HETATM   12  N           1     -24.642  -0.793 -14.374  0.00  0.00    -0.355 N 
ATOM     13  HN          1     -25.444  -0.520 -13.806  1.00  0.00     0.166 HD
ENDBRANCH   6   7
ENDBRANCH   1   6
BRANCH   1  14
HETATM   14  C           1     -22.954  -4.169 -11.313  0.00  0.00     0.251 C 
HETATM   15  O           1     -23.813  -5.011 -11.425  0.00  0.00    -0.271 OA
HETATM   16  N           1     -22.167  -4.137 -10.193  0.00  0.00    -0.336 N 
HETATM   17  C           1     -21.089  -3.200  -9.890  0.00  0.00     0.127 C 
HETATM   18  C           1     -22.225  -5.033  -9.041  0.00  0.00     0.188 C 
HETATM   19  C           1     -20.018  -4.072  -9.257  0.00  0.00     0.022 C 
HETATM   20  C           1     -20.765  -5.280  -8.702  0.00  0.00     0.038 C 
BRANCH  18  21
HETATM   21  C           1     -22.941  -4.376  -7.886  0.00  0.00     0.196 C 
HETATM   22  O           1     -22.400  -4.334  -6.759  0.00  0.00    -0.646 OA
HETATM   23  O           1     -24.073  -3.874  -8.055  0.00  0.00    -0.646 OA
ENDBRANCH  18  21
ENDBRANCH   1  14
TORSDOF 5
ENDMDL
MODEL 9
REMARK VINA RESULT:      -5.4     15.376     18.241
REMARK  5 active torsions:
REMARK  status: ('A' for Active; 'I' for Inactive)
REMARK    1  A    between atoms: N_1  and  C_7 
REMARK    2  A    between atoms: C_6  and  C_7 
REMARK    3  A    between atoms: C_6  and  C_21 
REMARK    4  A    between atoms: C_7  and  C_10 
REMARK       I    between atoms: C_10  and  N_11 
REMARK    5  A    between atoms: C_13  and  C_14 
ROOT
HETATM    1  C           1     -20.460  -6.265  -5.451  0.00  0.00     0.280 C 
ENDROOT
BRANCH   1   2
HETATM    2  N           1     -20.666  -6.917  -6.786  0.00  0.00    -0.066 N 
HETATM    3  H           1     -19.740  -7.177  -7.194  0.00  0.00     0.275 HD
HETATM    4  H           1     -21.246  -7.778  -6.666  0.00  0.00     0.275 HD
HETATM    5  H           1     -21.155  -6.253  -7.427  0.00  0.00     0.275 HD
ENDBRANCH   1   2
BRANCH   1   6
HETATM    6  C           1     -20.516  -4.751  -5.612  0.00  0.00     0.101 C 
BRANCH   6   7
HETATM    7  C           1     -21.169  -4.411  -6.914  0.00  0.00     0.028 A 
HETATM    8  C           1     -20.494  -4.129  -8.078  0.00  0.00     0.114 A 
HETATM    9  N           1     -21.470  -3.879  -9.003  0.00  0.00    -0.360 N 
HETATM   10  C           1     -22.674  -4.017  -8.375  0.00  0.00     0.180 A 
HETATM   11  H           1     -21.319  -3.627 -10.011  0.00  0.00     0.166 HD
HETATM   12  N           1     -22.525  -4.338  -7.111  0.00  0.00    -0.355 N 
ATOM     13  HN          1     -23.260  -4.500  -6.423  1.00  0.00     0.166 HD
ENDBRANCH   6   7
ENDBRANCH   1   6
BRANCH   1  14
HETATM   14  C           1     -21.544  -6.711  -4.501  0.00  0.00     0.251 C 
HETATM   15  O           1     -22.683  -6.342  -4.668  0.00  0.00    -0.271 OA
HETATM   16  N           1     -21.238  -7.535  -3.451  0.00  0.00    -0.336 N 
HETATM   17  C           1     -19.929  -8.076  -3.098  0.00  0.00     0.127 C 
HETATM   18  C           1     -22.151  -8.062  -2.440  0.00  0.00     0.188 C 
HETATM   19  C           1     -20.228  -9.506  -2.681  0.00  0.00     0.022 C 
HETATM   20  C           1     -21.691  -9.498  -2.253  0.00  0.00     0.038 C 
BRANCH  18  21
HETATM   21  C           1     -22.029  -7.287  -1.151  0.00  0.00     0.196 C 
HETATM   22  O           1     -22.299  -6.067  -1.128  0.00  0.00    -0.646 OA
HETATM   23  O           1     -21.659  -7.865  -0.107  0.00  0.00    -0.646 OA
ENDBRANCH  18  21
ENDBRANCH   1  14
TORSDOF 5
ENDMDL
