MODEL 1
REMARK VINA RESULT:      -5.9      0.000      0.000
REMARK  8 active torsions:
REMARK  status: ('A' for Active; 'I' for Inactive)
REMARK    1  A    between atoms: O_3  and  C_20 
REMARK    2  A    between atoms: C_5  and  C_14 
REMARK    3  A    between atoms: C_5  and  C_7 
REMARK    4  A    between atoms: C_7  and  C_11 
REMARK    5  A    between atoms: C_7  and  N_15 
REMARK       I    between atoms: C_13  and  N_15 
REMARK    6  A    between atoms: C_13  and  C_17 
REMARK    7  A    between atoms: N_16  and  C_17 
REMARK    8  A    between atoms: C_17  and  C_20 
ROOT
HETATM    1  H           1     -34.801  -0.125 -12.266  0.00  0.00     0.163 HD
HETATM    2  O           1     -37.614  -0.759 -13.501  0.00  0.00    -0.271 OA
HETATM    3  C           1     -36.488  -0.325 -13.448  0.00  0.00     0.251 C 
HETATM    4  N           1     -35.744  -0.489 -12.310  0.00  0.00    -0.344 N 
ENDROOT
BRANCH   3   5
HETATM    5  C           1     -35.902   0.398 -14.635  0.00  0.00     0.297 C 
BRANCH   5   6
HETATM    6  N           1     -34.681   1.157 -14.205  0.00  0.00    -0.064 N 
HETATM    7  H           1     -34.665   2.088 -14.677  0.00  0.00     0.275 HD
HETATM    8  H           1     -34.703   1.293 -13.169  0.00  0.00     0.275 HD
HETATM    9  H           1     -33.826   0.618 -14.468  0.00  0.00     0.275 HD
ENDBRANCH   5   6
BRANCH   5  10
HETATM   10  C           1     -35.519  -0.612 -15.708  0.00  0.00     0.206 C 
BRANCH  10  11
HETATM   11  O           1     -35.188  -1.833 -15.105  0.00  0.00    -0.398 OA
HETATM   12  H           1     -35.985  -2.331 -15.038  0.00  0.00     0.209 HD
ENDBRANCH  10  11
ENDBRANCH   5  10
ENDBRANCH   3   5
BRANCH   4  13
HETATM   13  C           1     -36.307  -1.183 -11.169  0.00  0.00     0.189 C 
BRANCH  13  14
HETATM   14  C           1     -35.268  -2.134 -10.591  0.00  0.00     0.014 C 
HETATM   15  C           1     -35.698  -3.573 -10.847  0.00  0.00     0.012 C 
BRANCH  14  16
HETATM   16  C           1     -33.921  -1.879 -11.257  0.00  0.00     0.002 C 
HETATM   17  C           1     -33.148  -3.187 -11.358  0.00  0.00     0.005 C 
ENDBRANCH  14  16
ENDBRANCH  13  14
BRANCH  13  18
HETATM   18  C           1     -36.711  -0.178 -10.118  0.00  0.00     0.197 C 
HETATM   19  O           1     -37.589   0.674 -10.373  0.00  0.00    -0.646 OA
HETATM   20  O           1     -36.167  -0.198  -8.993  0.00  0.00    -0.646 OA
ENDBRANCH  13  18
ENDBRANCH   4  13
TORSDOF 8
ENDMDL
MODEL 2
REMARK VINA RESULT:      -5.5      1.891      2.150
REMARK  8 active torsions:
REMARK  status: ('A' for Active; 'I' for Inactive)
REMARK    1  A    between atoms: O_3  and  C_20 
REMARK    2  A    between atoms: C_5  and  C_14 
REMARK    3  A    between atoms: C_5  and  C_7 
REMARK    4  A    between atoms: C_7  and  C_11 
REMARK    5  A    between atoms: C_7  and  N_15 
REMARK       I    between atoms: C_13  and  N_15 
REMARK    6  A    between atoms: C_13  and  C_17 
REMARK    7  A    between atoms: N_16  and  C_17 
REMARK    8  A    between atoms: C_17  and  C_20 
ROOT
HETATM    1  H           1     -34.019  -1.115 -14.013  0.00  0.00     0.163 HD
HETATM    2  O           1     -37.142  -0.939 -14.257  0.00  0.00    -0.271 OA
HETATM    3  C           1     -35.985  -0.798 -14.576  0.00  0.00     0.251 C 
HETATM    4  N           1     -34.988  -1.233 -13.745  0.00  0.00    -0.344 N 
ENDROOT
BRANCH   3   5
HETATM    5  C           1     -35.640  -0.141 -15.890  0.00  0.00     0.297 C 
BRANCH   5   6
HETATM    6  N           1     -36.655  -0.530 -16.924  0.00  0.00    -0.064 N 
HETATM    7  H           1     -37.366   0.229 -17.017  0.00  0.00     0.275 HD
HETATM    8  H           1     -36.179  -0.674 -17.842  0.00  0.00     0.275 HD
HETATM    9  H           1     -37.127  -1.415 -16.633  0.00  0.00     0.275 HD
ENDBRANCH   5   6
BRANCH   5  10
HETATM   10  C           1     -35.644   1.372 -15.719  0.00  0.00     0.206 C 
BRANCH  10  11
HETATM   11  O           1     -35.378   1.692 -14.380  0.00  0.00    -0.398 OA
HETATM   12  H           1     -34.809   2.443 -14.386  0.00  0.00     0.209 HD
ENDBRANCH  10  11
ENDBRANCH   5  10
ENDBRANCH   3   5
BRANCH   4  13
HETATM   13  C           1     -35.320  -1.864 -12.483  0.00  0.00     0.189 C 
BRANCH  13  14
HETATM   14  C           1     -34.056  -2.434 -11.853  0.00  0.00     0.014 C 
HETATM   15  C           1     -34.339  -2.818 -10.406  0.00  0.00     0.012 C 
BRANCH  14  16
HETATM   16  C           1     -33.614  -3.668 -12.630  0.00  0.00     0.002 C 
HETATM   17  C           1     -32.730  -4.537 -11.745  0.00  0.00     0.005 C 
ENDBRANCH  14  16
ENDBRANCH  13  14
BRANCH  13  18
HETATM   18  C           1     -35.928  -0.842 -11.555  0.00  0.00     0.197 C 
HETATM   19  O           1     -35.399   0.285 -11.433  0.00  0.00    -0.646 OA
HETATM   20  O           1     -36.960  -1.120 -10.908  0.00  0.00    -0.646 OA
ENDBRANCH  13  18
ENDBRANCH   4  13
TORSDOF 8
ENDMDL
MODEL 3
REMARK VINA RESULT:      -5.1      2.466      3.363
REMARK  8 active torsions:
REMARK  status: ('A' for Active; 'I' for Inactive)
REMARK    1  A    between atoms: O_3  and  C_20 
REMARK    2  A    between atoms: C_5  and  C_14 
REMARK    3  A    between atoms: C_5  and  C_7 
REMARK    4  A    between atoms: C_7  and  C_11 
REMARK    5  A    between atoms: C_7  and  N_15 
REMARK       I    between atoms: C_13  and  N_15 
REMARK    6  A    between atoms: C_13  and  C_17 
REMARK    7  A    between atoms: N_16  and  C_17 
REMARK    8  A    between atoms: C_17  and  C_20 
ROOT
HETATM    1  H           1     -36.783  -1.669 -13.449  0.00  0.00     0.163 HD
HETATM    2  O           1     -34.436   0.203 -14.358  0.00  0.00    -0.271 OA
HETATM    3  C           1     -35.554  -0.252 -14.324  0.00  0.00     0.251 C 
HETATM    4  N           1     -35.846  -1.287 -13.477  0.00  0.00    -0.344 N 
ENDROOT
BRANCH   3   5
HETATM    5  C           1     -36.629   0.321 -15.215  0.00  0.00     0.297 C 
BRANCH   5   6
HETATM    6  N           1     -36.158   1.624 -15.790  0.00  0.00    -0.064 N 
HETATM    7  H           1     -35.376   1.448 -16.459  0.00  0.00     0.275 HD
HETATM    8  H           1     -36.948   2.089 -16.292  0.00  0.00     0.275 HD
HETATM    9  H           1     -35.823   2.243 -15.018  0.00  0.00     0.275 HD
ENDBRANCH   5   6
BRANCH   5  10
HETATM   10  C           1     -36.925  -0.655 -16.346  0.00  0.00     0.206 C 
BRANCH  10  11
HETATM   11  O           1     -35.927  -1.638 -16.390  0.00  0.00    -0.398 OA
HETATM   12  H           1     -35.185  -1.256 -16.828  0.00  0.00     0.209 HD
ENDBRANCH  10  11
ENDBRANCH   5  10
ENDBRANCH   3   5
BRANCH   4  13
HETATM   13  C           1     -34.813  -1.837 -12.621  0.00  0.00     0.189 C 
BRANCH  13  14
HETATM   14  C           1     -35.344  -1.955 -11.199  0.00  0.00     0.014 C 
HETATM   15  C           1     -34.183  -1.864 -10.216  0.00  0.00     0.012 C 
BRANCH  14  16
HETATM   16  C           1     -36.328  -0.824 -10.929  0.00  0.00     0.002 C 
HETATM   17  C           1     -36.586  -0.720  -9.432  0.00  0.00     0.005 C 
ENDBRANCH  14  16
ENDBRANCH  13  14
BRANCH  13  18
HETATM   18  C           1     -34.417  -3.203 -13.126  0.00  0.00     0.197 C 
HETATM   19  O           1     -34.172  -4.122 -12.314  0.00  0.00    -0.646 OA
HETATM   20  O           1     -34.334  -3.416 -14.354  0.00  0.00    -0.646 OA
ENDBRANCH  13  18
ENDBRANCH   4  13
TORSDOF 8
ENDMDL
MODEL 4
REMARK VINA RESULT:      -4.8     24.552     25.966
REMARK  8 active torsions:
REMARK  status: ('A' for Active; 'I' for Inactive)
REMARK    1  A    between atoms: O_3  and  C_20 
REMARK    2  A    between atoms: C_5  and  C_14 
REMARK    3  A    between atoms: C_5  and  C_7 
REMARK    4  A    between atoms: C_7  and  C_11 
REMARK    5  A    between atoms: C_7  and  N_15 
REMARK       I    between atoms: C_13  and  N_15 
REMARK    6  A    between atoms: C_13  and  C_17 
REMARK    7  A    between atoms: N_16  and  C_17 
REMARK    8  A    between atoms: C_17  and  C_20 
ROOT
HETATM    1  H           1     -12.077   5.689 -19.045  0.00  0.00     0.163 HD
HETATM    2  O           1     -11.617   7.299 -21.698  0.00  0.00    -0.271 OA
HETATM    3  C           1     -11.528   7.028 -20.524  0.00  0.00     0.251 C 
HETATM    4  N           1     -12.151   5.915 -20.029  0.00  0.00    -0.344 N 
ENDROOT
BRANCH   3   5
HETATM    5  C           1     -10.731   7.920 -19.603  0.00  0.00     0.297 C 
BRANCH   5   6
HETATM    6  N           1      -9.540   8.459 -20.339  0.00  0.00    -0.064 N 
HETATM    7  H           1      -9.860   8.995 -21.176  0.00  0.00     0.275 HD
HETATM    8  H           1      -8.997   9.090 -19.708  0.00  0.00     0.275 HD
HETATM    9  H           1      -8.932   7.666 -20.645  0.00  0.00     0.275 HD
ENDBRANCH   5   6
BRANCH   5  10
HETATM   10  C           1     -11.603   9.076 -19.134  0.00  0.00     0.206 C 
BRANCH  10  11
HETATM   11  O           1     -12.946   8.677 -19.128  0.00  0.00    -0.398 OA
HETATM   12  H           1     -13.050   8.071 -18.414  0.00  0.00     0.209 HD
ENDBRANCH  10  11
ENDBRANCH   5  10
ENDBRANCH   3   5
BRANCH   4  13
HETATM   13  C           1     -12.917   5.059 -20.914  0.00  0.00     0.189 C 
BRANCH  13  14
HETATM   14  C           1     -12.583   3.602 -20.623  0.00  0.00     0.014 C 
HETATM   15  C           1     -13.425   2.701 -21.519  0.00  0.00     0.012 C 
BRANCH  14  16
HETATM   16  C           1     -11.105   3.355 -20.899  0.00  0.00     0.002 C 
HETATM   17  C           1     -10.791   3.714 -22.345  0.00  0.00     0.005 C 
ENDBRANCH  14  16
ENDBRANCH  13  14
BRANCH  13  18
HETATM   18  C           1     -14.391   5.293 -20.688  0.00  0.00     0.197 C 
HETATM   19  O           1     -14.859   5.253 -19.529  0.00  0.00    -0.646 OA
HETATM   20  O           1     -15.143   5.527 -21.658  0.00  0.00    -0.646 OA
ENDBRANCH  13  18
ENDBRANCH   4  13
TORSDOF 8
ENDMDL
MODEL 5
REMARK VINA RESULT:      -4.8     15.323     17.286
REMARK  8 active torsions:
REMARK  status: ('A' for Active; 'I' for Inactive)
REMARK    1  A    between atoms: O_3  and  C_20 
REMARK    2  A    between atoms: C_5  and  C_14 
REMARK    3  A    between atoms: C_5  and  C_7 
REMARK    4  A    between atoms: C_7  and  C_11 
REMARK    5  A    between atoms: C_7  and  N_15 
REMARK       I    between atoms: C_13  and  N_15 
REMARK    6  A    between atoms: C_13  and  C_17 
REMARK    7  A    between atoms: N_16  and  C_17 
REMARK    8  A    between atoms: C_17  and  C_20 
ROOT
HETATM    1  H           1     -22.429  -6.150  -5.520  0.00  0.00     0.163 HD
HETATM    2  O           1     -19.582  -4.877  -5.857  0.00  0.00    -0.271 OA
HETATM    3  C           1     -20.775  -5.003  -6.000  0.00  0.00     0.251 C 
HETATM    4  N           1     -21.430  -6.045  -5.400  0.00  0.00    -0.344 N 
ENDROOT
BRANCH   3   5
HETATM    5  C           1     -21.541  -4.013  -6.842  0.00  0.00     0.297 C 
BRANCH   5   6
HETATM    6  N           1     -20.656  -3.499  -7.938  0.00  0.00    -0.064 N 
HETATM    7  H           1     -21.165  -2.769  -8.484  0.00  0.00     0.275 HD
HETATM    8  H           1     -19.792  -3.084  -7.522  0.00  0.00     0.275 HD
HETATM    9  H           1     -20.393  -4.287  -8.572  0.00  0.00     0.275 HD
ENDBRANCH   5   6
BRANCH   5  10
HETATM   10  C           1     -22.757  -4.698  -7.451  0.00  0.00     0.206 C 
BRANCH  10  11
HETATM   11  O           1     -23.888  -4.429  -6.667  0.00  0.00    -0.398 OA
HETATM   12  H           1     -23.593  -3.938  -5.919  0.00  0.00     0.209 HD
ENDBRANCH  10  11
ENDBRANCH   5  10
ENDBRANCH   3   5
BRANCH   4  13
HETATM   13  C           1     -20.692  -6.995  -4.591  0.00  0.00     0.189 C 
BRANCH  13  14
HETATM   14  C           1     -21.544  -7.416  -3.401  0.00  0.00     0.014 C 
HETATM   15  C           1     -20.743  -8.361  -2.513  0.00  0.00     0.012 C 
BRANCH  14  16
HETATM   16  C           1     -21.942  -6.183  -2.601  0.00  0.00     0.002 C 
HETATM   17  C           1     -22.305  -6.593  -1.180  0.00  0.00     0.005 C 
ENDBRANCH  14  16
ENDBRANCH  13  14
BRANCH  13  18
HETATM   18  C           1     -20.356  -8.209  -5.424  0.00  0.00     0.197 C 
HETATM   19  O           1     -21.273  -8.926  -5.880  0.00  0.00    -0.646 OA
HETATM   20  O           1     -19.163  -8.496  -5.657  0.00  0.00    -0.646 OA
ENDBRANCH  13  18
ENDBRANCH   4  13
TORSDOF 8
ENDMDL
MODEL 6
REMARK VINA RESULT:      -4.8     10.385     12.167
REMARK  8 active torsions:
REMARK  status: ('A' for Active; 'I' for Inactive)
REMARK    1  A    between atoms: O_3  and  C_20 
REMARK    2  A    between atoms: C_5  and  C_14 
REMARK    3  A    between atoms: C_5  and  C_7 
REMARK    4  A    between atoms: C_7  and  C_11 
REMARK    5  A    between atoms: C_7  and  N_15 
REMARK       I    between atoms: C_13  and  N_15 
REMARK    6  A    between atoms: C_13  and  C_17 
REMARK    7  A    between atoms: N_16  and  C_17 
REMARK    8  A    between atoms: C_17  and  C_20 
ROOT
HETATM    1  H           1     -25.890  -7.247 -17.584  0.00  0.00     0.163 HD
HETATM    2  O           1     -27.172  -5.823 -20.067  0.00  0.00    -0.271 OA
HETATM    3  C           1     -26.363  -6.464 -19.440  0.00  0.00     0.251 C 
HETATM    4  N           1     -26.568  -6.710 -18.109  0.00  0.00    -0.344 N 
ENDROOT
BRANCH   3   5
HETATM    5  C           1     -25.125  -6.991 -20.123  0.00  0.00     0.297 C 
BRANCH   5   6
HETATM    6  N           1     -24.209  -7.594 -19.100  0.00  0.00    -0.064 N 
HETATM    7  H           1     -23.277  -7.125 -19.146  0.00  0.00     0.275 HD
HETATM    8  H           1     -24.617  -7.463 -18.147  0.00  0.00     0.275 HD
HETATM    9  H           1     -24.095  -8.614 -19.293  0.00  0.00     0.275 HD
ENDBRANCH   5   6
BRANCH   5  10
HETATM   10  C           1     -25.518  -8.052 -21.140  0.00  0.00     0.206 C 
BRANCH  10  11
HETATM   11  O           1     -26.848  -8.440 -20.923  0.00  0.00    -0.398 OA
HETATM   12  H           1     -26.833  -9.117 -20.268  0.00  0.00     0.209 HD
ENDBRANCH  10  11
ENDBRANCH   5  10
ENDBRANCH   3   5
BRANCH   4  13
HETATM   13  C           1     -27.757  -6.204 -17.453  0.00  0.00     0.189 C 
BRANCH  13  14
HETATM   14  C           1     -28.982  -6.936 -17.988  0.00  0.00     0.014 C 
HETATM   15  C           1     -29.325  -8.094 -17.059  0.00  0.00     0.012 C 
BRANCH  14  16
HETATM   16  C           1     -30.159  -5.972 -18.055  0.00  0.00     0.002 C 
HETATM   17  C           1     -31.352  -6.574 -17.325  0.00  0.00     0.005 C 
ENDBRANCH  14  16
ENDBRANCH  13  14
BRANCH  13  18
HETATM   18  C           1     -27.646  -6.430 -15.965  0.00  0.00     0.197 C 
HETATM   19  O           1     -28.349  -5.761 -15.177  0.00  0.00    -0.646 OA
HETATM   20  O           1     -26.851  -7.286 -15.521  0.00  0.00    -0.646 OA
ENDBRANCH  13  18
ENDBRANCH   4  13
TORSDOF 8
ENDMDL
MODEL 7
REMARK VINA RESULT:      -4.7     25.598     26.983
REMARK  8 active torsions:
REMARK  status: ('A' for Active; 'I' for Inactive)
REMARK    1  A    between atoms: O_3  and  C_20 
REMARK    2  A    between atoms: C_5  and  C_14 
REMARK    3  A    between atoms: C_5  and  C_7 
REMARK    4  A    between atoms: C_7  and  C_11 
REMARK    5  A    between atoms: C_7  and  N_15 
REMARK       I    between atoms: C_13  and  N_15 
REMARK    6  A    between atoms: C_13  and  C_17 
REMARK    7  A    between atoms: N_16  and  C_17 
REMARK    8  A    between atoms: C_17  and  C_20 
ROOT
HETATM    1  H           1     -10.977   7.077 -21.786  0.00  0.00     0.163 HD
HETATM    2  O           1     -12.864   7.701 -19.358  0.00  0.00    -0.271 OA
HETATM    3  C           1     -12.305   7.877 -20.415  0.00  0.00     0.251 C 
HETATM    4  N           1     -11.445   6.928 -20.901  0.00  0.00    -0.344 N 
ENDROOT
BRANCH   3   5
HETATM    5  C           1     -12.553   9.143 -21.198  0.00  0.00     0.297 C 
BRANCH   5   6
HETATM    6  N           1     -12.939  10.244 -20.255  0.00  0.00    -0.064 N 
HETATM    7  H           1     -12.155  10.423 -19.588  0.00  0.00     0.275 HD
HETATM    8  H           1     -13.138  11.114 -20.799  0.00  0.00     0.275 HD
HETATM    9  H           1     -13.792   9.963 -19.722  0.00  0.00     0.275 HD
ENDBRANCH   5   6
BRANCH   5  10
HETATM   10  C           1     -11.286   9.536 -21.945  0.00  0.00     0.206 C 
BRANCH  10  11
HETATM   11  O           1     -10.253   9.765 -21.027  0.00  0.00    -0.398 OA
HETATM   12  H           1     -10.659   9.951 -20.197  0.00  0.00     0.209 HD
ENDBRANCH  10  11
ENDBRANCH   5  10
ENDBRANCH   3   5
BRANCH   4  13
HETATM   13  C           1     -11.207   5.713 -20.148  0.00  0.00     0.189 C 
BRANCH  13  14
HETATM   14  C           1     -11.169   4.526 -21.102  0.00  0.00     0.014 C 
HETATM   15  C           1     -11.053   3.235 -20.300  0.00  0.00     0.012 C 
BRANCH  14  16
HETATM   16  C           1     -12.450   4.498 -21.927  0.00  0.00     0.002 C 
HETATM   17  C           1     -13.169   3.174 -21.705  0.00  0.00     0.005 C 
ENDBRANCH  14  16
ENDBRANCH  13  14
BRANCH  13  18
HETATM   18  C           1      -9.886   5.820 -19.426  0.00  0.00     0.197 C 
HETATM   19  O           1      -9.838   5.668 -18.186  0.00  0.00    -0.646 OA
HETATM   20  O           1      -8.841   6.060 -20.067  0.00  0.00    -0.646 OA
ENDBRANCH  13  18
ENDBRANCH   4  13
TORSDOF 8
ENDMDL
MODEL 8
REMARK VINA RESULT:      -4.6     11.765     14.053
REMARK  8 active torsions:
REMARK  status: ('A' for Active; 'I' for Inactive)
REMARK    1  A    between atoms: O_3  and  C_20 
REMARK    2  A    between atoms: C_5  and  C_14 
REMARK    3  A    between atoms: C_5  and  C_7 
REMARK    4  A    between atoms: C_7  and  C_11 
REMARK    5  A    between atoms: C_7  and  N_15 
REMARK       I    between atoms: C_13  and  N_15 
REMARK    6  A    between atoms: C_13  and  C_17 
REMARK    7  A    between atoms: N_16  and  C_17 
REMARK    8  A    between atoms: C_17  and  C_20 
ROOT
HETATM    1  H           1     -25.566  -7.716 -18.646  0.00  0.00     0.163 HD
HETATM    2  O           1     -27.846  -5.568 -18.469  0.00  0.00    -0.271 OA
HETATM    3  C           1     -26.968  -6.302 -18.081  0.00  0.00     0.251 C 
HETATM    4  N           1     -26.302  -7.101 -18.971  0.00  0.00    -0.344 N 
ENDROOT
BRANCH   3   5
HETATM    5  C           1     -26.607  -6.338 -16.617  0.00  0.00     0.297 C 
BRANCH   5   6
HETATM    6  N           1     -27.552  -7.250 -15.893  0.00  0.00    -0.064 N 
HETATM    7  H           1     -28.487  -6.792 -15.812  0.00  0.00     0.275 HD
HETATM    8  H           1     -27.648  -8.145 -16.424  0.00  0.00     0.275 HD
HETATM    9  H           1     -27.179  -7.451 -14.938  0.00  0.00     0.275 HD
ENDBRANCH   5   6
BRANCH   5  10
HETATM   10  C           1     -25.183  -6.851 -16.456  0.00  0.00     0.206 C 
BRANCH  10  11
HETATM   11  O           1     -24.926  -7.102 -15.101  0.00  0.00    -0.398 OA
HETATM   12  H           1     -24.847  -6.265 -14.677  0.00  0.00     0.209 HD
ENDBRANCH  10  11
ENDBRANCH   5  10
ENDBRANCH   3   5
BRANCH   4  13
HETATM   13  C           1     -26.649  -7.066 -20.378  0.00  0.00     0.189 C 
BRANCH  13  14
HETATM   14  C           1     -25.382  -7.182 -21.216  0.00  0.00     0.014 C 
HETATM   15  C           1     -24.966  -5.799 -21.701  0.00  0.00     0.012 C 
BRANCH  14  16
HETATM   16  C           1     -24.267  -7.780 -20.367  0.00  0.00     0.002 C 
HETATM   17  C           1     -23.189  -8.356 -21.277  0.00  0.00     0.005 C 
ENDBRANCH  14  16
ENDBRANCH  13  14
BRANCH  13  18
HETATM   18  C           1     -27.570  -8.218 -20.697  0.00  0.00     0.197 C 
HETATM   19  O           1     -27.280  -9.014 -21.616  0.00  0.00    -0.646 OA
HETATM   20  O           1     -28.623  -8.376 -20.042  0.00  0.00    -0.646 OA
ENDBRANCH  13  18
ENDBRANCH   4  13
TORSDOF 8
ENDMDL
MODEL 9
REMARK VINA RESULT:      -4.5     17.962     19.654
REMARK  8 active torsions:
REMARK  status: ('A' for Active; 'I' for Inactive)
REMARK    1  A    between atoms: O_3  and  C_20 
REMARK    2  A    between atoms: C_5  and  C_14 
REMARK    3  A    between atoms: C_5  and  C_7 
REMARK    4  A    between atoms: C_7  and  C_11 
REMARK    5  A    between atoms: C_7  and  N_15 
REMARK       I    between atoms: C_13  and  N_15 
REMARK    6  A    between atoms: C_13  and  C_17 
REMARK    7  A    between atoms: N_16  and  C_17 
REMARK    8  A    between atoms: C_17  and  C_20 
ROOT
HETATM    1  H           1     -22.001  -9.846  -2.712  0.00  0.00     0.163 HD
HETATM    2  O           1     -20.799  -7.001  -2.161  0.00  0.00    -0.271 OA
HETATM    3  C           1     -21.324  -7.892  -2.786  0.00  0.00     0.251 C 
HETATM    4  N           1     -21.562  -9.100  -2.187  0.00  0.00    -0.344 N 
ENDROOT
BRANCH   3   5
HETATM    5  C           1     -21.714  -7.673  -4.227  0.00  0.00     0.297 C 
BRANCH   5   6
HETATM    6  N           1     -22.307  -6.304  -4.381  0.00  0.00    -0.064 N 
HETATM    7  H           1     -21.797  -5.785  -5.129  0.00  0.00     0.275 HD
HETATM    8  H           1     -23.315  -6.388  -4.641  0.00  0.00     0.275 HD
HETATM    9  H           1     -22.223  -5.785  -3.478  0.00  0.00     0.275 HD
ENDBRANCH   5   6
BRANCH   5  10
HETATM   10  C           1     -20.482  -7.794  -5.112  0.00  0.00     0.206 C 
BRANCH  10  11
HETATM   11  O           1     -19.478  -8.491  -4.425  0.00  0.00    -0.398 OA
HETATM   12  H           1     -18.800  -7.868  -4.224  0.00  0.00     0.209 HD
ENDBRANCH  10  11
ENDBRANCH   5  10
ENDBRANCH   3   5
BRANCH   4  13
HETATM   13  C           1     -21.186  -9.310  -0.803  0.00  0.00     0.189 C 
BRANCH  13  14
HETATM   14  C           1     -22.436  -9.579   0.025  0.00  0.00     0.014 C 
HETATM   15  C           1     -23.103  -8.257   0.381  0.00  0.00     0.012 C 
BRANCH  14  16
HETATM   16  C           1     -23.404 -10.436  -0.781  0.00  0.00     0.002 C 
HETATM   17  C           1     -23.788 -11.668   0.028  0.00  0.00     0.005 C 
ENDBRANCH  14  16
ENDBRANCH  13  14
BRANCH  13  18
HETATM   18  C           1     -20.255 -10.494  -0.709  0.00  0.00     0.197 C 
HETATM   19  O           1     -20.118 -11.096   0.378  0.00  0.00    -0.646 OA
HETATM   20  O           1     -19.621 -10.872  -1.718  0.00  0.00    -0.646 OA
ENDBRANCH  13  18
ENDBRANCH   4  13
TORSDOF 8
ENDMDL
