MODEL 1
REMARK VINA RESULT:      -5.6      0.000      0.000
REMARK  4 active torsions:
REMARK  status: ('A' for Active; 'I' for Inactive)
REMARK    1  A    between atoms: C_1  and  C_8 
REMARK    2  A    between atoms: C_1  and  N_3 
REMARK    3  A    between atoms: N_7  and  C_12 
REMARK       I    between atoms: N_7  and  C_8 
REMARK    4  A    between atoms: C_11  and  C_12 
ROOT
HETATM    1  O           1     -36.115  -1.895 -12.034  0.00  0.00    -0.271 OA
HETATM    2  N           1     -34.749  -1.484 -13.752  0.00  0.00    -0.345 N 
HETATM    3  C           1     -35.128  -2.210 -12.655  0.00  0.00     0.248 C 
HETATM    4  H           1     -33.922  -1.747 -14.272  0.00  0.00     0.163 HD
ENDROOT
BRANCH   3   5
HETATM    5  C           1     -34.312  -3.403 -12.221  0.00  0.00     0.270 C 
HETATM    6  C           1     -33.244  -2.955 -11.233  0.00  0.00     0.050 C 
BRANCH   5   7
HETATM    7  N           1     -33.656  -4.021 -13.420  0.00  0.00    -0.067 N 
HETATM    8  H           1     -33.956  -5.018 -13.507  0.00  0.00     0.275 HD
HETATM    9  H           1     -33.937  -3.498 -14.280  0.00  0.00     0.275 HD
HETATM   10  H           1     -32.617  -3.978 -13.310  0.00  0.00     0.275 HD
ENDBRANCH   5   7
ENDBRANCH   3   5
BRANCH   2  11
HETATM   11  C           1     -35.533  -0.337 -14.169  0.00  0.00     0.181 C 
HETATM   12  C           1     -34.801   0.943 -13.788  0.00  0.00     0.043 C 
BRANCH  11  13
HETATM   13  C           1     -35.728  -0.380 -15.664  0.00  0.00     0.196 C 
HETATM   14  O           1     -36.515   0.421 -16.216  0.00  0.00    -0.646 OA
HETATM   15  O           1     -35.103  -1.216 -16.353  0.00  0.00    -0.646 OA
ENDBRANCH  11  13
ENDBRANCH   2  11
TORSDOF 4
ENDMDL
MODEL 2
REMARK VINA RESULT:      -5.3     12.227     14.070
REMARK  4 active torsions:
REMARK  status: ('A' for Active; 'I' for Inactive)
REMARK    1  A    between atoms: C_1  and  C_8 
REMARK    2  A    between atoms: C_1  and  N_3 
REMARK    3  A    between atoms: N_7  and  C_12 
REMARK       I    between atoms: N_7  and  C_8 
REMARK    4  A    between atoms: C_11  and  C_12 
ROOT
HETATM    1  O           1     -23.459  -4.917 -10.965  0.00  0.00    -0.271 OA
HETATM    2  N           1     -21.806  -3.657 -10.148  0.00  0.00    -0.345 N 
HETATM    3  C           1     -22.799  -3.910 -11.057  0.00  0.00     0.248 C 
HETATM    4  H           1     -21.252  -2.813 -10.225  0.00  0.00     0.163 HD
ENDROOT
BRANCH   3   5
HETATM    5  C           1     -23.067  -2.931 -12.173  0.00  0.00     0.270 C 
HETATM    6  C           1     -24.538  -2.993 -12.562  0.00  0.00     0.050 C 
BRANCH   5   7
HETATM    7  N           1     -22.222  -3.285 -13.361  0.00  0.00    -0.067 N 
HETATM    8  H           1     -22.070  -4.319 -13.385  0.00  0.00     0.275 HD
HETATM    9  H           1     -22.708  -2.985 -14.236  0.00  0.00     0.275 HD
HETATM   10  H           1     -21.299  -2.798 -13.290  0.00  0.00     0.275 HD
ENDBRANCH   5   7
ENDBRANCH   3   5
BRANCH   2  11
HETATM   11  C           1     -21.548  -4.597  -9.075  0.00  0.00     0.181 C 
HETATM   12  C           1     -20.046  -4.805  -8.933  0.00  0.00     0.043 C 
BRANCH  11  13
HETATM   13  C           1     -22.105  -4.051  -7.784  0.00  0.00     0.196 C 
HETATM   14  O           1     -23.270  -4.341  -7.433  0.00  0.00    -0.646 OA
HETATM   15  O           1     -21.403  -3.308  -7.064  0.00  0.00    -0.646 OA
ENDBRANCH  11  13
ENDBRANCH   2  11
TORSDOF 4
ENDMDL
MODEL 3
REMARK VINA RESULT:      -5.1     12.607     14.185
REMARK  4 active torsions:
REMARK  status: ('A' for Active; 'I' for Inactive)
REMARK    1  A    between atoms: C_1  and  C_8 
REMARK    2  A    between atoms: C_1  and  N_3 
REMARK    3  A    between atoms: N_7  and  C_12 
REMARK       I    between atoms: N_7  and  C_8 
REMARK    4  A    between atoms: C_11  and  C_12 
ROOT
HETATM    1  O           1     -21.521  -3.189  -7.246  0.00  0.00    -0.271 OA
HETATM    2  N           1     -22.167  -4.699  -8.759  0.00  0.00    -0.345 N 
HETATM    3  C           1     -21.586  -4.351  -7.569  0.00  0.00     0.248 C 
HETATM    4  H           1     -22.222  -5.672  -9.030  0.00  0.00     0.163 HD
ENDROOT
BRANCH   3   5
HETATM    5  C           1     -21.027  -5.420  -6.662  0.00  0.00     0.270 C 
HETATM    6  C           1     -20.277  -4.766  -5.509  0.00  0.00     0.050 C 
BRANCH   5   7
HETATM    7  N           1     -20.085  -6.291  -7.439  0.00  0.00    -0.067 N 
HETATM    8  H           1     -19.494  -6.842  -6.777  0.00  0.00     0.275 HD
HETATM    9  H           1     -20.633  -6.946  -8.042  0.00  0.00     0.275 HD
HETATM   10  H           1     -19.472  -5.694  -8.040  0.00  0.00     0.275 HD
ENDBRANCH   5   7
ENDBRANCH   3   5
BRANCH   2  11
HETATM   11  C           1     -22.705  -3.672  -9.631  0.00  0.00     0.181 C 
HETATM   12  C           1     -22.092  -3.814 -11.019  0.00  0.00     0.043 C 
BRANCH  11  13
HETATM   13  C           1     -24.203  -3.826  -9.723  0.00  0.00     0.196 C 
HETATM   14  O           1     -24.704  -4.949  -9.944  0.00  0.00    -0.646 OA
HETATM   15  O           1     -24.943  -2.829  -9.579  0.00  0.00    -0.646 OA
ENDBRANCH  11  13
ENDBRANCH   2  11
TORSDOF 4
ENDMDL
MODEL 4
REMARK VINA RESULT:      -4.8     12.638     14.628
REMARK  4 active torsions:
REMARK  status: ('A' for Active; 'I' for Inactive)
REMARK    1  A    between atoms: C_1  and  C_8 
REMARK    2  A    between atoms: C_1  and  N_3 
REMARK    3  A    between atoms: N_7  and  C_12 
REMARK       I    between atoms: N_7  and  C_8 
REMARK    4  A    between atoms: C_11  and  C_12 
ROOT
HETATM    1  O           1     -21.632  -4.480 -10.434  0.00  0.00    -0.271 OA
HETATM    2  N           1     -22.682  -4.692  -8.474  0.00  0.00    -0.345 N 
HETATM    3  C           1     -22.679  -4.529  -9.833  0.00  0.00     0.248 C 
HETATM    4  H           1     -23.559  -4.733  -7.971  0.00  0.00     0.163 HD
ENDROOT
BRANCH   3   5
HETATM    5  C           1     -23.985  -4.410 -10.581  0.00  0.00     0.270 C 
HETATM    6  C           1     -23.955  -3.167 -11.460  0.00  0.00     0.050 C 
BRANCH   5   7
HETATM    7  N           1     -25.114  -4.301  -9.600  0.00  0.00    -0.067 N 
HETATM    8  H           1     -25.997  -4.638 -10.046  0.00  0.00     0.275 HD
HETATM    9  H           1     -24.903  -4.887  -8.761  0.00  0.00     0.275 HD
HETATM   10  H           1     -25.228  -3.304  -9.310  0.00  0.00     0.275 HD
ENDBRANCH   5   7
ENDBRANCH   3   5
BRANCH   2  11
HETATM   11  C           1     -21.428  -4.806  -7.755  0.00  0.00     0.181 C 
HETATM   12  C           1     -21.076  -3.461  -7.133  0.00  0.00     0.043 C 
BRANCH  11  13
HETATM   13  C           1     -21.565  -5.844  -6.668  0.00  0.00     0.196 C 
HETATM   14  O           1     -22.338  -5.644  -5.707  0.00  0.00    -0.646 OA
HETATM   15  O           1     -20.905  -6.904  -6.729  0.00  0.00    -0.646 OA
ENDBRANCH  11  13
ENDBRANCH   2  11
TORSDOF 4
ENDMDL
MODEL 5
REMARK VINA RESULT:      -4.6      2.435      2.626
REMARK  4 active torsions:
REMARK  status: ('A' for Active; 'I' for Inactive)
REMARK    1  A    between atoms: C_1  and  C_8 
REMARK    2  A    between atoms: C_1  and  N_3 
REMARK    3  A    between atoms: N_7  and  C_12 
REMARK       I    between atoms: N_7  and  C_8 
REMARK    4  A    between atoms: C_11  and  C_12 
ROOT
HETATM    1  O           1     -37.821  -0.440 -12.049  0.00  0.00    -0.271 OA
HETATM    2  N           1     -35.644  -0.286 -12.521  0.00  0.00    -0.345 N 
HETATM    3  C           1     -36.682  -0.635 -11.699  0.00  0.00     0.248 C 
HETATM    4  H           1     -34.690  -0.450 -12.228  0.00  0.00     0.163 HD
ENDROOT
BRANCH   3   5
HETATM    5  C           1     -36.402  -1.263 -10.356  0.00  0.00     0.270 C 
HETATM    6  C           1     -36.928  -0.357  -9.251  0.00  0.00     0.050 C 
BRANCH   5   7
HETATM    7  N           1     -34.922  -1.445 -10.189  0.00  0.00    -0.067 N 
HETATM    8  H           1     -34.439  -0.532 -10.348  0.00  0.00     0.275 HD
HETATM    9  H           1     -34.719  -1.781  -9.221  0.00  0.00     0.275 HD
HETATM   10  H           1     -34.577  -2.148 -10.882  0.00  0.00     0.275 HD
ENDBRANCH   5   7
ENDBRANCH   3   5
BRANCH   2  11
HETATM   11  C           1     -35.913   0.318 -13.812  0.00  0.00     0.181 C 
HETATM   12  C           1     -34.800   1.299 -14.155  0.00  0.00     0.043 C 
BRANCH  11  13
HETATM   13  C           1     -35.979  -0.759 -14.866  0.00  0.00     0.196 C 
HETATM   14  O           1     -36.878  -0.731 -15.735  0.00  0.00    -0.646 OA
HETATM   15  O           1     -35.133  -1.681 -14.872  0.00  0.00    -0.646 OA
ENDBRANCH  11  13
ENDBRANCH   2  11
TORSDOF 4
ENDMDL
MODEL 6
REMARK VINA RESULT:      -4.5     15.984     16.861
REMARK  4 active torsions:
REMARK  status: ('A' for Active; 'I' for Inactive)
REMARK    1  A    between atoms: C_1  and  C_8 
REMARK    2  A    between atoms: C_1  and  N_3 
REMARK    3  A    between atoms: N_7  and  C_12 
REMARK       I    between atoms: N_7  and  C_8 
REMARK    4  A    between atoms: C_11  and  C_12 
ROOT
HETATM    1  O           1     -22.799  -6.317  -4.876  0.00  0.00    -0.271 OA
HETATM    2  N           1     -20.841  -5.345  -5.332  0.00  0.00    -0.345 N 
HETATM    3  C           1     -21.708  -5.979  -4.484  0.00  0.00     0.248 C 
HETATM    4  H           1     -19.927  -5.062  -5.003  0.00  0.00     0.163 HD
ENDROOT
BRANCH   3   5
HETATM    5  C           1     -21.301  -6.255  -3.057  0.00  0.00     0.270 C 
HETATM    6  C           1     -20.975  -7.735  -2.899  0.00  0.00     0.050 C 
BRANCH   5   7
HETATM    7  N           1     -22.428  -5.892  -2.137  0.00  0.00    -0.067 N 
HETATM    8  H           1     -23.129  -6.667  -2.120  0.00  0.00     0.275 HD
HETATM    9  H           1     -22.055  -5.740  -1.172  0.00  0.00     0.275 HD
HETATM   10  H           1     -22.886  -5.015  -2.475  0.00  0.00     0.275 HD
ENDBRANCH   5   7
ENDBRANCH   3   5
BRANCH   2  11
HETATM   11  C           1     -21.232  -5.079  -6.703  0.00  0.00     0.181 C 
HETATM   12  C           1     -21.322  -3.575  -6.922  0.00  0.00     0.043 C 
BRANCH  11  13
HETATM   13  C           1     -20.205  -5.665  -7.641  0.00  0.00     0.196 C 
HETATM   14  O           1     -20.010  -5.143  -8.760  0.00  0.00    -0.646 OA
HETATM   15  O           1     -19.549  -6.673  -7.298  0.00  0.00    -0.646 OA
ENDBRANCH  11  13
ENDBRANCH   2  11
TORSDOF 4
ENDMDL
MODEL 7
REMARK VINA RESULT:      -4.4      2.019      2.766
REMARK  4 active torsions:
REMARK  status: ('A' for Active; 'I' for Inactive)
REMARK    1  A    between atoms: C_1  and  C_8 
REMARK    2  A    between atoms: C_1  and  N_3 
REMARK    3  A    between atoms: N_7  and  C_12 
REMARK       I    between atoms: N_7  and  C_8 
REMARK    4  A    between atoms: C_11  and  C_12 
ROOT
HETATM    1  O           1     -34.732   0.929 -13.507  0.00  0.00    -0.271 OA
HETATM    2  N           1     -35.475  -1.030 -14.280  0.00  0.00    -0.345 N 
HETATM    3  C           1     -34.951  -0.239 -13.293  0.00  0.00     0.248 C 
HETATM    4  H           1     -35.659  -2.009 -14.101  0.00  0.00     0.163 HD
ENDROOT
BRANCH   3   5
HETATM    5  C           1     -34.646  -0.829 -11.938  0.00  0.00     0.270 C 
HETATM    6  C           1     -34.525  -2.342 -12.058  0.00  0.00     0.050 C 
BRANCH   5   7
HETATM    7  N           1     -35.754  -0.491 -10.986  0.00  0.00    -0.067 N 
HETATM    8  H           1     -35.934  -1.306 -10.357  0.00  0.00     0.275 HD
HETATM    9  H           1     -35.479   0.337 -10.410  0.00  0.00     0.275 HD
HETATM   10  H           1     -36.621  -0.268 -11.525  0.00  0.00     0.275 HD
ENDBRANCH   5   7
ENDBRANCH   3   5
BRANCH   2  11
HETATM   11  C           1     -35.768  -0.464 -15.583  0.00  0.00     0.181 C 
HETATM   12  C           1     -35.299  -1.422 -16.670  0.00  0.00     0.043 C 
BRANCH  11  13
HETATM   13  C           1     -37.255  -0.244 -15.712  0.00  0.00     0.196 C 
HETATM   14  O           1     -37.868  -0.681 -16.711  0.00  0.00    -0.646 OA
HETATM   15  O           1     -37.876   0.374 -14.820  0.00  0.00    -0.646 OA
ENDBRANCH  11  13
ENDBRANCH   2  11
TORSDOF 4
ENDMDL
MODEL 8
REMARK VINA RESULT:      -4.4     14.108     15.966
REMARK  4 active torsions:
REMARK  status: ('A' for Active; 'I' for Inactive)
REMARK    1  A    between atoms: C_1  and  C_8 
REMARK    2  A    between atoms: C_1  and  N_3 
REMARK    3  A    between atoms: N_7  and  C_12 
REMARK       I    between atoms: N_7  and  C_8 
REMARK    4  A    between atoms: C_11  and  C_12 
ROOT
HETATM    1  O           1     -20.400  -4.809  -9.267  0.00  0.00    -0.271 OA
HETATM    2  N           1     -21.756  -5.273  -7.555  0.00  0.00    -0.345 N 
HETATM    3  C           1     -21.521  -4.804  -8.819  0.00  0.00     0.248 C 
HETATM    4  H           1     -22.695  -5.269  -7.179  0.00  0.00     0.163 HD
ENDROOT
BRANCH   3   5
HETATM    5  C           1     -22.665  -4.279  -9.653  0.00  0.00     0.270 C 
HETATM    6  C           1     -22.120  -3.380 -10.754  0.00  0.00     0.050 C 
BRANCH   5   7
HETATM    7  N           1     -23.598  -3.492  -8.781  0.00  0.00    -0.067 N 
HETATM    8  H           1     -23.357  -2.477  -8.841  0.00  0.00     0.275 HD
HETATM    9  H           1     -24.581  -3.634  -9.105  0.00  0.00     0.275 HD
HETATM   10  H           1     -23.506  -3.815  -7.791  0.00  0.00     0.275 HD
ENDBRANCH   5   7
ENDBRANCH   3   5
BRANCH   2  11
HETATM   11  C           1     -20.657  -5.777  -6.753  0.00  0.00     0.181 C 
HETATM   12  C           1     -20.108  -4.654  -5.883  0.00  0.00     0.043 C 
BRANCH  11  13
HETATM   13  C           1     -21.150  -6.900  -5.875  0.00  0.00     0.196 C 
HETATM   14  O           1     -20.594  -8.019  -5.920  0.00  0.00    -0.646 OA
HETATM   15  O           1     -22.115  -6.712  -5.102  0.00  0.00    -0.646 OA
ENDBRANCH  11  13
ENDBRANCH   2  11
TORSDOF 4
ENDMDL
MODEL 9
REMARK VINA RESULT:      -4.4     24.423     25.139
REMARK  4 active torsions:
REMARK  status: ('A' for Active; 'I' for Inactive)
REMARK    1  A    between atoms: C_1  and  C_8 
REMARK    2  A    between atoms: C_1  and  N_3 
REMARK    3  A    between atoms: N_7  and  C_12 
REMARK       I    between atoms: N_7  and  C_8 
REMARK    4  A    between atoms: C_11  and  C_12 
ROOT
HETATM    1  O           1     -11.395   5.554 -18.874  0.00  0.00    -0.271 OA
HETATM    2  N           1     -12.388   5.578 -20.874  0.00  0.00    -0.345 N 
HETATM    3  C           1     -11.445   6.022 -19.986  0.00  0.00     0.248 C 
HETATM    4  H           1     -12.430   5.970 -21.806  0.00  0.00     0.163 HD
ENDROOT
BRANCH   3   5
HETATM    5  C           1     -10.468   7.096 -20.399  0.00  0.00     0.270 C 
HETATM    6  C           1      -9.141   6.455 -20.784  0.00  0.00     0.050 C 
BRANCH   5   7
HETATM    7  N           1     -10.252   8.040 -19.253  0.00  0.00    -0.067 N 
HETATM    8  H           1      -9.231   8.242 -19.156  0.00  0.00     0.275 HD
HETATM    9  H           1     -10.766   8.931 -19.435  0.00  0.00     0.275 HD
HETATM   10  H           1     -10.607   7.606 -18.371  0.00  0.00     0.275 HD
ENDBRANCH   5   7
ENDBRANCH   3   5
BRANCH   2  11
HETATM   11  C           1     -13.327   4.546 -20.478  0.00  0.00     0.181 C 
HETATM   12  C           1     -14.732   4.948 -20.906  0.00  0.00     0.043 C 
BRANCH  11  13
HETATM   13  C           1     -12.951   3.244 -21.142  0.00  0.00     0.196 C 
HETATM   14  O           1     -13.705   2.740 -22.002  0.00  0.00    -0.646 OA
HETATM   15  O           1     -11.885   2.669 -20.832  0.00  0.00    -0.646 OA
ENDBRANCH  11  13
ENDBRANCH   2  11
TORSDOF 4
ENDMDL
