MODEL 1
REMARK VINA RESULT:      -7.6      0.000      0.000
REMARK  10 active torsions:
REMARK  status: ('A' for Active; 'I' for Inactive)
REMARK       I    between atoms: N_3  and  C_24 
REMARK       I    between atoms: N_4  and  C_24 
REMARK    1  A    between atoms: N_4  and  C_18 
REMARK    2  A    between atoms: N_7  and  C_16 
REMARK       I    between atoms: N_7  and  C_9 
REMARK    3  A    between atoms: C_9  and  C_10 
REMARK    4  A    between atoms: C_10  and  C_11 
REMARK    5  A    between atoms: C_10  and  N_15 
REMARK    6  A    between atoms: C_11  and  C_12 
REMARK       I    between atoms: C_12  and  N_13 
REMARK    7  A    between atoms: C_16  and  C_22 
REMARK    8  A    between atoms: C_16  and  C_25 
REMARK    9  A    between atoms: C_17  and  C_18 
REMARK   10  A    between atoms: C_17  and  C_22 
ROOT
HETATM    1  C           1     -22.601  -3.810  -9.720  0.00  0.00     0.185 C 
ENDROOT
BRANCH   1   2
HETATM    2  N           1     -22.135  -4.910  -8.899  0.00  0.00    -0.345 N 
HETATM    3  C           1     -21.651  -4.668  -7.642  0.00  0.00     0.249 C 
HETATM    4  O           1     -21.612  -3.538  -7.216  0.00  0.00    -0.271 OA
HETATM    5  H           1     -22.167  -5.857  -9.256  0.00  0.00     0.163 HD
BRANCH   3   6
HETATM    6  C           1     -21.166  -5.813  -6.787  0.00  0.00     0.283 C 
BRANCH   6   7
HETATM    7  C           1     -21.028  -5.347  -5.343  0.00  0.00     0.145 C 
BRANCH   7   8
HETATM    8  C           1     -21.574  -6.407  -4.418  0.00  0.00     0.217 C 
HETATM    9  N           1     -21.922  -6.081  -3.134  0.00  0.00    -0.370 N 
HETATM   10  H           1     -22.288  -6.792  -2.513  0.00  0.00     0.159 HD
HETATM   11  H           1     -21.814  -5.130  -2.807  0.00  0.00     0.159 HD
HETATM   12  O           1     -21.702  -7.542  -4.809  0.00  0.00    -0.274 OA
ENDBRANCH   7   8
ENDBRANCH   6   7
BRANCH   6  13
HETATM   13  N           1     -19.832  -6.281  -7.289  0.00  0.00    -0.066 N 
HETATM   14  H           1     -19.689  -5.945  -8.268  0.00  0.00     0.275 HD
HETATM   15  H           1     -19.076  -5.900  -6.677  0.00  0.00     0.275 HD
HETATM   16  H           1     -19.801  -7.326  -7.271  0.00  0.00     0.275 HD
ENDBRANCH   6  13
ENDBRANCH   3   6
ENDBRANCH   1   2
BRANCH   1  17
HETATM   17  C           1     -22.046  -3.960 -11.131  0.00  0.00     0.038 C 
BRANCH  17  18
HETATM   18  C           1     -22.313  -2.685 -11.920  0.00  0.00     0.023 C 
BRANCH  18  19
HETATM   19  C           1     -23.097  -3.023 -13.182  0.00  0.00     0.138 C 
BRANCH  19  20
HETATM   20  N           1     -23.922  -1.870 -13.571  0.00  0.00    -0.227 N 
HETATM   21  C           1     -23.749  -1.318 -14.697  0.00  0.00     0.665 C 
HETATM   22  N           1     -22.864  -1.759 -15.488  0.00  0.00    -0.235 N 
HETATM   23  N           1     -24.478  -0.299 -15.040  0.00  0.00    -0.235 N 
HETATM   24  H           1     -22.274  -2.582 -15.211  0.00  0.00     0.174 HD
HETATM   25  H           1     -22.720  -1.301 -16.422  0.00  0.00     0.174 HD
HETATM   26  H           1     -24.335   0.157 -15.969  0.00  0.00     0.174 HD
HETATM   27  H           1     -25.208   0.065 -14.387  0.00  0.00     0.174 HD
HETATM   28  H           1     -24.656  -1.505 -12.915  0.00  0.00     0.177 HD
ENDBRANCH  19  20
ENDBRANCH  18  19
ENDBRANCH  17  18
ENDBRANCH   1  17
BRANCH   1  29
HETATM   29  C           1     -24.109  -3.822  -9.768  0.00  0.00     0.196 C 
HETATM   30  O           1     -24.717  -4.876 -10.059  0.00  0.00    -0.646 OA
HETATM   31  O           1     -24.751  -2.780  -9.515  0.00  0.00    -0.646 OA
ENDBRANCH   1  29
TORSDOF 10
ENDMDL
MODEL 2
REMARK VINA RESULT:      -7.4     12.089     13.309
REMARK  10 active torsions:
REMARK  status: ('A' for Active; 'I' for Inactive)
REMARK       I    between atoms: N_3  and  C_24 
REMARK       I    between atoms: N_4  and  C_24 
REMARK    1  A    between atoms: N_4  and  C_18 
REMARK    2  A    between atoms: N_7  and  C_16 
REMARK       I    between atoms: N_7  and  C_9 
REMARK    3  A    between atoms: C_9  and  C_10 
REMARK    4  A    between atoms: C_10  and  C_11 
REMARK    5  A    between atoms: C_10  and  N_15 
REMARK    6  A    between atoms: C_11  and  C_12 
REMARK       I    between atoms: C_12  and  N_13 
REMARK    7  A    between atoms: C_16  and  C_22 
REMARK    8  A    between atoms: C_16  and  C_25 
REMARK    9  A    between atoms: C_17  and  C_18 
REMARK   10  A    between atoms: C_17  and  C_22 
ROOT
HETATM    1  C           1     -35.183  -1.800 -11.524  0.00  0.00     0.185 C 
ENDROOT
BRANCH   1   2
HETATM    2  N           1     -35.439  -3.217 -11.689  0.00  0.00    -0.345 N 
HETATM    3  C           1     -34.553  -4.134 -11.192  0.00  0.00     0.249 C 
HETATM    4  O           1     -33.558  -3.764 -10.616  0.00  0.00    -0.271 OA
HETATM    5  H           1     -36.272  -3.528 -12.172  0.00  0.00     0.163 HD
BRANCH   3   6
HETATM    6  C           1     -34.818  -5.610 -11.365  0.00  0.00     0.283 C 
BRANCH   6   7
HETATM    7  C           1     -33.681  -6.408 -10.741  0.00  0.00     0.145 C 
BRANCH   7   8
HETATM    8  C           1     -34.224  -7.691 -10.162  0.00  0.00     0.217 C 
HETATM    9  N           1     -33.501  -8.850 -10.269  0.00  0.00    -0.370 N 
HETATM   10  H           1     -33.866  -9.711  -9.881  0.00  0.00     0.159 HD
HETATM   11  H           1     -32.604  -8.845 -10.734  0.00  0.00     0.159 HD
HETATM   12  O           1     -35.297  -7.697  -9.607  0.00  0.00    -0.274 OA
ENDBRANCH   7   8
ENDBRANCH   6   7
BRANCH   6  13
HETATM   13  N           1     -34.912  -5.934 -12.827  0.00  0.00    -0.066 N 
HETATM   14  H           1     -35.634  -5.325 -13.274  0.00  0.00     0.275 HD
HETATM   15  H           1     -33.986  -5.765 -13.280  0.00  0.00     0.275 HD
HETATM   16  H           1     -35.180  -6.937 -12.944  0.00  0.00     0.275 HD
ENDBRANCH   6  13
ENDBRANCH   3   6
ENDBRANCH   1   2
BRANCH   1  17
HETATM   17  C           1     -35.147  -1.128 -12.890  0.00  0.00     0.038 C 
BRANCH  17  18
HETATM   18  C           1     -34.880   0.361 -12.718  0.00  0.00     0.023 C 
BRANCH  18  19
HETATM   19  C           1     -34.848   1.033 -14.086  0.00  0.00     0.138 C 
BRANCH  19  20
HETATM   20  N           1     -35.115   0.034 -15.130  0.00  0.00    -0.227 N 
HETATM   21  C           1     -36.029   0.238 -15.982  0.00  0.00     0.665 C 
HETATM   22  N           1     -36.713   1.302 -15.935  0.00  0.00    -0.235 N 
HETATM   23  N           1     -36.265  -0.646 -16.906  0.00  0.00    -0.235 N 
HETATM   24  H           1     -36.522   2.016 -15.188  0.00  0.00     0.174 HD
HETATM   25  H           1     -37.471   1.471 -16.641  0.00  0.00     0.174 HD
HETATM   26  H           1     -37.019  -0.477 -17.609  0.00  0.00     0.174 HD
HETATM   27  H           1     -35.700  -1.524 -16.945  0.00  0.00     0.174 HD
HETATM   28  H           1     -34.548  -0.848 -15.170  0.00  0.00     0.177 HD
ENDBRANCH  19  20
ENDBRANCH  18  19
ENDBRANCH  17  18
ENDBRANCH   1  17
BRANCH   1  29
HETATM   29  C           1     -36.280  -1.185 -10.689  0.00  0.00     0.196 C 
HETATM   30  O           1     -35.995  -0.567  -9.640  0.00  0.00    -0.646 OA
HETATM   31  O           1     -37.473  -1.294 -11.046  0.00  0.00    -0.646 OA
ENDBRANCH   1  29
TORSDOF 10
ENDMDL
MODEL 3
REMARK VINA RESULT:      -7.0      9.789     12.187
REMARK  10 active torsions:
REMARK  status: ('A' for Active; 'I' for Inactive)
REMARK       I    between atoms: N_3  and  C_24 
REMARK       I    between atoms: N_4  and  C_24 
REMARK    1  A    between atoms: N_4  and  C_18 
REMARK    2  A    between atoms: N_7  and  C_16 
REMARK       I    between atoms: N_7  and  C_9 
REMARK    3  A    between atoms: C_9  and  C_10 
REMARK    4  A    between atoms: C_10  and  C_11 
REMARK    5  A    between atoms: C_10  and  N_15 
REMARK    6  A    between atoms: C_11  and  C_12 
REMARK       I    between atoms: C_12  and  N_13 
REMARK    7  A    between atoms: C_16  and  C_22 
REMARK    8  A    between atoms: C_16  and  C_25 
REMARK    9  A    between atoms: C_17  and  C_18 
REMARK   10  A    between atoms: C_17  and  C_22 
ROOT
HETATM    1  C           1     -28.469  -6.582 -17.075  0.00  0.00     0.185 C 
ENDROOT
BRANCH   1   2
HETATM    2  N           1     -27.186  -6.821 -17.705  0.00  0.00    -0.345 N 
HETATM    3  C           1     -26.961  -6.389 -18.985  0.00  0.00     0.249 C 
HETATM    4  O           1     -27.832  -5.810 -19.589  0.00  0.00    -0.271 OA
HETATM    5  H           1     -26.457  -7.307 -17.199  0.00  0.00     0.163 HD
BRANCH   3   6
HETATM    6  C           1     -25.625  -6.638 -19.640  0.00  0.00     0.283 C 
BRANCH   6   7
HETATM    7  C           1     -25.781  -7.694 -20.727  0.00  0.00     0.145 C 
BRANCH   7   8
HETATM    8  C           1     -24.488  -7.822 -21.493  0.00  0.00     0.217 C 
HETATM    9  N           1     -23.546  -8.737 -21.100  0.00  0.00    -0.370 N 
HETATM   10  H           1     -22.679  -8.822 -21.614  0.00  0.00     0.159 HD
HETATM   11  H           1     -23.719  -9.326 -20.297  0.00  0.00     0.159 HD
HETATM   12  O           1     -24.281  -7.118 -22.452  0.00  0.00    -0.274 OA
ENDBRANCH   7   8
ENDBRANCH   6   7
BRANCH   6  13
HETATM   13  N           1     -24.645  -7.120 -18.612  0.00  0.00    -0.066 N 
HETATM   14  H           1     -23.693  -6.755 -18.839  0.00  0.00     0.275 HD
HETATM   15  H           1     -24.934  -6.776 -17.668  0.00  0.00     0.275 HD
HETATM   16  H           1     -24.627  -8.165 -18.611  0.00  0.00     0.275 HD
ENDBRANCH   6  13
ENDBRANCH   3   6
ENDBRANCH   1   2
BRANCH   1  17
HETATM   17  C           1     -29.427  -7.712 -17.431  0.00  0.00     0.038 C 
BRANCH  17  18
HETATM   18  C           1     -30.719  -7.128 -17.986  0.00  0.00     0.023 C 
BRANCH  18  19
HETATM   19  C           1     -30.833  -5.664 -17.579  0.00  0.00     0.138 C 
BRANCH  19  20
HETATM   20  N           1     -32.038  -5.475 -16.759  0.00  0.00    -0.227 N 
HETATM   21  C           1     -32.617  -4.349 -16.735  0.00  0.00     0.665 C 
HETATM   22  N           1     -32.158  -3.386 -17.417  0.00  0.00    -0.235 N 
HETATM   23  N           1     -33.683  -4.182 -16.010  0.00  0.00    -0.235 N 
HETATM   24  H           1     -31.296  -3.522 -18.003  0.00  0.00     0.174 HD
HETATM   25  H           1     -32.638  -2.453 -17.398  0.00  0.00     0.174 HD
HETATM   26  H           1     -34.160  -3.253 -15.991  0.00  0.00     0.174 HD
HETATM   27  H           1     -34.062  -4.976 -15.448  0.00  0.00     0.174 HD
HETATM   28  H           1     -32.419  -6.273 -16.193  0.00  0.00     0.177 HD
ENDBRANCH  19  20
ENDBRANCH  18  19
ENDBRANCH  17  18
ENDBRANCH   1  17
BRANCH   1  29
HETATM   29  C           1     -28.292  -6.525 -15.578  0.00  0.00     0.196 C 
HETATM   30  O           1     -28.602  -5.488 -14.950  0.00  0.00    -0.646 OA
HETATM   31  O           1     -27.835  -7.513 -14.964  0.00  0.00    -0.646 OA
ENDBRANCH   1  29
TORSDOF 10
ENDMDL
MODEL 4
REMARK VINA RESULT:      -6.9      1.555      2.007
REMARK  10 active torsions:
REMARK  status: ('A' for Active; 'I' for Inactive)
REMARK       I    between atoms: N_3  and  C_24 
REMARK       I    between atoms: N_4  and  C_24 
REMARK    1  A    between atoms: N_4  and  C_18 
REMARK    2  A    between atoms: N_7  and  C_16 
REMARK       I    between atoms: N_7  and  C_9 
REMARK    3  A    between atoms: C_9  and  C_10 
REMARK    4  A    between atoms: C_10  and  C_11 
REMARK    5  A    between atoms: C_10  and  N_15 
REMARK    6  A    between atoms: C_11  and  C_12 
REMARK       I    between atoms: C_12  and  N_13 
REMARK    7  A    between atoms: C_16  and  C_22 
REMARK    8  A    between atoms: C_16  and  C_25 
REMARK    9  A    between atoms: C_17  and  C_18 
REMARK   10  A    between atoms: C_17  and  C_22 
ROOT
HETATM    1  C           1     -22.713  -3.983  -9.168  0.00  0.00     0.185 C 
ENDROOT
BRANCH   1   2
HETATM    2  N           1     -22.563  -4.766  -7.957  0.00  0.00    -0.345 N 
HETATM    3  C           1     -21.555  -4.477  -7.077  0.00  0.00     0.249 C 
HETATM    4  O           1     -20.791  -3.570  -7.309  0.00  0.00    -0.271 OA
HETATM    5  H           1     -23.202  -5.525  -7.763  0.00  0.00     0.163 HD
BRANCH   3   6
HETATM    6  C           1     -21.398  -5.291  -5.817  0.00  0.00     0.283 C 
BRANCH   6   7
HETATM    7  C           1     -20.366  -6.387  -6.044  0.00  0.00     0.145 C 
BRANCH   7   8
HETATM    8  C           1     -20.626  -7.530  -5.094  0.00  0.00     0.217 C 
HETATM    9  N           1     -20.696  -8.813  -5.568  0.00  0.00    -0.370 N 
HETATM   10  H           1     -20.872  -9.579  -4.930  0.00  0.00     0.159 HD
HETATM   11  H           1     -20.573  -8.994  -6.555  0.00  0.00     0.159 HD
HETATM   12  O           1     -20.774  -7.313  -3.915  0.00  0.00    -0.274 OA
ENDBRANCH   7   8
ENDBRANCH   6   7
BRANCH   6  13
HETATM   13  N           1     -22.715  -5.913  -5.456  0.00  0.00    -0.066 N 
HETATM   14  H           1     -22.887  -6.745  -6.064  0.00  0.00     0.275 HD
HETATM   15  H           1     -22.696  -6.212  -4.455  0.00  0.00     0.275 HD
HETATM   16  H           1     -23.480  -5.214  -5.596  0.00  0.00     0.275 HD
ENDBRANCH   6  13
ENDBRANCH   3   6
ENDBRANCH   1   2
BRANCH   1  17
HETATM   17  C           1     -21.942  -4.648 -10.301  0.00  0.00     0.038 C 
BRANCH  17  18
HETATM   18  C           1     -20.868  -3.698 -10.812  0.00  0.00     0.023 C 
BRANCH  18  19
HETATM   19  C           1     -21.506  -2.643 -11.708  0.00  0.00     0.138 C 
BRANCH  19  20
HETATM   20  N           1     -21.978  -3.273 -12.949  0.00  0.00    -0.227 N 
HETATM   21  C           1     -23.167  -3.087 -13.341  0.00  0.00     0.665 C 
HETATM   22  N           1     -23.950  -2.358 -12.663  0.00  0.00    -0.235 N 
HETATM   23  N           1     -23.585  -3.644 -14.438  0.00  0.00    -0.235 N 
HETATM   24  H           1     -23.613  -1.908 -11.776  0.00  0.00     0.174 HD
HETATM   25  H           1     -24.936  -2.203 -12.988  0.00  0.00     0.174 HD
HETATM   26  H           1     -24.566  -3.490 -14.761  0.00  0.00     0.174 HD
HETATM   27  H           1     -22.938  -4.245 -14.997  0.00  0.00     0.174 HD
HETATM   28  H           1     -21.329  -3.877 -13.511  0.00  0.00     0.177 HD
ENDBRANCH  19  20
ENDBRANCH  18  19
ENDBRANCH  17  18
ENDBRANCH   1  17
BRANCH   1  29
HETATM   29  C           1     -24.174  -3.900  -9.534  0.00  0.00     0.196 C 
HETATM   30  O           1     -24.802  -4.936  -9.843  0.00  0.00    -0.646 OA
HETATM   31  O           1     -24.758  -2.794  -9.529  0.00  0.00    -0.646 OA
ENDBRANCH   1  29
TORSDOF 10
ENDMDL
MODEL 5
REMARK VINA RESULT:      -6.9      9.749     12.129
REMARK  10 active torsions:
REMARK  status: ('A' for Active; 'I' for Inactive)
REMARK       I    between atoms: N_3  and  C_24 
REMARK       I    between atoms: N_4  and  C_24 
REMARK    1  A    between atoms: N_4  and  C_18 
REMARK    2  A    between atoms: N_7  and  C_16 
REMARK       I    between atoms: N_7  and  C_9 
REMARK    3  A    between atoms: C_9  and  C_10 
REMARK    4  A    between atoms: C_10  and  C_11 
REMARK    5  A    between atoms: C_10  and  N_15 
REMARK    6  A    between atoms: C_11  and  C_12 
REMARK       I    between atoms: C_12  and  N_13 
REMARK    7  A    between atoms: C_16  and  C_22 
REMARK    8  A    between atoms: C_16  and  C_25 
REMARK    9  A    between atoms: C_17  and  C_18 
REMARK   10  A    between atoms: C_17  and  C_22 
ROOT
HETATM    1  C           1     -28.272  -6.927 -17.045  0.00  0.00     0.185 C 
ENDROOT
BRANCH   1   2
HETATM    2  N           1     -29.524  -6.195 -17.039  0.00  0.00    -0.345 N 
HETATM    3  C           1     -30.644  -6.750 -17.596  0.00  0.00     0.249 C 
HETATM    4  O           1     -30.591  -7.850 -18.093  0.00  0.00    -0.271 OA
HETATM    5  H           1     -29.569  -5.274 -16.623  0.00  0.00     0.163 HD
BRANCH   3   6
HETATM    6  C           1     -31.946  -5.989 -17.589  0.00  0.00     0.283 C 
BRANCH   6   7
HETATM    7  C           1     -31.862  -4.847 -16.584  0.00  0.00     0.145 C 
BRANCH   7   8
HETATM    8  C           1     -32.112  -3.536 -17.289  0.00  0.00     0.217 C 
HETATM    9  N           1     -33.395  -3.110 -17.508  0.00  0.00    -0.370 N 
HETATM   10  H           1     -33.562  -2.231 -17.982  0.00  0.00     0.159 HD
HETATM   11  H           1     -34.175  -3.673 -17.197  0.00  0.00     0.159 HD
HETATM   12  O           1     -31.180  -2.864 -17.662  0.00  0.00    -0.274 OA
ENDBRANCH   7   8
ENDBRANCH   6   7
BRANCH   6  13
HETATM   13  N           1     -33.064  -6.912 -17.203  0.00  0.00    -0.066 N 
HETATM   14  H           1     -33.896  -6.725 -17.806  0.00  0.00     0.275 HD
HETATM   15  H           1     -32.757  -7.903 -17.331  0.00  0.00     0.275 HD
HETATM   16  H           1     -33.316  -6.753 -16.201  0.00  0.00     0.275 HD
ENDBRANCH   6  13
ENDBRANCH   3   6
ENDBRANCH   1   2
BRANCH   1  17
HETATM   17  C           1     -27.243  -6.165 -17.870  0.00  0.00     0.038 C 
BRANCH  17  18
HETATM   18  C           1     -27.586  -6.285 -19.349  0.00  0.00     0.023 C 
BRANCH  18  19
HETATM   19  C           1     -26.415  -6.916 -20.093  0.00  0.00     0.138 C 
BRANCH  19  20
HETATM   20  N           1     -25.204  -6.830 -19.265  0.00  0.00    -0.227 N 
HETATM   21  C           1     -24.171  -7.489 -19.584  0.00  0.00     0.665 C 
HETATM   22  N           1     -24.182  -8.222 -20.616  0.00  0.00    -0.235 N 
HETATM   23  N           1     -23.100  -7.413 -18.852  0.00  0.00    -0.235 N 
HETATM   24  H           1     -25.047  -8.284 -21.208  0.00  0.00     0.174 HD
HETATM   25  H           1     -23.325  -8.769 -20.881  0.00  0.00     0.174 HD
HETATM   26  H           1     -22.248  -7.957 -19.115  0.00  0.00     0.174 HD
HETATM   27  H           1     -23.091  -6.808 -18.000  0.00  0.00     0.174 HD
HETATM   28  H           1     -25.195  -6.223 -18.409  0.00  0.00     0.177 HD
ENDBRANCH  19  20
ENDBRANCH  18  19
ENDBRANCH  17  18
ENDBRANCH   1  17
BRANCH   1  29
HETATM   29  C           1     -27.772  -7.080 -15.631  0.00  0.00     0.196 C 
HETATM   30  O           1     -28.541  -6.865 -14.668  0.00  0.00    -0.646 OA
HETATM   31  O           1     -26.588  -7.421 -15.419  0.00  0.00    -0.646 OA
ENDBRANCH   1  29
TORSDOF 10
ENDMDL
MODEL 6
REMARK VINA RESULT:      -6.8     12.010     15.307
REMARK  10 active torsions:
REMARK  status: ('A' for Active; 'I' for Inactive)
REMARK       I    between atoms: N_3  and  C_24 
REMARK       I    between atoms: N_4  and  C_24 
REMARK    1  A    between atoms: N_4  and  C_18 
REMARK    2  A    between atoms: N_7  and  C_16 
REMARK       I    between atoms: N_7  and  C_9 
REMARK    3  A    between atoms: C_9  and  C_10 
REMARK    4  A    between atoms: C_10  and  C_11 
REMARK    5  A    between atoms: C_10  and  N_15 
REMARK    6  A    between atoms: C_11  and  C_12 
REMARK       I    between atoms: C_12  and  N_13 
REMARK    7  A    between atoms: C_16  and  C_22 
REMARK    8  A    between atoms: C_16  and  C_25 
REMARK    9  A    between atoms: C_17  and  C_18 
REMARK   10  A    between atoms: C_17  and  C_22 
ROOT
HETATM    1  C           1     -35.003  -2.797 -11.539  0.00  0.00     0.185 C 
ENDROOT
BRANCH   1   2
HETATM    2  N           1     -35.221  -1.951 -12.696  0.00  0.00    -0.345 N 
HETATM    3  C           1     -36.048  -0.864 -12.601  0.00  0.00     0.249 C 
HETATM    4  O           1     -36.596  -0.609 -11.555  0.00  0.00    -0.271 OA
HETATM    5  H           1     -34.763  -2.163 -13.572  0.00  0.00     0.163 HD
BRANCH   3   6
HETATM    6  C           1     -36.276   0.018 -13.804  0.00  0.00     0.283 C 
BRANCH   6   7
HETATM    7  C           1     -37.675  -0.224 -14.355  0.00  0.00     0.145 C 
BRANCH   7   8
HETATM    8  C           1     -37.739   0.239 -15.790  0.00  0.00     0.217 C 
HETATM    9  N           1     -38.072   1.536 -16.076  0.00  0.00    -0.370 N 
HETATM   10  H           1     -38.115   1.846 -17.039  0.00  0.00     0.159 HD
HETATM   11  H           1     -38.274   2.183 -15.326  0.00  0.00     0.159 HD
HETATM   12  O           1     -37.498  -0.535 -16.685  0.00  0.00    -0.274 OA
ENDBRANCH   7   8
ENDBRANCH   6   7
BRANCH   6  13
HETATM   13  N           1     -35.261  -0.307 -14.861  0.00  0.00    -0.066 N 
HETATM   14  H           1     -35.583   0.069 -15.782  0.00  0.00     0.275 HD
HETATM   15  H           1     -34.345   0.129 -14.609  0.00  0.00     0.275 HD
HETATM   16  H           1     -35.147  -1.343 -14.927  0.00  0.00     0.275 HD
ENDBRANCH   6  13
ENDBRANCH   3   6
ENDBRANCH   1   2
BRANCH   1  17
HETATM   17  C           1     -34.809  -4.237 -11.995  0.00  0.00     0.038 C 
BRANCH  17  18
HETATM   18  C           1     -34.066  -5.017 -10.918  0.00  0.00     0.023 C 
BRANCH  18  19
HETATM   19  C           1     -34.919  -6.195 -10.463  0.00  0.00     0.138 C 
BRANCH  19  20
HETATM   20  N           1     -34.283  -7.452 -10.882  0.00  0.00    -0.227 N 
HETATM   21  C           1     -34.079  -8.371 -10.036  0.00  0.00     0.665 C 
HETATM   22  N           1     -34.423  -8.208  -8.828  0.00  0.00    -0.235 N 
HETATM   23  N           1     -33.516  -9.483 -10.406  0.00  0.00    -0.235 N 
HETATM   24  H           1     -34.877  -7.310  -8.529  0.00  0.00     0.174 HD
HETATM   25  H           1     -34.254  -8.970  -8.126  0.00  0.00     0.174 HD
HETATM   26  H           1     -33.348 -10.241  -9.708  0.00  0.00     0.174 HD
HETATM   27  H           1     -33.232  -9.617 -11.403  0.00  0.00     0.174 HD
HETATM   28  H           1     -33.997  -7.588 -11.883  0.00  0.00     0.177 HD
ENDBRANCH  19  20
ENDBRANCH  18  19
ENDBRANCH  17  18
ENDBRANCH   1  17
BRANCH   1  29
HETATM   29  C           1     -33.772  -2.332 -10.801  0.00  0.00     0.196 C 
HETATM   30  O           1     -32.636  -2.653 -11.215  0.00  0.00    -0.646 OA
HETATM   31  O           1     -33.887  -1.626  -9.776  0.00  0.00    -0.646 OA
ENDBRANCH   1  29
TORSDOF 10
ENDMDL
MODEL 7
REMARK VINA RESULT:      -6.6      2.116      7.878
REMARK  10 active torsions:
REMARK  status: ('A' for Active; 'I' for Inactive)
REMARK       I    between atoms: N_3  and  C_24 
REMARK       I    between atoms: N_4  and  C_24 
REMARK    1  A    between atoms: N_4  and  C_18 
REMARK    2  A    between atoms: N_7  and  C_16 
REMARK       I    between atoms: N_7  and  C_9 
REMARK    3  A    between atoms: C_9  and  C_10 
REMARK    4  A    between atoms: C_10  and  C_11 
REMARK    5  A    between atoms: C_10  and  N_15 
REMARK    6  A    between atoms: C_11  and  C_12 
REMARK       I    between atoms: C_12  and  N_13 
REMARK    7  A    between atoms: C_16  and  C_22 
REMARK    8  A    between atoms: C_16  and  C_25 
REMARK    9  A    between atoms: C_17  and  C_18 
REMARK   10  A    between atoms: C_17  and  C_22 
ROOT
HETATM    1  C           1     -22.305  -4.321  -9.507  0.00  0.00     0.185 C 
ENDROOT
BRANCH   1   2
HETATM    2  N           1     -22.778  -3.621 -10.685  0.00  0.00    -0.345 N 
HETATM    3  C           1     -23.439  -4.306 -11.669  0.00  0.00     0.249 C 
HETATM    4  O           1     -23.629  -5.493 -11.556  0.00  0.00    -0.271 OA
HETATM    5  H           1     -22.619  -2.626 -10.781  0.00  0.00     0.163 HD
BRANCH   3   6
HETATM    6  C           1     -23.931  -3.577 -12.895  0.00  0.00     0.283 C 
BRANCH   6   7
HETATM    7  C           1     -23.006  -2.405 -13.196  0.00  0.00     0.145 C 
BRANCH   7   8
HETATM    8  C           1     -23.167  -1.995 -14.639  0.00  0.00     0.217 C 
HETATM    9  N           1     -23.920  -0.896 -14.958  0.00  0.00    -0.370 N 
HETATM   10  H           1     -24.028  -0.621 -15.926  0.00  0.00     0.159 HD
HETATM   11  H           1     -24.368  -0.361 -14.227  0.00  0.00     0.159 HD
HETATM   12  O           1     -22.633  -2.635 -15.512  0.00  0.00    -0.274 OA
ENDBRANCH   7   8
ENDBRANCH   6   7
BRANCH   6  13
HETATM   13  N           1     -25.320  -3.066 -12.649  0.00  0.00    -0.066 N 
HETATM   14  H           1     -25.275  -2.189 -12.083  0.00  0.00     0.275 HD
HETATM   15  H           1     -25.785  -2.866 -13.564  0.00  0.00     0.275 HD
HETATM   16  H           1     -25.870  -3.788 -12.130  0.00  0.00     0.275 HD
ENDBRANCH   6  13
ENDBRANCH   3   6
ENDBRANCH   1   2
BRANCH   1  17
HETATM   17  C           1     -20.957  -3.751  -9.086  0.00  0.00     0.038 C 
BRANCH  17  18
HETATM   18  C           1     -19.939  -4.878  -8.979  0.00  0.00     0.023 C 
BRANCH  18  19
HETATM   19  C           1     -19.561  -5.086  -7.518  0.00  0.00     0.138 C 
BRANCH  19  20
HETATM   20  N           1     -19.911  -6.454  -7.110  0.00  0.00    -0.227 N 
HETATM   21  C           1     -20.595  -6.646  -6.063  0.00  0.00     0.665 C 
HETATM   22  N           1     -20.978  -5.661  -5.366  0.00  0.00    -0.235 N 
HETATM   23  N           1     -20.905  -7.856  -5.702  0.00  0.00    -0.235 N 
HETATM   24  H           1     -20.727  -4.683  -5.657  0.00  0.00     0.174 HD
HETATM   25  H           1     -21.545  -5.820  -4.497  0.00  0.00     0.174 HD
HETATM   26  H           1     -21.470  -8.015  -4.837  0.00  0.00     0.174 HD
HETATM   27  H           1     -20.590  -8.670  -6.277  0.00  0.00     0.174 HD
HETATM   28  H           1     -19.595  -7.271  -7.687  0.00  0.00     0.177 HD
ENDBRANCH  19  20
ENDBRANCH  18  19
ENDBRANCH  17  18
ENDBRANCH   1  17
BRANCH   1  29
HETATM   29  C           1     -23.299  -4.146  -8.386  0.00  0.00     0.196 C 
HETATM   30  O           1     -22.973  -4.428  -7.212  0.00  0.00    -0.646 OA
HETATM   31  O           1     -24.449  -3.719  -8.630  0.00  0.00    -0.646 OA
ENDBRANCH   1  29
TORSDOF 10
ENDMDL
MODEL 8
REMARK VINA RESULT:      -6.4     11.381     13.906
REMARK  10 active torsions:
REMARK  status: ('A' for Active; 'I' for Inactive)
REMARK       I    between atoms: N_3  and  C_24 
REMARK       I    between atoms: N_4  and  C_24 
REMARK    1  A    between atoms: N_4  and  C_18 
REMARK    2  A    between atoms: N_7  and  C_16 
REMARK       I    between atoms: N_7  and  C_9 
REMARK    3  A    between atoms: C_9  and  C_10 
REMARK    4  A    between atoms: C_10  and  C_11 
REMARK    5  A    between atoms: C_10  and  N_15 
REMARK    6  A    between atoms: C_11  and  C_12 
REMARK       I    between atoms: C_12  and  N_13 
REMARK    7  A    between atoms: C_16  and  C_22 
REMARK    8  A    between atoms: C_16  and  C_25 
REMARK    9  A    between atoms: C_17  and  C_18 
REMARK   10  A    between atoms: C_17  and  C_22 
ROOT
HETATM    1  C           1     -34.704  -3.299 -12.037  0.00  0.00     0.185 C 
ENDROOT
BRANCH   1   2
HETATM    2  N           1     -34.229  -4.167 -13.096  0.00  0.00    -0.345 N 
HETATM    3  C           1     -34.284  -3.751 -14.399  0.00  0.00     0.249 C 
HETATM    4  O           1     -34.729  -2.660 -14.667  0.00  0.00    -0.271 OA
HETATM    5  H           1     -33.856  -5.081 -12.873  0.00  0.00     0.163 HD
BRANCH   3   6
HETATM    6  C           1     -33.789  -4.654 -15.502  0.00  0.00     0.283 C 
BRANCH   6   7
HETATM    7  C           1     -33.417  -3.816 -16.718  0.00  0.00     0.145 C 
BRANCH   7   8
HETATM    8  C           1     -31.958  -4.020 -17.042  0.00  0.00     0.217 C 
HETATM    9  N           1     -31.318  -5.160 -16.632  0.00  0.00    -0.370 N 
HETATM   10  H           1     -30.339  -5.297 -16.850  0.00  0.00     0.159 HD
HETATM   11  H           1     -31.824  -5.864 -16.113  0.00  0.00     0.159 HD
HETATM   12  O           1     -31.353  -3.178 -17.662  0.00  0.00    -0.274 OA
ENDBRANCH   7   8
ENDBRANCH   6   7
BRANCH   6  13
HETATM   13  N           1     -34.871  -5.624 -15.877  0.00  0.00    -0.066 N 
HETATM   14  H           1     -35.303  -6.017 -15.010  0.00  0.00     0.275 HD
HETATM   15  H           1     -35.602  -5.131 -16.438  0.00  0.00     0.275 HD
HETATM   16  H           1     -34.461  -6.400 -16.445  0.00  0.00     0.275 HD
ENDBRANCH   6  13
ENDBRANCH   3   6
ENDBRANCH   1   2
BRANCH   1  17
HETATM   17  C           1     -35.463  -4.125 -11.007  0.00  0.00     0.038 C 
BRANCH  17  18
HETATM   18  C           1     -35.276  -5.607 -11.304  0.00  0.00     0.023 C 
BRANCH  18  19
HETATM   19  C           1     -34.376  -6.228 -10.244  0.00  0.00     0.138 C 
BRANCH  19  20
HETATM   20  N           1     -33.847  -7.508 -10.737  0.00  0.00    -0.227 N 
HETATM   21  C           1     -33.938  -8.548 -10.022  0.00  0.00     0.665 C 
HETATM   22  N           1     -34.484  -8.487  -8.881  0.00  0.00    -0.235 N 
HETATM   23  N           1     -33.471  -9.680 -10.459  0.00  0.00    -0.235 N 
HETATM   24  H           1     -34.862  -7.573  -8.529  0.00  0.00     0.174 HD
HETATM   25  H           1     -34.560  -9.350  -8.288  0.00  0.00     0.174 HD
HETATM   26  H           1     -33.546 -10.539  -9.868  0.00  0.00     0.174 HD
HETATM   27  H           1     -33.020  -9.731 -11.400  0.00  0.00     0.174 HD
HETATM   28  H           1     -33.394  -7.559 -11.683  0.00  0.00     0.177 HD
ENDBRANCH  19  20
ENDBRANCH  18  19
ENDBRANCH  17  18
ENDBRANCH   1  17
BRANCH   1  29
HETATM   29  C           1     -33.529  -2.624 -11.375  0.00  0.00     0.196 C 
HETATM   30  O           1     -32.411  -3.184 -11.364  0.00  0.00    -0.646 OA
HETATM   31  O           1     -33.672  -1.504 -10.838  0.00  0.00    -0.646 OA
ENDBRANCH   1  29
TORSDOF 10
ENDMDL
MODEL 9
REMARK VINA RESULT:      -6.2      3.082      9.532
REMARK  10 active torsions:
REMARK  status: ('A' for Active; 'I' for Inactive)
REMARK       I    between atoms: N_3  and  C_24 
REMARK       I    between atoms: N_4  and  C_24 
REMARK    1  A    between atoms: N_4  and  C_18 
REMARK    2  A    between atoms: N_7  and  C_16 
REMARK       I    between atoms: N_7  and  C_9 
REMARK    3  A    between atoms: C_9  and  C_10 
REMARK    4  A    between atoms: C_10  and  C_11 
REMARK    5  A    between atoms: C_10  and  N_15 
REMARK    6  A    between atoms: C_11  and  C_12 
REMARK       I    between atoms: C_12  and  N_13 
REMARK    7  A    between atoms: C_16  and  C_22 
REMARK    8  A    between atoms: C_16  and  C_25 
REMARK    9  A    between atoms: C_17  and  C_18 
REMARK   10  A    between atoms: C_17  and  C_22 
ROOT
HETATM    1  C           1     -20.931  -6.684  -5.064  0.00  0.00     0.185 C 
ENDROOT
BRANCH   1   2
HETATM    2  N           1     -21.457  -6.289  -6.356  0.00  0.00    -0.345 N 
HETATM    3  C           1     -21.119  -5.074  -6.889  0.00  0.00     0.249 C 
HETATM    4  O           1     -20.383  -4.332  -6.285  0.00  0.00    -0.271 OA
HETATM    5  H           1     -22.074  -6.910  -6.862  0.00  0.00     0.163 HD
BRANCH   3   6
HETATM    6  C           1     -21.666  -4.663  -8.234  0.00  0.00     0.283 C 
BRANCH   6   7
HETATM    7  C           1     -20.513  -4.327  -9.171  0.00  0.00     0.145 C 
BRANCH   7   8
HETATM    8  C           1     -21.045  -4.110 -10.566  0.00  0.00     0.217 C 
HETATM    9  N           1     -20.336  -3.349 -11.458  0.00  0.00    -0.370 N 
HETATM   10  H           1     -20.693  -3.203 -12.394  0.00  0.00     0.159 HD
HETATM   11  H           1     -19.456  -2.934 -11.181  0.00  0.00     0.159 HD
HETATM   12  O           1     -22.096  -4.604 -10.896  0.00  0.00    -0.274 OA
ENDBRANCH   7   8
ENDBRANCH   6   7
BRANCH   6  13
HETATM   13  N           1     -22.543  -3.457  -8.070  0.00  0.00    -0.066 N 
HETATM   14  H           1     -22.682  -3.262  -7.053  0.00  0.00     0.275 HD
HETATM   15  H           1     -22.089  -2.632  -8.524  0.00  0.00     0.275 HD
HETATM   16  H           1     -23.469  -3.636  -8.520  0.00  0.00     0.275 HD
ENDBRANCH   6  13
ENDBRANCH   3   6
ENDBRANCH   1   2
BRANCH   1  17
HETATM   17  C           1     -22.021  -6.544  -4.009  0.00  0.00     0.038 C 
BRANCH  17  18
HETATM   18  C           1     -21.398  -6.120  -2.686  0.00  0.00     0.023 C 
BRANCH  18  19
HETATM   19  C           1     -22.285  -6.580  -1.535  0.00  0.00     0.138 C 
BRANCH  19  20
HETATM   20  N           1     -21.934  -7.959  -1.165  0.00  0.00    -0.227 N 
HETATM   21  C           1     -22.535  -8.530  -0.209  0.00  0.00     0.665 C 
HETATM   22  N           1     -23.438  -7.914   0.430  0.00  0.00    -0.235 N 
HETATM   23  N           1     -22.225  -9.750   0.118  0.00  0.00    -0.235 N 
HETATM   24  H           1     -23.689  -6.929   0.166  0.00  0.00     0.174 HD
HETATM   25  H           1     -23.937  -8.388   1.223  0.00  0.00     0.174 HD
HETATM   26  H           1     -22.721 -10.220   0.908  0.00  0.00     0.174 HD
HETATM   27  H           1     -21.479 -10.258  -0.409  0.00  0.00     0.174 HD
HETATM   28  H           1     -21.185  -8.470  -1.694  0.00  0.00     0.177 HD
ENDBRANCH  19  20
ENDBRANCH  18  19
ENDBRANCH  17  18
ENDBRANCH   1  17
BRANCH   1  29
HETATM   29  C           1     -20.471  -8.119  -5.125  0.00  0.00     0.196 C 
HETATM   30  O           1     -19.380  -8.403  -5.668  0.00  0.00    -0.646 OA
HETATM   31  O           1     -21.178  -9.025  -4.634  0.00  0.00    -0.646 OA
ENDBRANCH   1  29
TORSDOF 10
ENDMDL
