MODEL 1
REMARK VINA RESULT:      -6.3      0.000      0.000
REMARK  3 active torsions:
REMARK  status: ('A' for Active; 'I' for Inactive)
REMARK    1  A    between atoms: N_1  and  C_7 
REMARK    2  A    between atoms: C_7  and  C_11 
REMARK       I    between atoms: C_11  and  N_12 
REMARK    3  A    between atoms: C_13  and  C_15 
ROOT
HETATM    1  O           1     -24.552  -4.019 -13.800  0.00  0.00    -0.272 OA
HETATM    2  C           1     -21.982  -2.467 -11.792  0.00  0.00     0.127 C 
HETATM    3  C           1     -21.060  -3.437 -11.070  0.00  0.00     0.022 C 
HETATM    4  C           1     -21.943  -4.624 -10.701  0.00  0.00     0.038 C 
HETATM    5  C           1     -23.673  -3.240 -13.518  0.00  0.00     0.246 C 
HETATM    6  N           1     -23.054  -3.317 -12.300  0.00  0.00    -0.336 N 
HETATM    7  C           1     -23.324  -4.268 -11.224  0.00  0.00     0.188 C 
ENDROOT
BRANCH   5   8
HETATM    8  C           1     -23.256  -2.182 -14.510  0.00  0.00     0.332 C 
BRANCH   8   9
HETATM    9  N           1     -24.145  -0.982 -14.366  0.00  0.00    -0.071 N 
HETATM   10  H           1     -25.119  -1.294 -14.149  0.00  0.00     0.274 HD
HETATM   11  H           1     -23.792  -0.379 -13.590  0.00  0.00     0.274 HD
HETATM   12  H           1     -24.145  -0.440 -15.260  0.00  0.00     0.274 HD
ENDBRANCH   8   9
ENDBRANCH   5   8
BRANCH   7  13
HETATM   13  C           1     -24.160  -3.631 -10.142  0.00  0.00     0.196 C 
HETATM   14  O           1     -25.255  -3.101 -10.429  0.00  0.00    -0.646 OA
HETATM   15  O           1     -23.759  -3.634  -8.958  0.00  0.00    -0.646 OA
ENDBRANCH   7  13
TORSDOF 3
ENDMDL
MODEL 2
REMARK VINA RESULT:      -5.2      2.742      4.870
REMARK  3 active torsions:
REMARK  status: ('A' for Active; 'I' for Inactive)
REMARK    1  A    between atoms: N_1  and  C_7 
REMARK    2  A    between atoms: C_7  and  C_11 
REMARK       I    between atoms: C_11  and  N_12 
REMARK    3  A    between atoms: C_13  and  C_15 
ROOT
HETATM    1  O           1     -22.458  -4.064  -7.557  0.00  0.00    -0.272 OA
HETATM    2  C           1     -20.546  -4.699 -10.554  0.00  0.00     0.127 C 
HETATM    3  C           1     -20.422  -3.514 -11.498  0.00  0.00     0.022 C 
HETATM    4  C           1     -21.747  -2.770 -11.376  0.00  0.00     0.038 C 
HETATM    5  C           1     -21.550  -4.481  -8.233  0.00  0.00     0.246 C 
HETATM    6  N           1     -21.552  -4.271  -9.586  0.00  0.00    -0.336 N 
HETATM    7  C           1     -22.561  -3.572 -10.376  0.00  0.00     0.188 C 
ENDROOT
BRANCH   5   8
HETATM    8  C           1     -20.410  -5.231  -7.588  0.00  0.00     0.332 C 
BRANCH   8   9
HETATM    9  N           1     -20.922  -6.516  -7.008  0.00  0.00    -0.071 N 
HETATM   10  H           1     -21.936  -6.623  -7.238  0.00  0.00     0.274 HD
HETATM   11  H           1     -20.387  -7.318  -7.413  0.00  0.00     0.274 HD
HETATM   12  H           1     -20.800  -6.502  -5.970  0.00  0.00     0.274 HD
ENDBRANCH   8   9
ENDBRANCH   5   8
BRANCH   7  13
HETATM   13  C           1     -23.465  -4.552 -11.082  0.00  0.00     0.196 C 
HETATM   14  O           1     -23.982  -5.496 -10.446  0.00  0.00    -0.646 OA
HETATM   15  O           1     -23.698  -4.421 -12.304  0.00  0.00    -0.646 OA
ENDBRANCH   7  13
TORSDOF 3
ENDMDL
MODEL 3
REMARK VINA RESULT:      -5.1      3.045      4.999
REMARK  3 active torsions:
REMARK  status: ('A' for Active; 'I' for Inactive)
REMARK    1  A    between atoms: N_1  and  C_7 
REMARK    2  A    between atoms: C_7  and  C_11 
REMARK       I    between atoms: C_11  and  N_12 
REMARK    3  A    between atoms: C_13  and  C_15 
ROOT
HETATM    1  O           1     -20.027  -4.908  -9.014  0.00  0.00    -0.272 OA
HETATM    2  C           1     -23.395  -3.605  -9.085  0.00  0.00     0.127 C 
HETATM    3  C           1     -24.383  -4.428  -9.895  0.00  0.00     0.022 C 
HETATM    4  C           1     -23.574  -4.986 -11.060  0.00  0.00     0.038 C 
HETATM    5  C           1     -21.045  -4.422  -8.584  0.00  0.00     0.246 C 
HETATM    6  N           1     -22.098  -4.182  -9.425  0.00  0.00    -0.336 N 
HETATM    7  C           1     -22.168  -4.447 -10.860  0.00  0.00     0.188 C 
ENDROOT
BRANCH   5   8
HETATM    8  C           1     -21.158  -4.080  -7.118  0.00  0.00     0.332 C 
BRANCH   8   9
HETATM    9  N           1     -21.642  -5.280  -6.360  0.00  0.00    -0.071 N 
HETATM   10  H           1     -22.676  -5.210  -6.218  0.00  0.00     0.274 HD
HETATM   11  H           1     -21.424  -6.146  -6.903  0.00  0.00     0.274 HD
HETATM   12  H           1     -21.165  -5.321  -5.431  0.00  0.00     0.274 HD
ENDBRANCH   8   9
ENDBRANCH   5   8
BRANCH   7  13
HETATM   13  C           1     -21.961  -3.179 -11.651  0.00  0.00     0.196 C 
HETATM   14  O           1     -22.824  -2.809 -12.475  0.00  0.00    -0.646 OA
HETATM   15  O           1     -20.926  -2.498 -11.481  0.00  0.00    -0.646 OA
ENDBRANCH   7  13
TORSDOF 3
ENDMDL
MODEL 4
REMARK VINA RESULT:      -4.7     15.331     16.438
REMARK  3 active torsions:
REMARK  status: ('A' for Active; 'I' for Inactive)
REMARK    1  A    between atoms: N_1  and  C_7 
REMARK    2  A    between atoms: C_7  and  C_11 
REMARK       I    between atoms: C_11  and  N_12 
REMARK    3  A    between atoms: C_13  and  C_15 
ROOT
HETATM    1  O           1     -14.703   5.303 -19.774  0.00  0.00    -0.272 OA
HETATM    2  C           1     -11.972   4.384 -21.952  0.00  0.00     0.127 C 
HETATM    3  C           1     -11.072   3.281 -21.419  0.00  0.00     0.022 C 
HETATM    4  C           1     -11.031   3.495 -19.910  0.00  0.00     0.038 C 
HETATM    5  C           1     -14.144   5.027 -20.808  0.00  0.00     0.246 C 
HETATM    6  N           1     -12.806   4.736 -20.807  0.00  0.00    -0.336 N 
HETATM    7  C           1     -11.903   4.713 -19.660  0.00  0.00     0.188 C 
ENDROOT
BRANCH   5   8
HETATM    8  C           1     -14.920   5.000 -22.102  0.00  0.00     0.332 C 
BRANCH   8   9
HETATM    9  N           1     -14.837   6.343 -22.764  0.00  0.00    -0.071 N 
HETATM   10  H           1     -14.458   6.232 -23.732  0.00  0.00     0.274 HD
HETATM   11  H           1     -15.791   6.767 -22.811  0.00  0.00     0.274 HD
HETATM   12  H           1     -14.205   6.965 -22.211  0.00  0.00     0.274 HD
ENDBRANCH   8   9
ENDBRANCH   5   8
BRANCH   7  13
HETATM   13  C           1     -11.068   5.969 -19.608  0.00  0.00     0.196 C 
HETATM   14  O           1     -11.622   7.089 -19.642  0.00  0.00    -0.646 OA
HETATM   15  O           1      -9.823   5.890 -19.531  0.00  0.00    -0.646 OA
ENDBRANCH   7  13
TORSDOF 3
ENDMDL
MODEL 5
REMARK VINA RESULT:      -4.7     15.989     17.222
REMARK  3 active torsions:
REMARK  status: ('A' for Active; 'I' for Inactive)
REMARK    1  A    between atoms: N_1  and  C_7 
REMARK    2  A    between atoms: C_7  and  C_11 
REMARK       I    between atoms: C_11  and  N_12 
REMARK    3  A    between atoms: C_13  and  C_15 
ROOT
HETATM    1  O           1     -11.104   7.062 -22.262  0.00  0.00    -0.272 OA
HETATM    2  C           1     -10.750   4.443 -19.801  0.00  0.00     0.127 C 
HETATM    3  C           1     -11.214   3.069 -20.256  0.00  0.00     0.022 C 
HETATM    4  C           1     -12.405   3.335 -21.172  0.00  0.00     0.038 C 
HETATM    5  C           1     -10.575   6.409 -21.396  0.00  0.00     0.246 C 
HETATM    6  N           1     -11.230   5.339 -20.849  0.00  0.00    -0.336 N 
HETATM    7  C           1     -12.563   4.845 -21.185  0.00  0.00     0.188 C 
ENDROOT
BRANCH   5   8
HETATM    8  C           1      -9.190   6.770 -20.917  0.00  0.00     0.332 C 
BRANCH   8   9
HETATM    9  N           1      -9.115   8.248 -20.671  0.00  0.00    -0.071 N 
HETATM   10  H           1      -9.383   8.451 -19.681  0.00  0.00     0.274 HD
HETATM   11  H           1      -8.138   8.579 -20.841  0.00  0.00     0.274 HD
HETATM   12  H           1      -9.770   8.742 -21.318  0.00  0.00     0.274 HD
ENDBRANCH   8   9
ENDBRANCH   5   8
BRANCH   7  13
HETATM   13  C           1     -13.575   5.289 -20.158  0.00  0.00     0.196 C 
HETATM   14  O           1     -14.380   4.462 -19.676  0.00  0.00    -0.646 OA
HETATM   15  O           1     -13.609   6.482 -19.787  0.00  0.00    -0.646 OA
ENDBRANCH   7  13
TORSDOF 3
ENDMDL
MODEL 6
REMARK VINA RESULT:      -4.5     11.408     13.122
REMARK  3 active torsions:
REMARK  status: ('A' for Active; 'I' for Inactive)
REMARK    1  A    between atoms: N_1  and  C_7 
REMARK    2  A    between atoms: C_7  and  C_11 
REMARK       I    between atoms: C_11  and  N_12 
REMARK    3  A    between atoms: C_13  and  C_15 
ROOT
HETATM    1  O           1     -22.305  -7.447   0.141  0.00  0.00    -0.272 OA
HETATM    2  C           1     -21.987 -10.139  -2.246  0.00  0.00     0.127 C 
HETATM    3  C           1     -23.148 -11.118  -2.265  0.00  0.00     0.022 C 
HETATM    4  C           1     -23.618 -11.206  -0.817  0.00  0.00     0.038 C 
HETATM    5  C           1     -22.060  -7.980  -0.914  0.00  0.00     0.246 C 
HETATM    6  N           1     -22.231  -9.331  -1.055  0.00  0.00    -0.336 N 
HETATM    7  C           1     -22.696 -10.278  -0.046  0.00  0.00     0.188 C 
ENDROOT
BRANCH   5   8
HETATM    8  C           1     -21.566  -7.157  -2.079  0.00  0.00     0.332 C 
BRANCH   8   9
HETATM    9  N           1     -22.345  -5.877  -2.153  0.00  0.00    -0.071 N 
HETATM   10  H           1     -23.109  -5.974  -2.861  0.00  0.00     0.274 HD
HETATM   11  H           1     -22.762  -5.669  -1.218  0.00  0.00     0.274 HD
HETATM   12  H           1     -21.708  -5.097  -2.433  0.00  0.00     0.274 HD
ENDBRANCH   8   9
ENDBRANCH   5   8
BRANCH   7  13
HETATM   13  C           1     -21.538 -11.042   0.547  0.00  0.00     0.196 C 
HETATM   14  O           1     -20.539 -10.428   0.980  0.00  0.00    -0.646 OA
HETATM   15  O           1     -21.577 -12.291   0.607  0.00  0.00    -0.646 OA
ENDBRANCH   7  13
TORSDOF 3
ENDMDL
MODEL 7
REMARK VINA RESULT:      -4.5     10.520     12.079
REMARK  3 active torsions:
REMARK  status: ('A' for Active; 'I' for Inactive)
REMARK    1  A    between atoms: N_1  and  C_7 
REMARK    2  A    between atoms: C_7  and  C_11 
REMARK       I    between atoms: C_11  and  N_12 
REMARK    3  A    between atoms: C_13  and  C_15 
ROOT
HETATM    1  O           1     -20.455  -8.294  -3.152  0.00  0.00    -0.272 OA
HETATM    2  C           1     -22.554  -7.540  -0.311  0.00  0.00     0.127 C 
HETATM    3  C           1     -21.991  -7.972   1.033  0.00  0.00     0.022 C 
HETATM    4  C           1     -21.232  -9.264   0.750  0.00  0.00     0.038 C 
HETATM    5  C           1     -21.185  -7.642  -2.446  0.00  0.00     0.246 C 
HETATM    6  N           1     -21.667  -8.177  -1.281  0.00  0.00    -0.336 N 
HETATM    7  C           1     -21.407  -9.507  -0.739  0.00  0.00     0.188 C 
ENDROOT
BRANCH   5   8
HETATM    8  C           1     -21.566  -6.237  -2.846  0.00  0.00     0.332 C 
BRANCH   8   9
HETATM    9  N           1     -22.241  -6.264  -4.185  0.00  0.00    -0.071 N 
HETATM   10  H           1     -22.056  -5.366  -4.687  0.00  0.00     0.274 HD
HETATM   11  H           1     -21.866  -7.060  -4.748  0.00  0.00     0.274 HD
HETATM   12  H           1     -23.271  -6.383  -4.053  0.00  0.00     0.274 HD
ENDBRANCH   8   9
ENDBRANCH   5   8
BRANCH   7  13
HETATM   13  C           1     -22.572 -10.430  -0.999  0.00  0.00     0.196 C 
HETATM   14  O           1     -22.906 -10.699  -2.173  0.00  0.00    -0.646 OA
HETATM   15  O           1     -23.204 -10.926  -0.041  0.00  0.00    -0.646 OA
ENDBRANCH   7  13
TORSDOF 3
ENDMDL
MODEL 8
REMARK VINA RESULT:      -4.3     11.771     13.620
REMARK  3 active torsions:
REMARK  status: ('A' for Active; 'I' for Inactive)
REMARK    1  A    between atoms: N_1  and  C_7 
REMARK    2  A    between atoms: C_7  and  C_11 
REMARK       I    between atoms: C_11  and  N_12 
REMARK    3  A    between atoms: C_13  and  C_15 
ROOT
HETATM    1  O           1     -20.541 -10.193   1.516  0.00  0.00    -0.272 OA
HETATM    2  C           1     -21.773 -10.017  -1.875  0.00  0.00     0.127 C 
HETATM    3  C           1     -20.989  -9.095  -2.794  0.00  0.00     0.022 C 
HETATM    4  C           1     -20.532  -7.943  -1.906  0.00  0.00     0.038 C 
HETATM    5  C           1     -20.974 -10.596   0.463  0.00  0.00     0.246 C 
HETATM    6  N           1     -21.250  -9.713  -0.546  0.00  0.00    -0.336 N 
HETATM    7  C           1     -21.085  -8.262  -0.528  0.00  0.00     0.188 C 
ENDROOT
BRANCH   5   8
HETATM    8  C           1     -21.209 -12.073   0.259  0.00  0.00     0.332 C 
BRANCH   8   9
HETATM    9  N           1     -22.562 -12.443   0.792  0.00  0.00    -0.071 N 
HETATM   10  H           1     -22.509 -13.378   1.256  0.00  0.00     0.274 HD
HETATM   11  H           1     -22.868 -11.726   1.488  0.00  0.00     0.274 HD
HETATM   12  H           1     -23.247 -12.482   0.004  0.00  0.00     0.274 HD
ENDBRANCH   8   9
ENDBRANCH   5   8
BRANCH   7  13
HETATM   13  C           1     -22.410  -7.574  -0.309  0.00  0.00     0.196 C 
HETATM   14  O           1     -22.718  -6.577  -0.997  0.00  0.00    -0.646 OA
HETATM   15  O           1     -23.201  -8.002   0.560  0.00  0.00    -0.646 OA
ENDBRANCH   7  13
TORSDOF 3
ENDMDL
MODEL 9
REMARK VINA RESULT:      -4.3     11.457     13.014
REMARK  3 active torsions:
REMARK  status: ('A' for Active; 'I' for Inactive)
REMARK    1  A    between atoms: N_1  and  C_7 
REMARK    2  A    between atoms: C_7  and  C_11 
REMARK       I    between atoms: C_11  and  N_12 
REMARK    3  A    between atoms: C_13  and  C_15 
ROOT
HETATM    1  O           1     -21.629  -8.611  -2.714  0.00  0.00    -0.272 OA
HETATM    2  C           1     -21.925  -8.287   0.871  0.00  0.00     0.127 C 
HETATM    3  C           1     -20.856  -9.013   1.670  0.00  0.00     0.022 C 
HETATM    4  C           1     -20.550 -10.274   0.869  0.00  0.00     0.038 C 
HETATM    5  C           1     -21.807  -8.061  -1.654  0.00  0.00     0.246 C 
HETATM    6  N           1     -21.739  -8.779  -0.491  0.00  0.00    -0.336 N 
HETATM    7  C           1     -21.464 -10.206  -0.341  0.00  0.00     0.188 C 
ENDROOT
BRANCH   5   8
HETATM    8  C           1     -22.104  -6.582  -1.611  0.00  0.00     0.332 C 
BRANCH   8   9
HETATM    9  N           1     -22.077  -6.025  -3.003  0.00  0.00    -0.071 N 
HETATM   10  H           1     -21.565  -5.113  -3.004  0.00  0.00     0.274 HD
HETATM   11  H           1     -21.589  -6.698  -3.637  0.00  0.00     0.274 HD
HETATM   12  H           1     -23.055  -5.876  -3.337  0.00  0.00     0.274 HD
ENDBRANCH   8   9
ENDBRANCH   5   8
BRANCH   7  13
HETATM   13  C           1     -22.739 -10.975  -0.095  0.00  0.00     0.196 C 
HETATM   14  O           1     -22.743 -11.939   0.701  0.00  0.00    -0.646 OA
HETATM   15  O           1     -23.791 -10.648  -0.687  0.00  0.00    -0.646 OA
ENDBRANCH   7  13
TORSDOF 3
ENDMDL
