MODEL 1
REMARK VINA RESULT:      -7.0      0.000      0.000
REMARK  16 active torsions:
REMARK  status: ('A' for Active; 'I' for Inactive)
REMARK    1  A    between atoms: C_1  and  C_29 
REMARK    2  A    between atoms: C_1  and  C_21 
REMARK    3  A    between atoms: C_2  and  C_33 
REMARK    4  A    between atoms: N_5  and  C_33 
REMARK    5  A    between atoms: N_5  and  C_6 
REMARK    6  A    between atoms: C_6  and  C_7 
REMARK    7  A    between atoms: C_7  and  C_8 
REMARK    8  A    between atoms: C_8  and  C_30 
REMARK    9  A    between atoms: C_8  and  N_27 
REMARK       I    between atoms: C_9  and  N_10 
REMARK       I    between atoms: C_9  and  N_11 
REMARK   10  A    between atoms: N_12  and  C_29 
REMARK   11  A    between atoms: C_21  and  C_22 
REMARK   12  A    between atoms: C_22  and  N_23 
REMARK   13  A    between atoms: Se_25  and  C_35 
REMARK       I    between atoms: N_27  and  C_28 
REMARK   14  A    between atoms: C_28  and  C_29 
REMARK   15  A    between atoms: C_33  and  C_34 
REMARK   16  A    between atoms: C_34  and  C_35 
ROOT
HETATM    1  O           1     -19.730  -4.880  -6.869  0.00  0.00    -0.271 OA
HETATM    2  H           1     -22.591  -6.097  -6.450  0.00  0.00     0.163 HD
HETATM    3  N           1     -21.622  -5.891  -6.247  0.00  0.00    -0.345 N 
HETATM    4  C           1     -20.887  -5.126  -7.113  0.00  0.00     0.249 C 
ENDROOT
BRANCH   4   5
HETATM    5  C           1     -21.524  -4.590  -8.371  0.00  0.00     0.274 C 
BRANCH   5   6
HETATM    6  C           1     -20.444  -4.037  -9.291  0.00  0.00     0.044 C 
BRANCH   6   7
HETATM    7  C           1     -20.773  -4.394 -10.734  0.00  0.00     0.023 C 
BRANCH   7   8
HETATM    8  C           1     -21.672  -3.320 -11.332  0.00  0.00     0.138 C 
BRANCH   8   9
HETATM    9  N           1     -21.708  -3.469 -12.794  0.00  0.00    -0.227 N 
HETATM   10  C           1     -22.633  -2.921 -13.464  0.00  0.00     0.665 C 
HETATM   11  N           1     -22.663  -3.048 -14.722  0.00  0.00    -0.235 N 
HETATM   12  N           1     -23.549  -2.226 -12.858  0.00  0.00    -0.235 N 
HETATM   13  H           1     -23.430  -2.594 -15.278  0.00  0.00     0.174 HD
HETATM   14  H           1     -21.923  -3.609 -15.212  0.00  0.00     0.174 HD
HETATM   15  H           1     -24.313  -1.774 -13.410  0.00  0.00     0.174 HD
HETATM   16  H           1     -23.524  -2.121 -11.818  0.00  0.00     0.174 HD
HETATM   17  H           1     -20.967  -4.029 -13.284  0.00  0.00     0.177 HD
ENDBRANCH   8   9
ENDBRANCH   7   8
ENDBRANCH   6   7
ENDBRANCH   5   6
BRANCH   5  18
HETATM   18  N           1     -22.488  -3.497  -8.018  0.00  0.00    -0.067 N 
HETATM   19  H           1     -22.297  -3.165  -7.045  0.00  0.00     0.275 HD
HETATM   20  H           1     -22.371  -2.702  -8.686  0.00  0.00     0.275 HD
HETATM   21  H           1     -23.465  -3.862  -8.075  0.00  0.00     0.275 HD
ENDBRANCH   5  18
ENDBRANCH   4   5
BRANCH   3  22
HETATM   22  C           1     -21.010  -6.406  -5.036  0.00  0.00     0.187 C 
BRANCH  22  23
HETATM   23  C           1     -22.026  -6.377  -3.903  0.00  0.00     0.066 C 
BRANCH  23  24
HETATM   24  C           1     -21.296  -6.296  -2.568  0.00  0.00     0.273 C 
BRANCH  24  25
HETATM   25  N           1     -22.216  -6.576  -1.500  0.00  0.00     0.098 N 
HETATM   26  H           1     -23.172  -6.435  -1.828  0.00  0.00     0.317 HD
BRANCH  25  27
HETATM   27  C           1     -22.040  -7.951  -1.119  0.00  0.00     0.320 C 
BRANCH  27  28
HETATM   28  C           1     -22.407  -8.121   0.335  0.00  0.00     0.207 C 
HETATM   29  O           1     -21.524  -8.038   1.216  0.00  0.00    -0.646 OA
HETATM   30  O           1     -23.594  -8.344   0.657  0.00  0.00    -0.646 OA
ENDBRANCH  27  28
BRANCH  27  31
HETATM   31  C           1     -20.586  -8.353  -1.326  0.00  0.00     0.047 C 
BRANCH  31  32
HETATM   32  C           1     -20.506  -9.847  -1.615  0.00  0.00     0.003 C 
BRANCH  32  33
HETATM   33 Se           1     -21.954 -10.355  -2.817  0.00  0.00     0.000 Se
HETATM   34  C           1     -22.817 -11.545  -1.538  0.00  0.00     0.000 C 
ENDBRANCH  32  33
ENDBRANCH  31  32
ENDBRANCH  27  31
ENDBRANCH  25  27
ENDBRANCH  24  25
ENDBRANCH  23  24
ENDBRANCH  22  23
BRANCH  22  35
HETATM   35  C           1     -20.555  -7.825  -5.269  0.00  0.00     0.196 C 
HETATM   36  O           1     -19.479  -8.226  -4.773  0.00  0.00    -0.646 OA
HETATM   37  O           1     -21.252  -8.601  -5.957  0.00  0.00    -0.646 OA
ENDBRANCH  22  35
ENDBRANCH   3  22
TORSDOF 16
ENDMDL
MODEL 2
REMARK VINA RESULT:      -6.6     14.010     16.422
REMARK  16 active torsions:
REMARK  status: ('A' for Active; 'I' for Inactive)
REMARK    1  A    between atoms: C_1  and  C_29 
REMARK    2  A    between atoms: C_1  and  C_21 
REMARK    3  A    between atoms: C_2  and  C_33 
REMARK    4  A    between atoms: N_5  and  C_33 
REMARK    5  A    between atoms: N_5  and  C_6 
REMARK    6  A    between atoms: C_6  and  C_7 
REMARK    7  A    between atoms: C_7  and  C_8 
REMARK    8  A    between atoms: C_8  and  C_30 
REMARK    9  A    between atoms: C_8  and  N_27 
REMARK       I    between atoms: C_9  and  N_10 
REMARK       I    between atoms: C_9  and  N_11 
REMARK   10  A    between atoms: N_12  and  C_29 
REMARK   11  A    between atoms: C_21  and  C_22 
REMARK   12  A    between atoms: C_22  and  N_23 
REMARK   13  A    between atoms: Se_25  and  C_35 
REMARK       I    between atoms: N_27  and  C_28 
REMARK   14  A    between atoms: C_28  and  C_29 
REMARK   15  A    between atoms: C_33  and  C_34 
REMARK   16  A    between atoms: C_34  and  C_35 
ROOT
HETATM    1  O           1     -37.833  -0.467 -12.967  0.00  0.00    -0.271 OA
HETATM    2  H           1     -35.402   0.732 -11.388  0.00  0.00     0.163 HD
HETATM    3  N           1     -36.303   0.293 -11.529  0.00  0.00    -0.345 N 
HETATM    4  C           1     -36.758   0.056 -12.799  0.00  0.00     0.249 C 
ENDROOT
BRANCH   4   5
HETATM    5  C           1     -35.916   0.449 -13.987  0.00  0.00     0.274 C 
BRANCH   5   6
HETATM    6  C           1     -35.445  -0.804 -14.714  0.00  0.00     0.044 C 
BRANCH   6   7
HETATM    7  C           1     -35.977  -0.794 -16.140  0.00  0.00     0.023 C 
BRANCH   7   8
HETATM    8  C           1     -35.084  -1.657 -17.022  0.00  0.00     0.138 C 
BRANCH   8   9
HETATM    9  N           1     -34.733  -2.892 -16.306  0.00  0.00    -0.227 N 
HETATM   10  C           1     -33.727  -3.569 -16.668  0.00  0.00     0.665 C 
HETATM   11  N           1     -33.425  -4.632 -16.051  0.00  0.00    -0.235 N 
HETATM   12  N           1     -33.004  -3.172 -17.673  0.00  0.00    -0.235 N 
HETATM   13  H           1     -32.590  -5.194 -16.352  0.00  0.00     0.174 HD
HETATM   14  H           1     -34.008  -4.953 -15.240  0.00  0.00     0.174 HD
HETATM   15  H           1     -32.174  -3.732 -17.973  0.00  0.00     0.174 HD
HETATM   16  H           1     -33.254  -2.295 -18.183  0.00  0.00     0.174 HD
HETATM   17  H           1     -35.317  -3.211 -15.494  0.00  0.00     0.177 HD
ENDBRANCH   8   9
ENDBRANCH   7   8
ENDBRANCH   6   7
ENDBRANCH   5   6
BRANCH   5  18
HETATM   18  N           1     -34.725   1.232 -13.519  0.00  0.00    -0.067 N 
HETATM   19  H           1     -33.894   0.601 -13.462  0.00  0.00     0.275 HD
HETATM   20  H           1     -34.530   2.005 -14.194  0.00  0.00     0.275 HD
HETATM   21  H           1     -34.922   1.634 -12.575  0.00  0.00     0.275 HD
ENDBRANCH   5  18
ENDBRANCH   4   5
BRANCH   3  22
HETATM   22  C           1     -37.112  -0.085 -10.387  0.00  0.00     0.187 C 
BRANCH  22  23
HETATM   23  C           1     -36.556  -1.363  -9.773  0.00  0.00     0.066 C 
BRANCH  23  24
HETATM   24  C           1     -35.253  -1.735 -10.468  0.00  0.00     0.273 C 
BRANCH  24  25
HETATM   25  N           1     -35.490  -2.817 -11.385  0.00  0.00     0.098 N 
HETATM   26  H           1     -35.375  -2.482 -12.342  0.00  0.00     0.317 HD
BRANCH  25  27
HETATM   27  C           1     -34.517  -3.840 -11.115  0.00  0.00     0.320 C 
BRANCH  27  28
HETATM   28  C           1     -33.417  -3.772 -12.147  0.00  0.00     0.207 C 
HETATM   29  O           1     -33.703  -3.750 -13.364  0.00  0.00    -0.646 OA
HETATM   30  O           1     -32.222  -3.738 -11.784  0.00  0.00    -0.646 OA
ENDBRANCH  27  28
BRANCH  27  31
HETATM   31  C           1     -35.188  -5.206 -11.176  0.00  0.00     0.047 C 
BRANCH  31  32
HETATM   32  C           1     -34.173  -6.287 -10.823  0.00  0.00     0.003 C 
BRANCH  32  33
HETATM   33 Se           1     -34.987  -7.569  -9.602  0.00  0.00     0.000 Se
HETATM   34  C           1     -33.696  -8.983  -9.966  0.00  0.00     0.000 C 
ENDBRANCH  32  33
ENDBRANCH  31  32
ENDBRANCH  27  31
ENDBRANCH  25  27
ENDBRANCH  24  25
ENDBRANCH  23  24
ENDBRANCH  22  23
BRANCH  22  35
HETATM   35  C           1     -37.081   1.021  -9.361  0.00  0.00     0.196 C 
HETATM   36  O           1     -36.201   1.025  -8.472  0.00  0.00    -0.646 OA
HETATM   37  O           1     -37.934   1.933  -9.399  0.00  0.00    -0.646 OA
ENDBRANCH  22  35
ENDBRANCH   3  22
TORSDOF 16
ENDMDL
MODEL 3
REMARK VINA RESULT:      -6.5      1.428      1.789
REMARK  16 active torsions:
REMARK  status: ('A' for Active; 'I' for Inactive)
REMARK    1  A    between atoms: C_1  and  C_29 
REMARK    2  A    between atoms: C_1  and  C_21 
REMARK    3  A    between atoms: C_2  and  C_33 
REMARK    4  A    between atoms: N_5  and  C_33 
REMARK    5  A    between atoms: N_5  and  C_6 
REMARK    6  A    between atoms: C_6  and  C_7 
REMARK    7  A    between atoms: C_7  and  C_8 
REMARK    8  A    between atoms: C_8  and  C_30 
REMARK    9  A    between atoms: C_8  and  N_27 
REMARK       I    between atoms: C_9  and  N_10 
REMARK       I    between atoms: C_9  and  N_11 
REMARK   10  A    between atoms: N_12  and  C_29 
REMARK   11  A    between atoms: C_21  and  C_22 
REMARK   12  A    between atoms: C_22  and  N_23 
REMARK   13  A    between atoms: Se_25  and  C_35 
REMARK       I    between atoms: N_27  and  C_28 
REMARK   14  A    between atoms: C_28  and  C_29 
REMARK   15  A    between atoms: C_33  and  C_34 
REMARK   16  A    between atoms: C_34  and  C_35 
ROOT
HETATM    1  O           1     -19.921  -4.337  -5.259  0.00  0.00    -0.271 OA
HETATM    2  H           1     -21.752  -6.461  -6.667  0.00  0.00     0.163 HD
HETATM    3  N           1     -21.158  -6.063  -5.951  0.00  0.00    -0.345 N 
HETATM    4  C           1     -20.630  -4.810  -6.115  0.00  0.00     0.249 C 
ENDROOT
BRANCH   4   5
HETATM    5  C           1     -20.934  -4.023  -7.366  0.00  0.00     0.274 C 
BRANCH   5   6
HETATM    6  C           1     -22.043  -4.717  -8.146  0.00  0.00     0.044 C 
BRANCH   6   7
HETATM    7  C           1     -22.771  -3.697  -9.011  0.00  0.00     0.023 C 
BRANCH   7   8
HETATM    8  C           1     -22.615  -4.070 -10.479  0.00  0.00     0.138 C 
BRANCH   8   9
HETATM    9  N           1     -23.404  -3.147 -11.307  0.00  0.00    -0.227 N 
HETATM   10  C           1     -23.048  -2.902 -12.497  0.00  0.00     0.665 C 
HETATM   11  N           1     -23.728  -2.107 -13.209  0.00  0.00    -0.235 N 
HETATM   12  N           1     -21.986  -3.468 -12.987  0.00  0.00    -0.235 N 
HETATM   13  H           1     -23.434  -1.904 -14.197  0.00  0.00     0.174 HD
HETATM   14  H           1     -24.587  -1.650 -12.814  0.00  0.00     0.174 HD
HETATM   15  H           1     -21.691  -3.266 -13.969  0.00  0.00     0.174 HD
HETATM   16  H           1     -21.424  -4.124 -12.398  0.00  0.00     0.174 HD
HETATM   17  H           1     -24.263  -2.691 -10.911  0.00  0.00     0.177 HD
ENDBRANCH   8   9
ENDBRANCH   7   8
ENDBRANCH   6   7
ENDBRANCH   5   6
BRANCH   5  18
HETATM   18  N           1     -19.701  -3.939  -8.216  0.00  0.00    -0.067 N 
HETATM   19  H           1     -19.476  -2.937  -8.407  0.00  0.00     0.275 HD
HETATM   20  H           1     -18.902  -4.386  -7.713  0.00  0.00     0.275 HD
HETATM   21  H           1     -19.868  -4.437  -9.120  0.00  0.00     0.275 HD
ENDBRANCH   5  18
ENDBRANCH   4   5
BRANCH   3  22
HETATM   22  C           1     -20.866  -6.820  -4.748  0.00  0.00     0.187 C 
BRANCH  22  23
HETATM   23  C           1     -22.012  -6.661  -3.758  0.00  0.00     0.066 C 
BRANCH  23  24
HETATM   24  C           1     -21.458  -6.230  -2.406  0.00  0.00     0.273 C 
BRANCH  24  25
HETATM   25  N           1     -22.333  -6.688  -1.361  0.00  0.00     0.098 N 
HETATM   26  H           1     -23.303  -6.523  -1.633  0.00  0.00     0.317 HD
BRANCH  25  27
HETATM   27  C           1     -22.116  -8.100  -1.196  0.00  0.00     0.320 C 
BRANCH  27  28
HETATM   28  C           1     -22.900  -8.592  -0.004  0.00  0.00     0.207 C 
HETATM   29  O           1     -22.920  -7.923   1.051  0.00  0.00    -0.646 OA
HETATM   30  O           1     -23.529  -9.671  -0.073  0.00  0.00    -0.646 OA
ENDBRANCH  27  28
BRANCH  27  31
HETATM   31  C           1     -20.633  -8.362  -0.973  0.00  0.00     0.047 C 
BRANCH  31  32
HETATM   32  C           1     -20.245  -9.681  -1.630  0.00  0.00     0.003 C 
BRANCH  32  33
HETATM   33 Se           1     -20.137 -11.077  -0.274  0.00  0.00     0.000 Se
HETATM   34  C           1     -18.420 -11.766  -0.886  0.00  0.00     0.000 C 
ENDBRANCH  32  33
ENDBRANCH  31  32
ENDBRANCH  27  31
ENDBRANCH  25  27
ENDBRANCH  24  25
ENDBRANCH  23  24
ENDBRANCH  22  23
BRANCH  22  35
HETATM   35  C           1     -20.704  -8.278  -5.101  0.00  0.00     0.196 C 
HETATM   36  O           1     -21.595  -9.100  -4.790  0.00  0.00    -0.646 OA
HETATM   37  O           1     -19.679  -8.666  -5.702  0.00  0.00    -0.646 OA
ENDBRANCH  22  35
ENDBRANCH   3  22
TORSDOF 16
ENDMDL
MODEL 4
REMARK VINA RESULT:      -6.5      2.983      4.826
REMARK  16 active torsions:
REMARK  status: ('A' for Active; 'I' for Inactive)
REMARK    1  A    between atoms: C_1  and  C_29 
REMARK    2  A    between atoms: C_1  and  C_21 
REMARK    3  A    between atoms: C_2  and  C_33 
REMARK    4  A    between atoms: N_5  and  C_33 
REMARK    5  A    between atoms: N_5  and  C_6 
REMARK    6  A    between atoms: C_6  and  C_7 
REMARK    7  A    between atoms: C_7  and  C_8 
REMARK    8  A    between atoms: C_8  and  C_30 
REMARK    9  A    between atoms: C_8  and  N_27 
REMARK       I    between atoms: C_9  and  N_10 
REMARK       I    between atoms: C_9  and  N_11 
REMARK   10  A    between atoms: N_12  and  C_29 
REMARK   11  A    between atoms: C_21  and  C_22 
REMARK   12  A    between atoms: C_22  and  N_23 
REMARK   13  A    between atoms: Se_25  and  C_35 
REMARK       I    between atoms: N_27  and  C_28 
REMARK   14  A    between atoms: C_28  and  C_29 
REMARK   15  A    between atoms: C_33  and  C_34 
REMARK   16  A    between atoms: C_34  and  C_35 
ROOT
HETATM    1  O           1     -22.178  -7.523  -5.147  0.00  0.00    -0.271 OA
HETATM    2  H           1     -20.183  -5.921  -3.333  0.00  0.00     0.163 HD
HETATM    3  N           1     -20.869  -6.623  -3.578  0.00  0.00    -0.345 N 
HETATM    4  C           1     -21.359  -6.685  -4.856  0.00  0.00     0.249 C 
ENDROOT
BRANCH   4   5
HETATM    5  C           1     -20.874  -5.707  -5.897  0.00  0.00     0.274 C 
BRANCH   5   6
HETATM    6  C           1     -22.071  -5.070  -6.591  0.00  0.00     0.044 C 
BRANCH   6   7
HETATM    7  C           1     -21.784  -4.937  -8.080  0.00  0.00     0.023 C 
BRANCH   7   8
HETATM    8  C           1     -22.378  -3.634  -8.599  0.00  0.00     0.138 C 
BRANCH   8   9
HETATM    9  N           1     -23.845  -3.724  -8.588  0.00  0.00    -0.227 N 
HETATM   10  C           1     -24.499  -3.536  -9.656  0.00  0.00     0.665 C 
HETATM   11  N           1     -25.762  -3.614  -9.646  0.00  0.00    -0.235 N 
HETATM   12  N           1     -23.872  -3.264 -10.761  0.00  0.00    -0.235 N 
HETATM   13  H           1     -26.304  -3.458 -10.531  0.00  0.00     0.174 HD
HETATM   14  H           1     -26.268  -3.834  -8.753  0.00  0.00     0.174 HD
HETATM   15  H           1     -24.411  -3.108 -11.643  0.00  0.00     0.174 HD
HETATM   16  H           1     -22.829  -3.200 -10.769  0.00  0.00     0.174 HD
HETATM   17  H           1     -24.351  -3.945  -7.694  0.00  0.00     0.177 HD
ENDBRANCH   8   9
ENDBRANCH   7   8
ENDBRANCH   6   7
ENDBRANCH   5   6
BRANCH   5  18
HETATM   18  N           1     -20.036  -6.430  -6.910  0.00  0.00    -0.067 N 
HETATM   19  H           1     -19.241  -5.819  -7.204  0.00  0.00     0.275 HD
HETATM   20  H           1     -19.663  -7.309  -6.487  0.00  0.00     0.275 HD
HETATM   21  H           1     -20.622  -6.663  -7.743  0.00  0.00     0.275 HD
ENDBRANCH   5  18
ENDBRANCH   4   5
BRANCH   3  22
HETATM   22  C           1     -21.334  -7.563  -2.577  0.00  0.00     0.187 C 
BRANCH  22  23
HETATM   23  C           1     -20.137  -8.242  -1.924  0.00  0.00     0.066 C 
BRANCH  23  24
HETATM   24  C           1     -20.206  -9.743  -2.176  0.00  0.00     0.273 C 
BRANCH  24  25
HETATM   25  N           1     -18.881 -10.252  -2.404  0.00  0.00     0.098 N 
HETATM   26  H           1     -18.940 -11.207  -2.760  0.00  0.00     0.317 HD
BRANCH  25  27
HETATM   27  C           1     -18.252  -9.412  -3.386  0.00  0.00     0.320 C 
BRANCH  27  28
HETATM   28  C           1     -18.673  -9.852  -4.767  0.00  0.00     0.207 C 
HETATM   29  O           1     -18.927  -8.999  -5.644  0.00  0.00    -0.646 OA
HETATM   30  O           1     -18.767 -11.070  -5.033  0.00  0.00    -0.646 OA
ENDBRANCH  27  28
BRANCH  27  31
HETATM   31  C           1     -16.739  -9.525  -3.256  0.00  0.00     0.047 C 
BRANCH  31  32
HETATM   32  C           1     -16.393 -10.682  -2.327  0.00  0.00     0.003 C 
BRANCH  32  33
HETATM   33 Se           1     -15.714 -12.178  -3.376  0.00  0.00     0.000 Se
HETATM   34  C           1     -15.190 -11.082  -4.901  0.00  0.00     0.000 C 
ENDBRANCH  32  33
ENDBRANCH  31  32
ENDBRANCH  27  31
ENDBRANCH  25  27
ENDBRANCH  24  25
ENDBRANCH  23  24
ENDBRANCH  22  23
BRANCH  22  35
HETATM   35  C           1     -22.129  -6.826  -1.527  0.00  0.00     0.196 C 
HETATM   36  O           1     -22.521  -7.427  -0.503  0.00  0.00    -0.646 OA
HETATM   37  O           1     -22.396  -5.615  -1.680  0.00  0.00    -0.646 OA
ENDBRANCH  22  35
ENDBRANCH   3  22
TORSDOF 16
ENDMDL
MODEL 5
REMARK VINA RESULT:      -6.4      2.177      2.749
REMARK  16 active torsions:
REMARK  status: ('A' for Active; 'I' for Inactive)
REMARK    1  A    between atoms: C_1  and  C_29 
REMARK    2  A    between atoms: C_1  and  C_21 
REMARK    3  A    between atoms: C_2  and  C_33 
REMARK    4  A    between atoms: N_5  and  C_33 
REMARK    5  A    between atoms: N_5  and  C_6 
REMARK    6  A    between atoms: C_6  and  C_7 
REMARK    7  A    between atoms: C_7  and  C_8 
REMARK    8  A    between atoms: C_8  and  C_30 
REMARK    9  A    between atoms: C_8  and  N_27 
REMARK       I    between atoms: C_9  and  N_10 
REMARK       I    between atoms: C_9  and  N_11 
REMARK   10  A    between atoms: N_12  and  C_29 
REMARK   11  A    between atoms: C_21  and  C_22 
REMARK   12  A    between atoms: C_22  and  N_23 
REMARK   13  A    between atoms: Se_25  and  C_35 
REMARK       I    between atoms: N_27  and  C_28 
REMARK   14  A    between atoms: C_28  and  C_29 
REMARK   15  A    between atoms: C_33  and  C_34 
REMARK   16  A    between atoms: C_34  and  C_35 
ROOT
HETATM    1  O           1     -21.015  -5.711  -4.328  0.00  0.00    -0.271 OA
HETATM    2  H           1     -19.643  -7.092  -6.789  0.00  0.00     0.163 HD
HETATM    3  N           1     -20.013  -7.001  -5.851  0.00  0.00    -0.345 N 
HETATM    4  C           1     -20.573  -5.818  -5.447  0.00  0.00     0.249 C 
ENDROOT
BRANCH   4   5
HETATM    5  C           1     -20.637  -4.651  -6.400  0.00  0.00     0.274 C 
BRANCH   5   6
HETATM    6  C           1     -21.892  -4.763  -7.257  0.00  0.00     0.044 C 
BRANCH   6   7
HETATM    7  C           1     -21.676  -4.027  -8.572  0.00  0.00     0.023 C 
BRANCH   7   8
HETATM    8  C           1     -22.676  -4.528  -9.606  0.00  0.00     0.138 C 
BRANCH   8   9
HETATM    9  N           1     -24.041  -4.212  -9.162  0.00  0.00    -0.227 N 
HETATM   10  C           1     -24.867  -3.696  -9.971  0.00  0.00     0.665 C 
HETATM   11  N           1     -26.042  -3.425  -9.589  0.00  0.00    -0.235 N 
HETATM   12  N           1     -24.507  -3.447 -11.195  0.00  0.00    -0.235 N 
HETATM   13  H           1     -26.727  -2.997 -10.260  0.00  0.00     0.174 HD
HETATM   14  H           1     -26.333  -3.627  -8.600  0.00  0.00     0.174 HD
HETATM   15  H           1     -25.188  -3.021 -11.864  0.00  0.00     0.174 HD
HETATM   16  H           1     -23.536  -3.671 -11.511  0.00  0.00     0.174 HD
HETATM   17  H           1     -24.332  -4.415  -8.173  0.00  0.00     0.177 HD
ENDBRANCH   8   9
ENDBRANCH   7   8
ENDBRANCH   6   7
ENDBRANCH   5   6
BRANCH   5  18
HETATM   18  N           1     -19.426  -4.660  -7.284  0.00  0.00    -0.067 N 
HETATM   19  H           1     -19.565  -3.988  -8.073  0.00  0.00     0.275 HD
HETATM   20  H           1     -18.589  -4.376  -6.728  0.00  0.00     0.275 HD
HETATM   21  H           1     -19.282  -5.621  -7.668  0.00  0.00     0.275 HD
ENDBRANCH   5  18
ENDBRANCH   4   5
BRANCH   3  22
HETATM   22  C           1     -19.951  -8.124  -4.936  0.00  0.00     0.187 C 
BRANCH  22  23
HETATM   23  C           1     -21.191  -8.991  -5.111  0.00  0.00     0.066 C 
BRANCH  23  24
HETATM   24  C           1     -21.739  -9.375  -3.743  0.00  0.00     0.273 C 
BRANCH  24  25
HETATM   25  N           1     -21.520  -8.297  -2.818  0.00  0.00     0.098 N 
HETATM   26  H           1     -22.100  -7.500  -3.080  0.00  0.00     0.317 HD
BRANCH  25  27
HETATM   27  C           1     -21.901  -8.757  -1.510  0.00  0.00     0.320 C 
BRANCH  27  28
HETATM   28  C           1     -22.234  -7.571  -0.638  0.00  0.00     0.207 C 
HETATM   29  O           1     -22.129  -7.661   0.604  0.00  0.00    -0.646 OA
HETATM   30  O           1     -22.614  -6.500  -1.158  0.00  0.00    -0.646 OA
ENDBRANCH  27  28
BRANCH  27  31
HETATM   31  C           1     -20.750  -9.537  -0.891  0.00  0.00     0.047 C 
BRANCH  31  32
HETATM   32  C           1     -21.258 -10.884  -0.392  0.00  0.00     0.003 C 
BRANCH  32  33
HETATM   33 Se           1     -23.183 -10.996  -0.668  0.00  0.00     0.000 Se
HETATM   34  C           1     -23.425 -12.542   0.493  0.00  0.00     0.000 C 
ENDBRANCH  32  33
ENDBRANCH  31  32
ENDBRANCH  27  31
ENDBRANCH  25  27
ENDBRANCH  24  25
ENDBRANCH  23  24
ENDBRANCH  22  23
BRANCH  22  35
HETATM   35  C           1     -18.719  -8.944  -5.229  0.00  0.00     0.196 C 
HETATM   36  O           1     -18.079  -9.469  -4.292  0.00  0.00    -0.646 OA
HETATM   37  O           1     -18.337  -9.098  -6.409  0.00  0.00    -0.646 OA
ENDBRANCH  22  35
ENDBRANCH   3  22
TORSDOF 16
ENDMDL
MODEL 6
REMARK VINA RESULT:      -6.3      2.373      3.314
REMARK  16 active torsions:
REMARK  status: ('A' for Active; 'I' for Inactive)
REMARK    1  A    between atoms: C_1  and  C_29 
REMARK    2  A    between atoms: C_1  and  C_21 
REMARK    3  A    between atoms: C_2  and  C_33 
REMARK    4  A    between atoms: N_5  and  C_33 
REMARK    5  A    between atoms: N_5  and  C_6 
REMARK    6  A    between atoms: C_6  and  C_7 
REMARK    7  A    between atoms: C_7  and  C_8 
REMARK    8  A    between atoms: C_8  and  C_30 
REMARK    9  A    between atoms: C_8  and  N_27 
REMARK       I    between atoms: C_9  and  N_10 
REMARK       I    between atoms: C_9  and  N_11 
REMARK   10  A    between atoms: N_12  and  C_29 
REMARK   11  A    between atoms: C_21  and  C_22 
REMARK   12  A    between atoms: C_22  and  N_23 
REMARK   13  A    between atoms: Se_25  and  C_35 
REMARK       I    between atoms: N_27  and  C_28 
REMARK   14  A    between atoms: C_28  and  C_29 
REMARK   15  A    between atoms: C_33  and  C_34 
REMARK   16  A    between atoms: C_34  and  C_35 
ROOT
HETATM    1  O           1     -19.518  -7.299  -6.389  0.00  0.00    -0.271 OA
HETATM    2  H           1     -21.167  -7.902  -3.789  0.00  0.00     0.163 HD
HETATM    3  N           1     -20.449  -8.021  -4.492  0.00  0.00    -0.345 N 
HETATM    4  C           1     -20.375  -7.156  -5.551  0.00  0.00     0.249 C 
ENDROOT
BRANCH   4   5
HETATM    5  C           1     -21.367  -6.025  -5.670  0.00  0.00     0.274 C 
BRANCH   5   6
HETATM    6  C           1     -20.620  -4.698  -5.706  0.00  0.00     0.044 C 
BRANCH   6   7
HETATM    7  C           1     -20.975  -3.950  -6.984  0.00  0.00     0.023 C 
BRANCH   7   8
HETATM    8  C           1     -21.954  -4.779  -7.804  0.00  0.00     0.138 C 
BRANCH   8   9
HETATM    9  N           1     -23.224  -4.051  -7.937  0.00  0.00    -0.227 N 
HETATM   10  C           1     -23.688  -3.793  -9.086  0.00  0.00     0.665 C 
HETATM   11  N           1     -24.782  -3.167  -9.200  0.00  0.00    -0.235 N 
HETATM   12  N           1     -23.043  -4.173 -10.148  0.00  0.00    -0.235 N 
HETATM   13  H           1     -25.168  -2.953 -10.153  0.00  0.00     0.174 HD
HETATM   14  H           1     -25.304  -2.860  -8.342  0.00  0.00     0.174 HD
HETATM   15  H           1     -23.426  -3.960 -11.097  0.00  0.00     0.174 HD
HETATM   16  H           1     -22.140  -4.691 -10.054  0.00  0.00     0.174 HD
HETATM   17  H           1     -23.746  -3.746  -7.079  0.00  0.00     0.177 HD
ENDBRANCH   8   9
ENDBRANCH   7   8
ENDBRANCH   6   7
ENDBRANCH   5   6
BRANCH   5  18
HETATM   18  N           1     -22.293  -6.045  -4.490  0.00  0.00    -0.067 N 
HETATM   19  H           1     -22.831  -5.150  -4.454  0.00  0.00     0.275 HD
HETATM   20  H           1     -22.956  -6.847  -4.584  0.00  0.00     0.275 HD
HETATM   21  H           1     -21.736  -6.153  -3.613  0.00  0.00     0.275 HD
ENDBRANCH   5  18
ENDBRANCH   4   5
BRANCH   3  22
HETATM   22  C           1     -19.496  -9.108  -4.376  0.00  0.00     0.187 C 
BRANCH  22  23
HETATM   23  C           1     -19.000  -9.198  -2.939  0.00  0.00     0.066 C 
BRANCH  23  24
HETATM   24  C           1     -19.955  -8.441  -2.025  0.00  0.00     0.273 C 
BRANCH  24  25
HETATM   25  N           1     -20.628  -9.370  -1.159  0.00  0.00     0.098 N 
HETATM   26  H           1     -20.263  -9.277  -0.210  0.00  0.00     0.317 HD
BRANCH  25  27
HETATM   27  C           1     -22.027  -9.043  -1.168  0.00  0.00     0.320 C 
BRANCH  27  28
HETATM   28  C           1     -22.257  -7.796  -0.350  0.00  0.00     0.207 C 
HETATM   29  O           1     -22.733  -6.774  -0.888  0.00  0.00    -0.646 OA
HETATM   30  O           1     -21.971  -7.786   0.868  0.00  0.00    -0.646 OA
ENDBRANCH  27  28
BRANCH  27  31
HETATM   31  C           1     -22.822 -10.196  -0.572  0.00  0.00     0.047 C 
BRANCH  31  32
HETATM   32  C           1     -21.871 -11.168   0.116  0.00  0.00     0.003 C 
BRANCH  32  33
HETATM   33 Se           1     -22.035 -12.929  -0.703  0.00  0.00     0.000 Se
HETATM   34  C           1     -23.947 -12.771  -1.047  0.00  0.00     0.000 C 
ENDBRANCH  32  33
ENDBRANCH  31  32
ENDBRANCH  27  31
ENDBRANCH  25  27
ENDBRANCH  24  25
ENDBRANCH  23  24
ENDBRANCH  22  23
BRANCH  22  35
HETATM   35  C           1     -20.165 -10.405  -4.760  0.00  0.00     0.196 C 
HETATM   36  O           1     -20.578 -11.183  -3.872  0.00  0.00    -0.646 OA
HETATM   37  O           1     -20.306 -10.703  -5.966  0.00  0.00    -0.646 OA
ENDBRANCH  22  35
ENDBRANCH   3  22
TORSDOF 16
ENDMDL
MODEL 7
REMARK VINA RESULT:      -6.2      3.619      9.929
REMARK  16 active torsions:
REMARK  status: ('A' for Active; 'I' for Inactive)
REMARK    1  A    between atoms: C_1  and  C_29 
REMARK    2  A    between atoms: C_1  and  C_21 
REMARK    3  A    between atoms: C_2  and  C_33 
REMARK    4  A    between atoms: N_5  and  C_33 
REMARK    5  A    between atoms: N_5  and  C_6 
REMARK    6  A    between atoms: C_6  and  C_7 
REMARK    7  A    between atoms: C_7  and  C_8 
REMARK    8  A    between atoms: C_8  and  C_30 
REMARK    9  A    between atoms: C_8  and  N_27 
REMARK       I    between atoms: C_9  and  N_10 
REMARK       I    between atoms: C_9  and  N_11 
REMARK   10  A    between atoms: N_12  and  C_29 
REMARK   11  A    between atoms: C_21  and  C_22 
REMARK   12  A    between atoms: C_22  and  N_23 
REMARK   13  A    between atoms: Se_25  and  C_35 
REMARK       I    between atoms: N_27  and  C_28 
REMARK   14  A    between atoms: C_28  and  C_29 
REMARK   15  A    between atoms: C_33  and  C_34 
REMARK   16  A    between atoms: C_34  and  C_35 
ROOT
HETATM    1  O           1     -20.860  -7.852  -4.406  0.00  0.00    -0.271 OA
HETATM    2  H           1     -21.807  -4.870  -4.174  0.00  0.00     0.163 HD
HETATM    3  N           1     -21.540  -5.736  -4.624  0.00  0.00    -0.345 N 
HETATM    4  C           1     -21.178  -6.818  -3.867  0.00  0.00     0.249 C 
ENDROOT
BRANCH   4   5
HETATM    5  C           1     -21.178  -6.719  -2.362  0.00  0.00     0.274 C 
BRANCH   5   6
HETATM    6  C           1     -21.265  -8.116  -1.761  0.00  0.00     0.044 C 
BRANCH   6   7
HETATM    7  C           1     -22.179  -8.090  -0.544  0.00  0.00     0.023 C 
BRANCH   7   8
HETATM    8  C           1     -22.079  -9.416   0.197  0.00  0.00     0.138 C 
BRANCH   8   9
HETATM    9  N           1     -22.170 -10.524  -0.765  0.00  0.00    -0.227 N 
HETATM   10  C           1     -23.220 -11.228  -0.823  0.00  0.00     0.665 C 
HETATM   11  N           1     -23.297 -12.182  -1.651  0.00  0.00    -0.235 N 
HETATM   12  N           1     -24.219 -10.971  -0.032  0.00  0.00    -0.235 N 
HETATM   13  H           1     -24.169 -12.766  -1.700  0.00  0.00     0.174 HD
HETATM   14  H           1     -22.491 -12.390  -2.290  0.00  0.00     0.174 HD
HETATM   15  H           1     -25.086 -11.553  -0.079  0.00  0.00     0.174 HD
HETATM   16  H           1     -24.155 -10.184   0.652  0.00  0.00     0.174 HD
HETATM   17  H           1     -21.363 -10.731  -1.404  0.00  0.00     0.177 HD
ENDBRANCH   8   9
ENDBRANCH   7   8
ENDBRANCH   6   7
ENDBRANCH   5   6
BRANCH   5  18
HETATM   18  N           1     -22.357  -5.908  -1.914  0.00  0.00    -0.067 N 
HETATM   19  H           1     -22.121  -5.412  -1.025  0.00  0.00     0.275 HD
HETATM   20  H           1     -22.596  -5.208  -2.651  0.00  0.00     0.275 HD
HETATM   21  H           1     -23.173  -6.540  -1.754  0.00  0.00     0.275 HD
ENDBRANCH   5  18
ENDBRANCH   4   5
BRANCH   3  22
HETATM   22  C           1     -21.541  -5.831  -6.071  0.00  0.00     0.187 C 
BRANCH  22  23
HETATM   23  C           1     -22.432  -4.740  -6.650  0.00  0.00     0.066 C 
BRANCH  23  24
HETATM   24  C           1     -22.189  -4.629  -8.150  0.00  0.00     0.273 C 
BRANCH  24  25
HETATM   25  N           1     -22.617  -3.337  -8.611  0.00  0.00     0.098 N 
HETATM   26  H           1     -21.819  -2.702  -8.637  0.00  0.00     0.317 HD
BRANCH  25  27
HETATM   27  C           1     -23.143  -3.498  -9.939  0.00  0.00     0.320 C 
BRANCH  27  28
HETATM   28  C           1     -24.594  -3.909  -9.859  0.00  0.00     0.207 C 
HETATM   29  O           1     -25.485  -3.039  -9.762  0.00  0.00    -0.646 OA
HETATM   30  O           1     -24.902  -5.120  -9.889  0.00  0.00    -0.646 OA
ENDBRANCH  27  28
BRANCH  27  31
HETATM   31  C           1     -22.351  -4.572 -10.672  0.00  0.00     0.047 C 
BRANCH  31  32
HETATM   32  C           1     -21.676  -3.961 -11.895  0.00  0.00     0.003 C 
BRANCH  32  33
HETATM   33 Se           1     -22.744  -2.468 -12.549  0.00  0.00     0.000 Se
HETATM   34  C           1     -24.103  -3.591 -13.380  0.00  0.00     0.000 C 
ENDBRANCH  32  33
ENDBRANCH  31  32
ENDBRANCH  27  31
ENDBRANCH  25  27
ENDBRANCH  24  25
ENDBRANCH  23  24
ENDBRANCH  22  23
BRANCH  22  35
HETATM   35  C           1     -20.134  -5.658  -6.587  0.00  0.00     0.196 C 
HETATM   36  O           1     -19.613  -6.548  -7.294  0.00  0.00    -0.646 OA
HETATM   37  O           1     -19.488  -4.625  -6.307  0.00  0.00    -0.646 OA
ENDBRANCH  22  35
ENDBRANCH   3  22
TORSDOF 16
ENDMDL
MODEL 8
REMARK VINA RESULT:      -6.2      3.188      4.595
REMARK  16 active torsions:
REMARK  status: ('A' for Active; 'I' for Inactive)
REMARK    1  A    between atoms: C_1  and  C_29 
REMARK    2  A    between atoms: C_1  and  C_21 
REMARK    3  A    between atoms: C_2  and  C_33 
REMARK    4  A    between atoms: N_5  and  C_33 
REMARK    5  A    between atoms: N_5  and  C_6 
REMARK    6  A    between atoms: C_6  and  C_7 
REMARK    7  A    between atoms: C_7  and  C_8 
REMARK    8  A    between atoms: C_8  and  C_30 
REMARK    9  A    between atoms: C_8  and  N_27 
REMARK       I    between atoms: C_9  and  N_10 
REMARK       I    between atoms: C_9  and  N_11 
REMARK   10  A    between atoms: N_12  and  C_29 
REMARK   11  A    between atoms: C_21  and  C_22 
REMARK   12  A    between atoms: C_22  and  N_23 
REMARK   13  A    between atoms: Se_25  and  C_35 
REMARK       I    between atoms: N_27  and  C_28 
REMARK   14  A    between atoms: C_28  and  C_29 
REMARK   15  A    between atoms: C_33  and  C_34 
REMARK   16  A    between atoms: C_34  and  C_35 
ROOT
HETATM    1  O           1     -22.790  -5.568  -5.774  0.00  0.00    -0.271 OA
HETATM    2  H           1     -19.895  -6.463  -4.963  0.00  0.00     0.163 HD
HETATM    3  N           1     -20.906  -6.453  -4.965  0.00  0.00    -0.345 N 
HETATM    4  C           1     -21.582  -5.577  -5.772  0.00  0.00     0.249 C 
ENDROOT
BRANCH   4   5
HETATM    5  C           1     -20.817  -4.626  -6.658  0.00  0.00     0.274 C 
BRANCH   5   6
HETATM    6  C           1     -21.769  -3.994  -7.666  0.00  0.00     0.044 C 
BRANCH   6   7
HETATM    7  C           1     -21.168  -4.092  -9.062  0.00  0.00     0.023 C 
BRANCH   7   8
HETATM    8  C           1     -22.285  -4.229 -10.088  0.00  0.00     0.138 C 
BRANCH   8   9
HETATM    9  N           1     -23.584  -4.022  -9.431  0.00  0.00    -0.227 N 
HETATM   10  C           1     -24.585  -3.651 -10.111  0.00  0.00     0.665 C 
HETATM   11  N           1     -25.703  -3.473  -9.545  0.00  0.00    -0.235 N 
HETATM   12  N           1     -24.464  -3.453 -11.390  0.00  0.00    -0.235 N 
HETATM   13  H           1     -26.534  -3.165 -10.109  0.00  0.00     0.174 HD
HETATM   14  H           1     -25.800  -3.633  -8.512  0.00  0.00     0.174 HD
HETATM   15  H           1     -25.291  -3.146 -11.952  0.00  0.00     0.174 HD
HETATM   16  H           1     -23.541  -3.600 -11.857  0.00  0.00     0.174 HD
HETATM   17  H           1     -23.681  -4.183  -8.398  0.00  0.00     0.177 HD
ENDBRANCH   8   9
ENDBRANCH   7   8
ENDBRANCH   6   7
ENDBRANCH   5   6
BRANCH   5  18
HETATM   18  N           1     -19.742  -5.376  -7.387  0.00  0.00    -0.067 N 
HETATM   19  H           1     -18.993  -5.653  -6.714  0.00  0.00     0.275 HD
HETATM   20  H           1     -20.152  -6.231  -7.825  0.00  0.00     0.275 HD
HETATM   21  H           1     -19.334  -4.764  -8.130  0.00  0.00     0.275 HD
ENDBRANCH   5  18
ENDBRANCH   4   5
BRANCH   3  22
HETATM   22  C           1     -21.641  -7.369  -4.114  0.00  0.00     0.187 C 
BRANCH  22  23
HETATM   23  C           1     -21.022  -8.757  -4.207  0.00  0.00     0.066 C 
BRANCH  23  24
HETATM   24  C           1     -19.606  -8.645  -4.759  0.00  0.00     0.273 C 
BRANCH  24  25
HETATM   25  N           1     -18.665  -9.056  -3.753  0.00  0.00     0.098 N 
HETATM   26  H           1     -19.170  -9.421  -2.945  0.00  0.00     0.317 HD
BRANCH  25  27
HETATM   27  C           1     -17.848 -10.096  -4.317  0.00  0.00     0.320 C 
BRANCH  27  28
HETATM   28  C           1     -16.437  -9.964  -3.796  0.00  0.00     0.207 C 
HETATM   29  O           1     -16.200  -9.226  -2.816  0.00  0.00    -0.646 OA
HETATM   30  O           1     -15.507 -10.593  -4.346  0.00  0.00    -0.646 OA
ENDBRANCH  27  28
BRANCH  27  31
HETATM   31  C           1     -17.843  -9.971  -5.834  0.00  0.00     0.047 C 
BRANCH  31  32
HETATM   32  C           1     -17.914 -11.358  -6.459  0.00  0.00     0.003 C 
BRANCH  32  33
HETATM   33 Se           1     -19.772 -11.939  -6.547  0.00  0.00     0.000 Se
HETATM   34  C           1     -19.521 -13.052  -8.127  0.00  0.00     0.000 C 
ENDBRANCH  32  33
ENDBRANCH  31  32
ENDBRANCH  27  31
ENDBRANCH  25  27
ENDBRANCH  24  25
ENDBRANCH  23  24
ENDBRANCH  22  23
BRANCH  22  35
HETATM   35  C           1     -21.580  -6.886  -2.686  0.00  0.00     0.196 C 
HETATM   36  O           1     -20.794  -7.425  -1.876  0.00  0.00    -0.646 OA
HETATM   37  O           1     -22.314  -5.947  -2.311  0.00  0.00    -0.646 OA
ENDBRANCH  22  35
ENDBRANCH   3  22
TORSDOF 16
ENDMDL
MODEL 9
REMARK VINA RESULT:      -6.2      2.072      2.647
REMARK  16 active torsions:
REMARK  status: ('A' for Active; 'I' for Inactive)
REMARK    1  A    between atoms: C_1  and  C_29 
REMARK    2  A    between atoms: C_1  and  C_21 
REMARK    3  A    between atoms: C_2  and  C_33 
REMARK    4  A    between atoms: N_5  and  C_33 
REMARK    5  A    between atoms: N_5  and  C_6 
REMARK    6  A    between atoms: C_6  and  C_7 
REMARK    7  A    between atoms: C_7  and  C_8 
REMARK    8  A    between atoms: C_8  and  C_30 
REMARK    9  A    between atoms: C_8  and  N_27 
REMARK       I    between atoms: C_9  and  N_10 
REMARK       I    between atoms: C_9  and  N_11 
REMARK   10  A    between atoms: N_12  and  C_29 
REMARK   11  A    between atoms: C_21  and  C_22 
REMARK   12  A    between atoms: C_22  and  N_23 
REMARK   13  A    between atoms: Se_25  and  C_35 
REMARK       I    between atoms: N_27  and  C_28 
REMARK   14  A    between atoms: C_28  and  C_29 
REMARK   15  A    between atoms: C_33  and  C_34 
REMARK   16  A    between atoms: C_34  and  C_35 
ROOT
HETATM    1  O           1     -22.169  -5.186  -7.586  0.00  0.00    -0.271 OA
HETATM    2  H           1     -19.338  -6.143  -6.634  0.00  0.00     0.163 HD
HETATM    3  N           1     -20.347  -6.114  -6.688  0.00  0.00    -0.345 N 
HETATM    4  C           1     -20.964  -5.219  -7.522  0.00  0.00     0.249 C 
ENDROOT
BRANCH   4   5
HETATM    5  C           1     -20.136  -4.275  -8.358  0.00  0.00     0.274 C 
BRANCH   5   6
HETATM    6  C           1     -20.124  -4.755  -9.803  0.00  0.00     0.044 C 
BRANCH   6   7
HETATM    7  C           1     -20.836  -3.737 -10.683  0.00  0.00     0.023 C 
BRANCH   7   8
HETATM    8  C           1     -22.045  -4.389 -11.341  0.00  0.00     0.138 C 
BRANCH   8   9
HETATM    9  N           1     -23.075  -4.650 -10.324  0.00  0.00    -0.227 N 
HETATM   10  C           1     -24.223  -4.128 -10.438  0.00  0.00     0.665 C 
HETATM   11  N           1     -25.109  -4.354  -9.563  0.00  0.00    -0.235 N 
HETATM   12  N           1     -24.491  -3.362 -11.453  0.00  0.00    -0.235 N 
HETATM   13  H           1     -26.061  -3.921  -9.657  0.00  0.00     0.174 HD
HETATM   14  H           1     -24.893  -4.972  -8.743  0.00  0.00     0.174 HD
HETATM   15  H           1     -25.438  -2.931 -11.547  0.00  0.00     0.174 HD
HETATM   16  H           1     -23.759  -3.176 -12.176  0.00  0.00     0.174 HD
HETATM   17  H           1     -22.858  -5.270  -9.505  0.00  0.00     0.177 HD
ENDBRANCH   8   9
ENDBRANCH   7   8
ENDBRANCH   6   7
ENDBRANCH   5   6
BRANCH   5  18
HETATM   18  N           1     -18.732  -4.240  -7.831  0.00  0.00    -0.067 N 
HETATM   19  H           1     -18.750  -4.305  -6.788  0.00  0.00     0.275 HD
HETATM   20  H           1     -18.195  -5.046  -8.222  0.00  0.00     0.275 HD
HETATM   21  H           1     -18.276  -3.344  -8.116  0.00  0.00     0.275 HD
ENDBRANCH   5  18
ENDBRANCH   4   5
BRANCH   3  22
HETATM   22  C           1     -21.142  -7.022  -5.884  0.00  0.00     0.187 C 
BRANCH  22  23
HETATM   23  C           1     -20.231  -8.055  -5.235  0.00  0.00     0.066 C 
BRANCH  23  24
HETATM   24  C           1     -21.006  -8.815  -4.166  0.00  0.00     0.273 C 
BRANCH  24  25
HETATM   25  N           1     -20.507  -8.458  -2.866  0.00  0.00     0.098 N 
HETATM   26  H           1     -20.489  -7.442  -2.776  0.00  0.00     0.317 HD
BRANCH  25  27
HETATM   27  C           1     -21.402  -9.010  -1.886  0.00  0.00     0.320 C 
BRANCH  27  28
HETATM   28  C           1     -21.760  -7.947  -0.877  0.00  0.00     0.207 C 
HETATM   29  O           1     -22.381  -6.925  -1.240  0.00  0.00    -0.646 OA
HETATM   30  O           1     -21.434  -8.088   0.322  0.00  0.00    -0.646 OA
ENDBRANCH  27  28
BRANCH  27  31
HETATM   31  C           1     -20.723 -10.175  -1.178  0.00  0.00     0.047 C 
BRANCH  31  32
HETATM   32  C           1     -21.496 -11.458  -1.454  0.00  0.00     0.003 C 
BRANCH  32  33
HETATM   33 Se           1     -22.435 -12.011   0.162  0.00  0.00     0.000 Se
HETATM   34  C           1     -23.986 -10.873  -0.153  0.00  0.00     0.000 C 
ENDBRANCH  32  33
ENDBRANCH  31  32
ENDBRANCH  27  31
ENDBRANCH  25  27
ENDBRANCH  24  25
ENDBRANCH  23  24
ENDBRANCH  22  23
BRANCH  22  35
HETATM   35  C           1     -21.863  -6.243  -4.812  0.00  0.00     0.196 C 
HETATM   36  O           1     -23.113  -6.251  -4.767  0.00  0.00    -0.646 OA
HETATM   37  O           1     -21.212  -5.589  -3.969  0.00  0.00    -0.646 OA
ENDBRANCH  22  35
ENDBRANCH   3  22
TORSDOF 16
ENDMDL
