MODEL 1
REMARK VINA RESULT:      -7.7      0.000      0.000
REMARK  8 active torsions:
REMARK  status: ('A' for Active; 'I' for Inactive)
REMARK    1  A    between atoms: N_2  and  C_7 
REMARK    2  A    between atoms: C_5  and  C_6 
REMARK    3  A    between atoms: C_6  and  C_29 
REMARK    4  A    between atoms: C_7  and  C_19 
REMARK    5  A    between atoms: C_7  and  C_8 
REMARK    6  A    between atoms: C_8  and  C_9 
REMARK       I    between atoms: C_9  and  N_10 
REMARK    7  A    between atoms: C_12  and  C_29 
REMARK       I    between atoms: C_19  and  N_20 
REMARK    8  A    between atoms: N_20  and  C_29 
ROOT
HETATM    1  O           1     -21.183  -5.324  -2.671  0.00  0.00    -0.271 OA
HETATM    2  C           1     -21.792  -6.320  -2.983  0.00  0.00     0.249 C 
HETATM    3  N           1     -22.525  -6.340  -4.139  0.00  0.00    -0.344 N 
HETATM    4  H           1     -23.496  -6.056  -4.128  0.00  0.00     0.163 HD
ENDROOT
BRANCH   3   5
HETATM    5  C           1     -21.909  -6.769  -5.380  0.00  0.00     0.190 C 
BRANCH   5   6
HETATM    6  C           1     -21.114  -5.615  -5.977  0.00  0.00     0.077 C 
BRANCH   6   7
HETATM    7  C           1     -21.906  -4.977  -7.075  0.00  0.00    -0.028 A 
HETATM    8  C           1     -23.218  -4.568  -6.996  0.00  0.00     0.096 A 
HETATM    9  N           1     -23.565  -4.038  -8.211  0.00  0.00    -0.365 N 
HETATM   10  C           1     -22.497  -4.096  -9.079  0.00  0.00     0.042 A 
HETATM   11  H           1     -24.510  -3.643  -8.447  0.00  0.00     0.165 HD
HETATM   12  C           1     -22.390  -3.676 -10.409  0.00  0.00     0.030 A 
HETATM   13  C           1     -21.438  -4.684  -8.386  0.00  0.00    -0.002 A 
HETATM   14  C           1     -21.160  -3.866 -11.049  0.00  0.00     0.002 A 
HETATM   15  C           1     -20.085  -4.450 -10.382  0.00  0.00     0.001 A 
HETATM   16  C           1     -20.211  -4.864  -9.051  0.00  0.00     0.014 A 
ENDBRANCH   6   7
ENDBRANCH   5   6
BRANCH   5  17
HETATM   17  C           1     -20.984  -7.929  -5.106  0.00  0.00     0.197 C 
HETATM   18  O           1     -21.452  -9.073  -4.926  0.00  0.00    -0.646 OA
HETATM   19  O           1     -19.748  -7.744  -5.058  0.00  0.00    -0.646 OA
ENDBRANCH   5  17
ENDBRANCH   3   5
BRANCH   2  20
HETATM   20  C           1     -21.748  -7.541  -2.097  0.00  0.00     0.283 C 
BRANCH  20  21
HETATM   21  N           1     -20.325  -7.988  -1.936  0.00  0.00    -0.066 N 
HETATM   22  H           1     -19.690  -7.311  -2.417  0.00  0.00     0.275 HD
HETATM   23  H           1     -20.085  -8.028  -0.919  0.00  0.00     0.275 HD
HETATM   24  H           1     -20.207  -8.936  -2.360  0.00  0.00     0.275 HD
ENDBRANCH  20  21
BRANCH  20  25
HETATM   25  C           1     -22.328  -7.199  -0.731  0.00  0.00     0.145 C 
BRANCH  25  26
HETATM   26  C           1     -22.229  -8.402   0.175  0.00  0.00     0.217 C 
HETATM   27  O           1     -21.364  -8.455   1.015  0.00  0.00    -0.274 OA
HETATM   28  N           1     -23.120  -9.432   0.044  0.00  0.00    -0.370 N 
HETATM   29  H           1     -23.054 -10.239   0.651  0.00  0.00     0.159 HD
HETATM   30  H           1     -23.846  -9.387  -0.660  0.00  0.00     0.159 HD
ENDBRANCH  25  26
ENDBRANCH  20  25
ENDBRANCH   2  20
TORSDOF 8
ENDMDL
MODEL 2
REMARK VINA RESULT:      -7.7      2.362      7.356
REMARK  8 active torsions:
REMARK  status: ('A' for Active; 'I' for Inactive)
REMARK    1  A    between atoms: N_2  and  C_7 
REMARK    2  A    between atoms: C_5  and  C_6 
REMARK    3  A    between atoms: C_6  and  C_29 
REMARK    4  A    between atoms: C_7  and  C_19 
REMARK    5  A    between atoms: C_7  and  C_8 
REMARK    6  A    between atoms: C_8  and  C_9 
REMARK       I    between atoms: C_9  and  N_10 
REMARK    7  A    between atoms: C_12  and  C_29 
REMARK       I    between atoms: C_19  and  N_20 
REMARK    8  A    between atoms: N_20  and  C_29 
ROOT
HETATM    1  O           1     -19.007  -4.986  -7.046  0.00  0.00    -0.271 OA
HETATM    2  C           1     -20.028  -5.623  -6.937  0.00  0.00     0.249 C 
HETATM    3  N           1     -19.972  -6.965  -6.672  0.00  0.00    -0.344 N 
HETATM    4  H           1     -19.938  -7.630  -7.434  0.00  0.00     0.163 HD
ENDROOT
BRANCH   3   5
HETATM    5  C           1     -19.963  -7.433  -5.300  0.00  0.00     0.190 C 
BRANCH   5   6
HETATM    6  C           1     -21.370  -7.855  -4.898  0.00  0.00     0.077 C 
BRANCH   6   7
HETATM    7  C           1     -21.697  -7.291  -3.550  0.00  0.00    -0.028 A 
HETATM    8  C           1     -21.945  -5.967  -3.264  0.00  0.00     0.096 A 
HETATM    9  N           1     -22.201  -5.871  -1.922  0.00  0.00    -0.365 N 
HETATM   10  C           1     -22.124  -7.113  -1.331  0.00  0.00     0.042 A 
HETATM   11  H           1     -22.425  -4.978  -1.416  0.00  0.00     0.165 HD
HETATM   12  C           1     -22.309  -7.492   0.003  0.00  0.00     0.030 A 
HETATM   13  C           1     -21.807  -8.025  -2.338  0.00  0.00    -0.002 A 
HETATM   14  C           1     -22.164  -8.848   0.314  0.00  0.00     0.002 A 
HETATM   15  C           1     -21.849  -9.782  -0.671  0.00  0.00     0.001 A 
HETATM   16  C           1     -21.667  -9.385  -2.000  0.00  0.00     0.014 A 
ENDBRANCH   6   7
ENDBRANCH   5   6
BRANCH   5  17
HETATM   17  C           1     -19.030  -8.612  -5.178  0.00  0.00     0.197 C 
HETATM   18  O           1     -18.542  -9.133  -6.204  0.00  0.00    -0.646 OA
HETATM   19  O           1     -18.746  -9.070  -4.050  0.00  0.00    -0.646 OA
ENDBRANCH   5  17
ENDBRANCH   3   5
BRANCH   2  20
HETATM   20  C           1     -21.365  -4.940  -7.094  0.00  0.00     0.283 C 
BRANCH  20  21
HETATM   21  N           1     -21.191  -3.459  -6.922  0.00  0.00    -0.066 N 
HETATM   22  H           1     -22.116  -3.023  -6.704  0.00  0.00     0.275 HD
HETATM   23  H           1     -20.526  -3.276  -6.136  0.00  0.00     0.275 HD
HETATM   24  H           1     -20.811  -3.048  -7.804  0.00  0.00     0.275 HD
ENDBRANCH  20  21
BRANCH  20  25
HETATM   25  C           1     -21.922  -5.226  -8.482  0.00  0.00     0.145 C 
BRANCH  25  26
HETATM   26  C           1     -22.861  -4.117  -8.888  0.00  0.00     0.217 C 
HETATM   27  O           1     -22.529  -3.325  -9.736  0.00  0.00    -0.274 OA
HETATM   28  N           1     -24.089  -4.010  -8.294  0.00  0.00    -0.370 N 
HETATM   29  H           1     -24.719  -3.265  -8.566  0.00  0.00     0.159 HD
HETATM   30  H           1     -24.368  -4.674  -7.583  0.00  0.00     0.159 HD
ENDBRANCH  25  26
ENDBRANCH  20  25
ENDBRANCH   2  20
TORSDOF 8
ENDMDL
MODEL 3
REMARK VINA RESULT:      -7.6     14.066     17.172
REMARK  8 active torsions:
REMARK  status: ('A' for Active; 'I' for Inactive)
REMARK    1  A    between atoms: N_2  and  C_7 
REMARK    2  A    between atoms: C_5  and  C_6 
REMARK    3  A    between atoms: C_6  and  C_29 
REMARK    4  A    between atoms: C_7  and  C_19 
REMARK    5  A    between atoms: C_7  and  C_8 
REMARK    6  A    between atoms: C_8  and  C_9 
REMARK       I    between atoms: C_9  and  N_10 
REMARK    7  A    between atoms: C_12  and  C_29 
REMARK       I    between atoms: C_19  and  N_20 
REMARK    8  A    between atoms: N_20  and  C_29 
ROOT
HETATM    1  O           1     -35.087   0.826 -12.619  0.00  0.00    -0.271 OA
HETATM    2  C           1     -35.380  -0.252 -13.080  0.00  0.00     0.249 C 
HETATM    3  N           1     -34.759  -1.383 -12.624  0.00  0.00    -0.344 N 
HETATM    4  H           1     -33.909  -1.708 -13.068  0.00  0.00     0.163 HD
ENDROOT
BRANCH   3   5
HETATM    5  C           1     -35.319  -2.116 -11.505  0.00  0.00     0.190 C 
BRANCH   5   6
HETATM    6  C           1     -34.206  -2.488 -10.534  0.00  0.00     0.077 C 
BRANCH   6   7
HETATM    7  C           1     -33.601  -3.796 -10.942  0.00  0.00    -0.028 A 
HETATM    8  C           1     -32.525  -3.963 -11.783  0.00  0.00     0.096 A 
HETATM    9  N           1     -32.289  -5.308 -11.896  0.00  0.00    -0.365 N 
HETATM   10  C           1     -33.197  -6.017 -11.142  0.00  0.00     0.042 A 
HETATM   11  H           1     -31.525  -5.737 -12.477  0.00  0.00     0.165 HD
HETATM   12  C           1     -33.337  -7.397 -10.957  0.00  0.00     0.030 A 
HETATM   13  C           1     -34.036  -5.085 -10.529  0.00  0.00    -0.002 A 
HETATM   14  C           1     -34.368  -7.834 -10.119  0.00  0.00     0.002 A 
HETATM   15  C           1     -35.220  -6.927  -9.493  0.00  0.00     0.001 A 
HETATM   16  C           1     -35.066  -5.550  -9.690  0.00  0.00     0.014 A 
ENDBRANCH   6   7
ENDBRANCH   5   6
BRANCH   5  17
HETATM   17  C           1     -36.337  -1.255 -10.800  0.00  0.00     0.197 C 
HETATM   18  O           1     -37.536  -1.291 -11.148  0.00  0.00    -0.646 OA
HETATM   19  O           1     -35.979  -0.503  -9.867  0.00  0.00    -0.646 OA
ENDBRANCH   5  17
ENDBRANCH   3   5
BRANCH   2  20
HETATM   20  C           1     -36.430  -0.351 -14.160  0.00  0.00     0.283 C 
BRANCH  20  21
HETATM   21  N           1     -37.645   0.426 -13.747  0.00  0.00    -0.066 N 
HETATM   22  H           1     -37.349   1.291 -13.239  0.00  0.00     0.275 HD
HETATM   23  H           1     -38.193   0.692 -14.596  0.00  0.00     0.275 HD
HETATM   24  H           1     -38.238  -0.161 -13.118  0.00  0.00     0.275 HD
ENDBRANCH  20  21
BRANCH  20  25
HETATM   25  C           1     -35.878   0.224 -15.458  0.00  0.00     0.145 C 
BRANCH  25  26
HETATM   26  C           1     -35.901  -0.837 -16.531  0.00  0.00     0.217 C 
HETATM   27  O           1     -36.831  -0.902 -17.297  0.00  0.00    -0.274 OA
HETATM   28  N           1     -34.865  -1.727 -16.633  0.00  0.00    -0.370 N 
HETATM   29  H           1     -34.880  -2.440 -17.352  0.00  0.00     0.159 HD
HETATM   30  H           1     -34.085  -1.673 -15.991  0.00  0.00     0.159 HD
ENDBRANCH  25  26
ENDBRANCH  20  25
ENDBRANCH   2  20
TORSDOF 8
ENDMDL
MODEL 4
REMARK VINA RESULT:      -7.5      2.093      3.253
REMARK  8 active torsions:
REMARK  status: ('A' for Active; 'I' for Inactive)
REMARK    1  A    between atoms: N_2  and  C_7 
REMARK    2  A    between atoms: C_5  and  C_6 
REMARK    3  A    between atoms: C_6  and  C_29 
REMARK    4  A    between atoms: C_7  and  C_19 
REMARK    5  A    between atoms: C_7  and  C_8 
REMARK    6  A    between atoms: C_8  and  C_9 
REMARK       I    between atoms: C_9  and  N_10 
REMARK    7  A    between atoms: C_12  and  C_29 
REMARK       I    between atoms: C_19  and  N_20 
REMARK    8  A    between atoms: N_20  and  C_29 
ROOT
HETATM    1  O           1     -21.138 -11.447  -2.439  0.00  0.00    -0.271 OA
HETATM    2  C           1     -21.030 -10.250  -2.561  0.00  0.00     0.249 C 
HETATM    3  N           1     -20.045  -9.730  -3.356  0.00  0.00    -0.344 N 
HETATM    4  H           1     -19.137  -9.517  -2.963  0.00  0.00     0.163 HD
ENDROOT
BRANCH   3   5
HETATM    5  C           1     -20.303  -9.484  -4.762  0.00  0.00     0.190 C 
BRANCH   5   6
HETATM    6  C           1     -19.668  -8.160  -5.169  0.00  0.00     0.077 C 
BRANCH   6   7
HETATM    7  C           1     -20.742  -7.162  -5.471  0.00  0.00    -0.028 A 
HETATM    8  C           1     -22.006  -7.142  -4.926  0.00  0.00     0.096 A 
HETATM    9  N           1     -22.675  -6.073  -5.461  0.00  0.00    -0.365 N 
HETATM   10  C           1     -21.864  -5.397  -6.346  0.00  0.00     0.042 A 
HETATM   11  H           1     -23.665  -5.806  -5.230  0.00  0.00     0.165 HD
HETATM   12  C           1     -22.120  -4.259  -7.118  0.00  0.00     0.030 A 
HETATM   13  C           1     -20.639  -6.065  -6.369  0.00  0.00    -0.002 A 
HETATM   14  C           1     -21.089  -3.790  -7.939  0.00  0.00     0.002 A 
HETATM   15  C           1     -19.855  -4.436  -7.982  0.00  0.00     0.001 A 
HETATM   16  C           1     -19.617  -5.574  -7.203  0.00  0.00     0.014 A 
ENDBRANCH   6   7
ENDBRANCH   5   6
BRANCH   5  17
HETATM   17  C           1     -19.710 -10.601  -5.584  0.00  0.00     0.197 C 
HETATM   18  O           1     -20.424 -11.226  -6.397  0.00  0.00    -0.646 OA
HETATM   19  O           1     -18.504 -10.902  -5.451  0.00  0.00    -0.646 OA
ENDBRANCH   5  17
ENDBRANCH   3   5
BRANCH   2  20
HETATM   20  C           1     -21.980  -9.328  -1.835  0.00  0.00     0.283 C 
BRANCH  20  21
HETATM   21  N           1     -22.511 -10.020  -0.614  0.00  0.00    -0.066 N 
HETATM   22  H           1     -23.108  -9.357  -0.071  0.00  0.00     0.275 HD
HETATM   23  H           1     -23.082 -10.846  -0.904  0.00  0.00     0.275 HD
HETATM   24  H           1     -21.713 -10.338  -0.019  0.00  0.00     0.275 HD
ENDBRANCH  20  21
BRANCH  20  25
HETATM   25  C           1     -21.241  -8.063  -1.420  0.00  0.00     0.145 C 
BRANCH  25  26
HETATM   26  C           1     -22.240  -6.991  -1.057  0.00  0.00     0.217 C 
HETATM   27  O           1     -22.988  -7.153  -0.123  0.00  0.00    -0.274 OA
HETATM   28  N           1     -22.297  -5.835  -1.787  0.00  0.00    -0.370 N 
HETATM   29  H           1     -22.967  -5.116  -1.545  0.00  0.00     0.159 HD
HETATM   30  H           1     -21.670  -5.699  -2.570  0.00  0.00     0.159 HD
ENDBRANCH  25  26
ENDBRANCH  20  25
ENDBRANCH   2  20
TORSDOF 8
ENDMDL
MODEL 5
REMARK VINA RESULT:      -7.4      1.344      1.893
REMARK  8 active torsions:
REMARK  status: ('A' for Active; 'I' for Inactive)
REMARK    1  A    between atoms: N_2  and  C_7 
REMARK    2  A    between atoms: C_5  and  C_6 
REMARK    3  A    between atoms: C_6  and  C_29 
REMARK    4  A    between atoms: C_7  and  C_19 
REMARK    5  A    between atoms: C_7  and  C_8 
REMARK    6  A    between atoms: C_8  and  C_9 
REMARK       I    between atoms: C_9  and  N_10 
REMARK    7  A    between atoms: C_12  and  C_29 
REMARK       I    between atoms: C_19  and  N_20 
REMARK    8  A    between atoms: N_20  and  C_29 
ROOT
HETATM    1  O           1     -21.799  -5.470  -2.263  0.00  0.00    -0.271 OA
HETATM    2  C           1     -21.990  -6.541  -2.788  0.00  0.00     0.249 C 
HETATM    3  N           1     -22.565  -6.603  -4.029  0.00  0.00    -0.344 N 
HETATM    4  H           1     -23.571  -6.665  -4.118  0.00  0.00     0.163 HD
ENDROOT
BRANCH   3   5
HETATM    5  C           1     -21.732  -6.580  -5.215  0.00  0.00     0.190 C 
BRANCH   5   6
HETATM    6  C           1     -20.831  -5.353  -5.178  0.00  0.00     0.077 C 
BRANCH   6   7
HETATM    7  C           1     -20.536  -4.905  -6.576  0.00  0.00    -0.028 A 
HETATM    8  C           1     -19.287  -4.784  -7.142  0.00  0.00     0.096 A 
HETATM    9  N           1     -19.453  -4.349  -8.430  0.00  0.00    -0.365 N 
HETATM   10  C           1     -20.791  -4.186  -8.710  0.00  0.00     0.042 A 
HETATM   11  H           1     -18.671  -4.165  -9.108  0.00  0.00     0.165 HD
HETATM   12  C           1     -21.424  -3.764  -9.885  0.00  0.00     0.030 A 
HETATM   13  C           1     -21.495  -4.531  -7.556  0.00  0.00    -0.002 A 
HETATM   14  C           1     -22.821  -3.694  -9.876  0.00  0.00     0.002 A 
HETATM   15  C           1     -23.551  -4.033  -8.738  0.00  0.00     0.001 A 
HETATM   16  C           1     -22.901  -4.452  -7.572  0.00  0.00     0.014 A 
ENDBRANCH   6   7
ENDBRANCH   5   6
BRANCH   5  17
HETATM   17  C           1     -20.884  -7.827  -5.258  0.00  0.00     0.197 C 
HETATM   18  O           1     -21.384  -8.911  -5.626  0.00  0.00    -0.646 OA
HETATM   19  O           1     -19.681  -7.776  -4.922  0.00  0.00    -0.646 OA
ENDBRANCH   5  17
ENDBRANCH   3   5
BRANCH   2  20
HETATM   20  C           1     -21.596  -7.812  -2.074  0.00  0.00     0.283 C 
BRANCH  20  21
HETATM   21  N           1     -20.106  -7.846  -1.903  0.00  0.00    -0.066 N 
HETATM   22  H           1     -19.695  -8.538  -2.570  0.00  0.00     0.275 HD
HETATM   23  H           1     -19.712  -6.897  -2.098  0.00  0.00     0.275 HD
HETATM   24  H           1     -19.874  -8.126  -0.923  0.00  0.00     0.275 HD
ENDBRANCH  20  21
BRANCH  20  25
HETATM   25  C           1     -22.264  -7.854  -0.706  0.00  0.00     0.145 C 
BRANCH  25  26
HETATM   26  C           1     -21.569  -8.872   0.164  0.00  0.00     0.217 C 
HETATM   27  O           1     -21.382  -9.991  -0.248  0.00  0.00    -0.274 OA
HETATM   28  N           1     -21.152  -8.526   1.421  0.00  0.00    -0.370 N 
HETATM   29  H           1     -20.686  -9.209   2.005  0.00  0.00     0.159 HD
HETATM   30  H           1     -21.309  -7.588   1.766  0.00  0.00     0.159 HD
ENDBRANCH  25  26
ENDBRANCH  20  25
ENDBRANCH   2  20
TORSDOF 8
ENDMDL
MODEL 6
REMARK VINA RESULT:      -7.4      2.235      3.149
REMARK  8 active torsions:
REMARK  status: ('A' for Active; 'I' for Inactive)
REMARK    1  A    between atoms: N_2  and  C_7 
REMARK    2  A    between atoms: C_5  and  C_6 
REMARK    3  A    between atoms: C_6  and  C_29 
REMARK    4  A    between atoms: C_7  and  C_19 
REMARK    5  A    between atoms: C_7  and  C_8 
REMARK    6  A    between atoms: C_8  and  C_9 
REMARK       I    between atoms: C_9  and  N_10 
REMARK    7  A    between atoms: C_12  and  C_29 
REMARK       I    between atoms: C_19  and  N_20 
REMARK    8  A    between atoms: N_20  and  C_29 
ROOT
HETATM    1  O           1     -20.606  -5.594  -4.331  0.00  0.00    -0.271 OA
HETATM    2  C           1     -21.479  -6.040  -5.037  0.00  0.00     0.249 C 
HETATM    3  N           1     -22.083  -5.237  -5.967  0.00  0.00    -0.344 N 
HETATM    4  H           1     -22.906  -4.703  -5.718  0.00  0.00     0.163 HD
ENDROOT
BRANCH   3   5
HETATM    5  C           1     -21.542  -5.151  -7.310  0.00  0.00     0.190 C 
BRANCH   5   6
HETATM    6  C           1     -21.784  -3.754  -7.866  0.00  0.00     0.077 C 
BRANCH   6   7
HETATM    7  C           1     -22.906  -3.797  -8.857  0.00  0.00    -0.028 A 
HETATM    8  C           1     -24.226  -4.069  -8.575  0.00  0.00     0.096 A 
HETATM    9  N           1     -24.925  -4.009  -9.751  0.00  0.00    -0.365 N 
HETATM   10  C           1     -24.080  -3.702 -10.794  0.00  0.00     0.042 A 
HETATM   11  H           1     -25.959  -4.174  -9.845  0.00  0.00     0.165 HD
HETATM   12  C           1     -24.348  -3.537 -12.157  0.00  0.00     0.030 A 
HETATM   13  C           1     -22.800  -3.562 -10.255  0.00  0.00    -0.002 A 
HETATM   14  C           1     -23.272  -3.222 -12.993  0.00  0.00     0.002 A 
HETATM   15  C           1     -21.984  -3.075 -12.483  0.00  0.00     0.001 A 
HETATM   16  C           1     -21.734  -3.244 -11.117  0.00  0.00     0.014 A 
ENDBRANCH   6   7
ENDBRANCH   5   6
BRANCH   5  17
HETATM   17  C           1     -20.060  -5.429  -7.273  0.00  0.00     0.197 C 
HETATM   18  O           1     -19.255  -4.500  -7.049  0.00  0.00    -0.646 OA
HETATM   19  O           1     -19.637  -6.589  -7.468  0.00  0.00    -0.646 OA
ENDBRANCH   5  17
ENDBRANCH   3   5
BRANCH   2  20
HETATM   20  C           1     -21.906  -7.480  -4.892  0.00  0.00     0.283 C 
BRANCH  20  21
HETATM   21  N           1     -21.112  -8.332  -5.838  0.00  0.00    -0.066 N 
HETATM   22  H           1     -21.762  -8.919  -6.408  0.00  0.00     0.275 HD
HETATM   23  H           1     -20.550  -7.719  -6.471  0.00  0.00     0.275 HD
HETATM   24  H           1     -20.470  -8.952  -5.294  0.00  0.00     0.275 HD
ENDBRANCH  20  21
BRANCH  20  25
HETATM   25  C           1     -21.657  -7.942  -3.463  0.00  0.00     0.145 C 
BRANCH  25  26
HETATM   26  C           1     -21.420  -9.433  -3.448  0.00  0.00     0.217 C 
HETATM   27  O           1     -22.220 -10.177  -3.961  0.00  0.00    -0.274 OA
HETATM   28  N           1     -20.296  -9.940  -2.854  0.00  0.00    -0.370 N 
HETATM   29  H           1     -20.136 -10.940  -2.843  0.00  0.00     0.159 HD
HETATM   30  H           1     -19.624  -9.316  -2.424  0.00  0.00     0.159 HD
ENDBRANCH  25  26
ENDBRANCH  20  25
ENDBRANCH   2  20
TORSDOF 8
ENDMDL
MODEL 7
REMARK VINA RESULT:      -7.3      2.897      6.543
REMARK  8 active torsions:
REMARK  status: ('A' for Active; 'I' for Inactive)
REMARK    1  A    between atoms: N_2  and  C_7 
REMARK    2  A    between atoms: C_5  and  C_6 
REMARK    3  A    between atoms: C_6  and  C_29 
REMARK    4  A    between atoms: C_7  and  C_19 
REMARK    5  A    between atoms: C_7  and  C_8 
REMARK    6  A    between atoms: C_8  and  C_9 
REMARK       I    between atoms: C_9  and  N_10 
REMARK    7  A    between atoms: C_12  and  C_29 
REMARK       I    between atoms: C_19  and  N_20 
REMARK    8  A    between atoms: N_20  and  C_29 
ROOT
HETATM    1  O           1     -22.421  -5.736  -2.338  0.00  0.00    -0.271 OA
HETATM    2  C           1     -21.649  -6.479  -2.898  0.00  0.00     0.249 C 
HETATM    3  N           1     -20.830  -7.293  -2.163  0.00  0.00    -0.344 N 
HETATM    4  H           1     -19.914  -6.967  -1.879  0.00  0.00     0.163 HD
ENDROOT
BRANCH   3   5
HETATM    5  C           1     -21.273  -8.623  -1.792  0.00  0.00     0.190 C 
BRANCH   5   6
HETATM    6  C           1     -20.107  -9.597  -1.908  0.00  0.00     0.077 C 
BRANCH   6   7
HETATM    7  C           1     -19.674  -9.691  -3.338  0.00  0.00    -0.028 A 
HETATM    8  C           1     -20.504  -9.787  -4.432  0.00  0.00     0.096 A 
HETATM    9  N           1     -19.716  -9.850  -5.550  0.00  0.00    -0.365 N 
HETATM   10  C           1     -18.385  -9.797  -5.200  0.00  0.00     0.042 A 
HETATM   11  H           1     -20.075  -9.929  -6.535  0.00  0.00     0.165 HD
HETATM   12  C           1     -17.237  -9.830  -6.000  0.00  0.00     0.030 A 
HETATM   13  C           1     -18.332  -9.696  -3.809  0.00  0.00    -0.002 A 
HETATM   14  C           1     -15.998  -9.757  -5.355  0.00  0.00     0.002 A 
HETATM   15  C           1     -15.915  -9.654  -3.968  0.00  0.00     0.001 A 
HETATM   16  C           1     -17.073  -9.623  -3.184  0.00  0.00     0.014 A 
ENDBRANCH   6   7
ENDBRANCH   5   6
BRANCH   5  17
HETATM   17  C           1     -21.776  -8.607  -0.370  0.00  0.00     0.197 C 
HETATM   18  O           1     -21.046  -9.020   0.556  0.00  0.00    -0.646 OA
HETATM   19  O           1     -22.924  -8.180  -0.118  0.00  0.00    -0.646 OA
ENDBRANCH   5  17
ENDBRANCH   3   5
BRANCH   2  20
HETATM   20  C           1     -21.587  -6.508  -4.405  0.00  0.00     0.283 C 
BRANCH  20  21
HETATM   21  N           1     -22.953  -6.238  -4.965  0.00  0.00    -0.066 N 
HETATM   22  H           1     -23.079  -6.778  -5.851  0.00  0.00     0.275 HD
HETATM   23  H           1     -23.678  -6.531  -4.272  0.00  0.00     0.275 HD
HETATM   24  H           1     -23.053  -5.217  -5.163  0.00  0.00     0.275 HD
ENDBRANCH  20  21
BRANCH  20  25
HETATM   25  C           1     -20.619  -5.439  -4.894  0.00  0.00     0.145 C 
BRANCH  25  26
HETATM   26  C           1     -20.093  -5.820  -6.256  0.00  0.00     0.217 C 
HETATM   27  O           1     -20.256  -6.940  -6.675  0.00  0.00    -0.274 OA
HETATM   28  N           1     -19.430  -4.894  -7.016  0.00  0.00    -0.370 N 
HETATM   29  H           1     -19.076  -5.149  -7.930  0.00  0.00     0.159 HD
HETATM   30  H           1     -19.293  -3.955  -6.665  0.00  0.00     0.159 HD
ENDBRANCH  25  26
ENDBRANCH  20  25
ENDBRANCH   2  20
TORSDOF 8
ENDMDL
MODEL 8
REMARK VINA RESULT:      -6.9      4.194      7.471
REMARK  8 active torsions:
REMARK  status: ('A' for Active; 'I' for Inactive)
REMARK    1  A    between atoms: N_2  and  C_7 
REMARK    2  A    between atoms: C_5  and  C_6 
REMARK    3  A    between atoms: C_6  and  C_29 
REMARK    4  A    between atoms: C_7  and  C_19 
REMARK    5  A    between atoms: C_7  and  C_8 
REMARK    6  A    between atoms: C_8  and  C_9 
REMARK       I    between atoms: C_9  and  N_10 
REMARK    7  A    between atoms: C_12  and  C_29 
REMARK       I    between atoms: C_19  and  N_20 
REMARK    8  A    between atoms: N_20  and  C_29 
ROOT
HETATM    1  O           1     -20.345  -9.787  -5.672  0.00  0.00    -0.271 OA
HETATM    2  C           1     -19.809  -9.412  -4.657  0.00  0.00     0.249 C 
HETATM    3  N           1     -19.979  -8.122  -4.230  0.00  0.00    -0.344 N 
HETATM    4  H           1     -19.340  -7.399  -4.535  0.00  0.00     0.163 HD
ENDROOT
BRANCH   3   5
HETATM    5  C           1     -21.075  -7.793  -3.340  0.00  0.00     0.190 C 
BRANCH   5   6
HETATM    6  C           1     -20.599  -7.879  -1.896  0.00  0.00     0.077 C 
BRANCH   6   7
HETATM    7  C           1     -21.705  -8.407  -1.035  0.00  0.00    -0.028 A 
HETATM    8  C           1     -22.289  -7.752   0.026  0.00  0.00     0.096 A 
HETATM    9  N           1     -23.255  -8.574   0.543  0.00  0.00    -0.365 N 
HETATM   10  C           1     -23.307  -9.754  -0.165  0.00  0.00     0.042 A 
HETATM   11  H           1     -23.868  -8.339   1.364  0.00  0.00     0.165 HD
HETATM   12  C           1     -24.129 -10.874   0.003  0.00  0.00     0.030 A 
HETATM   13  C           1     -22.338  -9.673  -1.167  0.00  0.00    -0.002 A 
HETATM   14  C           1     -23.953 -11.942  -0.882  0.00  0.00     0.002 A 
HETATM   15  C           1     -22.995 -11.889  -1.892  0.00  0.00     0.001 A 
HETATM   16  C           1     -22.181 -10.761  -2.045  0.00  0.00     0.014 A 
ENDBRANCH   6   7
ENDBRANCH   5   6
BRANCH   5  17
HETATM   17  C           1     -21.554  -6.392  -3.630  0.00  0.00     0.197 C 
HETATM   18  O           1     -20.965  -5.693  -4.482  0.00  0.00    -0.646 OA
HETATM   19  O           1     -22.540  -5.929  -3.016  0.00  0.00    -0.646 OA
ENDBRANCH   5  17
ENDBRANCH   3   5
BRANCH   2  20
HETATM   20  C           1     -18.948 -10.363  -3.861  0.00  0.00     0.283 C 
BRANCH  20  21
HETATM   21  N           1     -18.464 -11.465  -4.757  0.00  0.00    -0.066 N 
HETATM   22  H           1     -17.557 -11.836  -4.393  0.00  0.00     0.275 HD
HETATM   23  H           1     -19.172 -12.233  -4.777  0.00  0.00     0.275 HD
HETATM   24  H           1     -18.325 -11.093  -5.724  0.00  0.00     0.275 HD
ENDBRANCH  20  21
BRANCH  20  25
HETATM   25  C           1     -17.752  -9.610  -3.292  0.00  0.00     0.145 C 
BRANCH  25  26
HETATM   26  C           1     -16.950 -10.533  -2.408  0.00  0.00     0.217 C 
HETATM   27  O           1     -17.512 -11.354  -1.724  0.00  0.00    -0.274 OA
HETATM   28  N           1     -15.585 -10.439  -2.381  0.00  0.00    -0.370 N 
HETATM   29  H           1     -15.046 -11.057  -1.787  0.00  0.00     0.159 HD
HETATM   30  H           1     -15.114  -9.750  -2.955  0.00  0.00     0.159 HD
ENDBRANCH  25  26
ENDBRANCH  20  25
ENDBRANCH   2  20
TORSDOF 8
ENDMDL
MODEL 9
REMARK VINA RESULT:      -6.7      4.104      7.592
REMARK  8 active torsions:
REMARK  status: ('A' for Active; 'I' for Inactive)
REMARK    1  A    between atoms: N_2  and  C_7 
REMARK    2  A    between atoms: C_5  and  C_6 
REMARK    3  A    between atoms: C_6  and  C_29 
REMARK    4  A    between atoms: C_7  and  C_19 
REMARK    5  A    between atoms: C_7  and  C_8 
REMARK    6  A    between atoms: C_8  and  C_9 
REMARK       I    between atoms: C_9  and  N_10 
REMARK    7  A    between atoms: C_12  and  C_29 
REMARK       I    between atoms: C_19  and  N_20 
REMARK    8  A    between atoms: N_20  and  C_29 
ROOT
HETATM    1  O           1     -18.651  -9.375  -5.667  0.00  0.00    -0.271 OA
HETATM    2  C           1     -19.398  -9.116  -4.753  0.00  0.00     0.249 C 
HETATM    3  N           1     -19.554 -10.005  -3.724  0.00  0.00    -0.344 N 
HETATM    4  H           1     -20.272 -10.717  -3.775  0.00  0.00     0.163 HD
ENDROOT
BRANCH   3   5
HETATM    5  C           1     -18.692  -9.926  -2.561  0.00  0.00     0.190 C 
BRANCH   5   6
HETATM    6  C           1     -19.091 -11.003  -1.560  0.00  0.00     0.077 C 
BRANCH   6   7
HETATM    7  C           1     -20.566 -10.937  -1.314  0.00  0.00    -0.028 A 
HETATM    8  C           1     -21.496 -11.870  -1.711  0.00  0.00     0.096 A 
HETATM    9  N           1     -22.727 -11.438  -1.291  0.00  0.00    -0.365 N 
HETATM   10  C           1     -22.610 -10.238  -0.627  0.00  0.00     0.042 A 
HETATM   11  H           1     -23.630 -11.949  -1.454  0.00  0.00     0.165 HD
HETATM   12  C           1     -23.589  -9.435  -0.032  0.00  0.00     0.030 A 
HETATM   13  C           1     -21.256  -9.900  -0.628  0.00  0.00    -0.002 A 
HETATM   14  C           1     -23.168  -8.250   0.580  0.00  0.00     0.002 A 
HETATM   15  C           1     -21.823  -7.887   0.596  0.00  0.00     0.001 A 
HETATM   16  C           1     -20.857  -8.702  -0.004  0.00  0.00     0.014 A 
ENDBRANCH   6   7
ENDBRANCH   5   6
BRANCH   5  17
HETATM   17  C           1     -17.259 -10.135  -2.983  0.00  0.00     0.197 C 
HETATM   18  O           1     -16.901 -11.235  -3.457  0.00  0.00    -0.646 OA
HETATM   19  O           1     -16.429  -9.209  -2.856  0.00  0.00    -0.646 OA
ENDBRANCH   5  17
ENDBRANCH   3   5
BRANCH   2  20
HETATM   20  C           1     -20.161  -7.814  -4.748  0.00  0.00     0.283 C 
BRANCH  20  21
HETATM   21  N           1     -20.488  -7.422  -6.159  0.00  0.00    -0.066 N 
HETATM   22  H           1     -21.427  -7.801  -6.417  0.00  0.00     0.275 HD
HETATM   23  H           1     -20.499  -6.380  -6.237  0.00  0.00     0.275 HD
HETATM   24  H           1     -19.766  -7.813  -6.806  0.00  0.00     0.275 HD
ENDBRANCH  20  21
BRANCH  20  25
HETATM   25  C           1     -21.451  -7.984  -3.958  0.00  0.00     0.145 C 
BRANCH  25  26
HETATM   26  C           1     -22.111  -6.640  -3.772  0.00  0.00     0.217 C 
HETATM   27  O           1     -22.633  -6.088  -4.711  0.00  0.00    -0.274 OA
HETATM   28  N           1     -22.117  -6.046  -2.539  0.00  0.00    -0.370 N 
HETATM   29  H           1     -22.559  -5.143  -2.414  0.00  0.00     0.159 HD
HETATM   30  H           1     -21.680  -6.508  -1.752  0.00  0.00     0.159 HD
ENDBRANCH  25  26
ENDBRANCH  20  25
ENDBRANCH   2  20
TORSDOF 8
ENDMDL
