MODEL 1
REMARK VINA RESULT:      -6.6      0.000      0.000
REMARK  8 active torsions:
REMARK  status: ('A' for Active; 'I' for Inactive)
REMARK    1  A    between atoms: C_2  and  C_3 
REMARK    2  A    between atoms: C_2  and  C_14 
REMARK    3  A    between atoms: C_2  and  N_10 
REMARK       I    between atoms: C_3  and  N_4 
REMARK    4  A    between atoms: N_4  and  C_8 
REMARK    5  A    between atoms: C_7  and  C_8 
REMARK    6  A    between atoms: C_8  and  C_12 
REMARK    7  A    between atoms: C_12  and  C_20 
REMARK    8  A    between atoms: C_14  and  C_16 
ROOT
HETATM    1  C           1     -34.546  -2.440 -12.580  0.00  0.00     0.249 C 
HETATM    2  N           1     -35.178  -1.235 -12.424  0.00  0.00    -0.344 N 
HETATM    3  H           1     -35.156  -0.765 -11.529  0.00  0.00     0.163 HD
HETATM    4  O           1     -34.572  -3.001 -13.649  0.00  0.00    -0.271 OA
ENDROOT
BRANCH   1   5
HETATM    5  C           1     -33.818  -3.067 -11.416  0.00  0.00     0.275 C 
BRANCH   5   6
HETATM    6  C           1     -34.713  -4.111 -10.761  0.00  0.00     0.046 C 
BRANCH   6   7
HETATM    7  C           1     -34.270  -5.502 -11.191  0.00  0.00    -0.020 C 
HETATM    8  C           1     -34.597  -6.501 -10.090  0.00  0.00     0.009 C 
HETATM    9  C           1     -32.770  -5.503 -11.448  0.00  0.00     0.009 C 
ENDBRANCH   6   7
ENDBRANCH   5   6
BRANCH   5  10
HETATM   10  N           1     -33.471  -2.006 -10.414  0.00  0.00    -0.066 N 
HETATM   11  H           1     -32.503  -1.658 -10.598  0.00  0.00     0.275 HD
HETATM   12  H           1     -33.520  -2.408  -9.450  0.00  0.00     0.275 HD
HETATM   13  H           1     -34.148  -1.215 -10.496  0.00  0.00     0.275 HD
ENDBRANCH   5  10
ENDBRANCH   1   5
BRANCH   2  14
HETATM   14  C           1     -35.877  -0.633 -13.542  0.00  0.00     0.195 C 
BRANCH  14  15
HETATM   15  C           1     -34.982   0.383 -14.207  0.00  0.00     0.197 C 
HETATM   16  O           1     -34.560   0.181 -15.367  0.00  0.00    -0.646 OA
HETATM   17  O           1     -34.662   1.428 -13.600  0.00  0.00    -0.646 OA
ENDBRANCH  14  15
BRANCH  14  18
HETATM   18  C           1     -37.140   0.054 -13.040  0.00  0.00     0.149 C 
BRANCH  18  19
HETATM   19  C           1     -37.260  -0.139 -11.548  0.00  0.00     0.175 C 
HETATM   20  O           1     -38.053  -0.990 -11.090  0.00  0.00    -0.648 OA
HETATM   21  O           1     -36.567   0.552 -10.771  0.00  0.00    -0.648 OA
ENDBRANCH  18  19
ENDBRANCH  14  18
ENDBRANCH   2  14
TORSDOF 8
ENDMDL
MODEL 2
REMARK VINA RESULT:      -6.4      1.611      3.077
REMARK  8 active torsions:
REMARK  status: ('A' for Active; 'I' for Inactive)
REMARK    1  A    between atoms: C_2  and  C_3 
REMARK    2  A    between atoms: C_2  and  C_14 
REMARK    3  A    between atoms: C_2  and  N_10 
REMARK       I    between atoms: C_3  and  N_4 
REMARK    4  A    between atoms: N_4  and  C_8 
REMARK    5  A    between atoms: C_7  and  C_8 
REMARK    6  A    between atoms: C_8  and  C_12 
REMARK    7  A    between atoms: C_12  and  C_20 
REMARK    8  A    between atoms: C_14  and  C_16 
ROOT
HETATM    1  C           1     -34.323  -2.416 -12.377  0.00  0.00     0.249 C 
HETATM    2  N           1     -35.046  -1.658 -13.259  0.00  0.00    -0.344 N 
HETATM    3  H           1     -35.471  -2.092 -14.068  0.00  0.00     0.163 HD
HETATM    4  O           1     -33.816  -1.898 -11.410  0.00  0.00    -0.271 OA
ENDROOT
BRANCH   1   5
HETATM    5  C           1     -34.157  -3.897 -12.613  0.00  0.00     0.275 C 
BRANCH   5   6
HETATM    6  C           1     -33.246  -4.484 -11.543  0.00  0.00     0.046 C 
BRANCH   6   7
HETATM    7  C           1     -34.087  -5.202 -10.497  0.00  0.00    -0.020 C 
HETATM    8  C           1     -33.926  -6.707 -10.663  0.00  0.00     0.009 C 
HETATM    9  C           1     -35.552  -4.826 -10.675  0.00  0.00     0.009 C 
ENDBRANCH   6   7
ENDBRANCH   5   6
BRANCH   5  10
HETATM   10  N           1     -33.548  -4.122 -13.966  0.00  0.00    -0.066 N 
HETATM   11  H           1     -33.095  -5.063 -13.991  0.00  0.00     0.275 HD
HETATM   12  H           1     -32.830  -3.385 -14.151  0.00  0.00     0.275 HD
HETATM   13  H           1     -34.293  -4.073 -14.695  0.00  0.00     0.275 HD
ENDBRANCH   5  10
ENDBRANCH   1   5
BRANCH   2  14
HETATM   14  C           1     -35.206  -0.235 -13.032  0.00  0.00     0.195 C 
BRANCH  14  15
HETATM   15  C           1     -36.377  -0.001 -12.111  0.00  0.00     0.197 C 
HETATM   16  O           1     -36.195   0.508 -10.984  0.00  0.00    -0.646 OA
HETATM   17  O           1     -37.532  -0.315 -12.475  0.00  0.00    -0.646 OA
ENDBRANCH  14  15
BRANCH  14  18
HETATM   18  C           1     -35.455   0.465 -14.361  0.00  0.00     0.149 C 
BRANCH  18  19
HETATM   19  C           1     -35.713  -0.565 -15.433  0.00  0.00     0.175 C 
HETATM   20  O           1     -36.883  -0.921 -15.689  0.00  0.00    -0.648 OA
HETATM   21  O           1     -34.756  -1.061 -16.065  0.00  0.00    -0.648 OA
ENDBRANCH  18  19
ENDBRANCH  14  18
ENDBRANCH   2  14
TORSDOF 8
ENDMDL
MODEL 3
REMARK VINA RESULT:      -6.1      2.002      3.043
REMARK  8 active torsions:
REMARK  status: ('A' for Active; 'I' for Inactive)
REMARK    1  A    between atoms: C_2  and  C_3 
REMARK    2  A    between atoms: C_2  and  C_14 
REMARK    3  A    between atoms: C_2  and  N_10 
REMARK       I    between atoms: C_3  and  N_4 
REMARK    4  A    between atoms: N_4  and  C_8 
REMARK    5  A    between atoms: C_7  and  C_8 
REMARK    6  A    between atoms: C_8  and  C_12 
REMARK    7  A    between atoms: C_12  and  C_20 
REMARK    8  A    between atoms: C_14  and  C_16 
ROOT
HETATM    1  C           1     -35.386  -1.564 -12.866  0.00  0.00     0.249 C 
HETATM    2  N           1     -34.883  -1.210 -14.090  0.00  0.00    -0.344 N 
HETATM    3  H           1     -33.920  -1.420 -14.320  0.00  0.00     0.163 HD
HETATM    4  O           1     -36.536  -1.313 -12.591  0.00  0.00    -0.271 OA
ENDROOT
BRANCH   1   5
HETATM    5  C           1     -34.505  -2.265 -11.861  0.00  0.00     0.275 C 
BRANCH   5   6
HETATM    6  C           1     -35.135  -3.596 -11.475  0.00  0.00     0.046 C 
BRANCH   6   7
HETATM    7  C           1     -34.149  -4.724 -11.745  0.00  0.00    -0.020 C 
HETATM    8  C           1     -34.159  -5.698 -10.575  0.00  0.00     0.009 C 
HETATM    9  C           1     -32.750  -4.147 -11.913  0.00  0.00     0.009 C 
ENDBRANCH   6   7
ENDBRANCH   5   6
BRANCH   5  10
HETATM   10  N           1     -34.361  -1.407 -10.640  0.00  0.00    -0.066 N 
HETATM   11  H           1     -33.559  -1.752 -10.065  0.00  0.00     0.275 HD
HETATM   12  H           1     -35.240  -1.454 -10.075  0.00  0.00     0.275 HD
HETATM   13  H           1     -34.184  -0.419 -10.928  0.00  0.00     0.275 HD
ENDBRANCH   5  10
ENDBRANCH   1   5
BRANCH   2  14
HETATM   14  C           1     -35.729  -0.536 -15.055  0.00  0.00     0.195 C 
BRANCH  14  15
HETATM   15  C           1     -35.568  -1.188 -16.406  0.00  0.00     0.197 C 
HETATM   16  O           1     -36.477  -1.091 -17.259  0.00  0.00    -0.646 OA
HETATM   17  O           1     -34.526  -1.824 -16.674  0.00  0.00    -0.646 OA
ENDBRANCH  14  15
BRANCH  14  18
HETATM   18  C           1     -35.327   0.930 -15.147  0.00  0.00     0.149 C 
BRANCH  18  19
HETATM   19  C           1     -36.381   1.695 -15.909  0.00  0.00     0.175 C 
HETATM   20  O           1     -37.580   1.353 -15.831  0.00  0.00    -0.648 OA
HETATM   21  O           1     -36.054   2.670 -16.619  0.00  0.00    -0.648 OA
ENDBRANCH  18  19
ENDBRANCH  14  18
ENDBRANCH   2  14
TORSDOF 8
ENDMDL
MODEL 4
REMARK VINA RESULT:      -6.1     12.574     14.587
REMARK  8 active torsions:
REMARK  status: ('A' for Active; 'I' for Inactive)
REMARK    1  A    between atoms: C_2  and  C_3 
REMARK    2  A    between atoms: C_2  and  C_14 
REMARK    3  A    between atoms: C_2  and  N_10 
REMARK       I    between atoms: C_3  and  N_4 
REMARK    4  A    between atoms: N_4  and  C_8 
REMARK    5  A    between atoms: C_7  and  C_8 
REMARK    6  A    between atoms: C_8  and  C_12 
REMARK    7  A    between atoms: C_12  and  C_20 
REMARK    8  A    between atoms: C_14  and  C_16 
ROOT
HETATM    1  C           1     -21.649  -4.623  -7.650  0.00  0.00     0.249 C 
HETATM    2  N           1     -22.274  -4.873  -8.843  0.00  0.00    -0.344 N 
HETATM    3  H           1     -22.383  -5.825  -9.167  0.00  0.00     0.163 HD
HETATM    4  O           1     -21.519  -3.486  -7.264  0.00  0.00    -0.271 OA
ENDROOT
BRANCH   1   5
HETATM    5  C           1     -21.121  -5.768  -6.821  0.00  0.00     0.275 C 
BRANCH   5   6
HETATM    6  C           1     -20.935  -5.309  -5.381  0.00  0.00     0.046 C 
BRANCH   6   7
HETATM    7  C           1     -20.979  -6.515  -4.452  0.00  0.00    -0.020 C 
HETATM    8  C           1     -21.988  -7.525  -4.981  0.00  0.00     0.009 C 
HETATM    9  C           1     -21.391  -6.068  -3.056  0.00  0.00     0.009 C 
ENDBRANCH   6   7
ENDBRANCH   5   6
BRANCH   5  10
HETATM   10  N           1     -19.803  -6.220  -7.375  0.00  0.00    -0.066 N 
HETATM   11  H           1     -19.734  -7.260  -7.303  0.00  0.00     0.275 HD
HETATM   12  H           1     -19.026  -5.781  -6.830  0.00  0.00     0.275 HD
HETATM   13  H           1     -19.730  -5.934  -8.377  0.00  0.00     0.275 HD
ENDBRANCH   5  10
ENDBRANCH   1   5
BRANCH   2  14
HETATM   14  C           1     -22.781  -3.773  -9.641  0.00  0.00     0.195 C 
BRANCH  14  15
HETATM   15  C           1     -24.288  -3.825  -9.668  0.00  0.00     0.197 C 
HETATM   16  O           1     -24.953  -2.780  -9.496  0.00  0.00    -0.646 OA
HETATM   17  O           1     -24.873  -4.913  -9.865  0.00  0.00    -0.646 OA
ENDBRANCH  14  15
BRANCH  14  18
HETATM   18  C           1     -22.242  -3.885 -11.060  0.00  0.00     0.149 C 
BRANCH  18  19
HETATM   19  C           1     -20.741  -3.734 -11.044  0.00  0.00     0.175 C 
HETATM   20  O           1     -20.223  -2.619 -11.273  0.00  0.00    -0.648 OA
HETATM   21  O           1     -20.016  -4.722 -10.800  0.00  0.00    -0.648 OA
ENDBRANCH  18  19
ENDBRANCH  14  18
ENDBRANCH   2  14
TORSDOF 8
ENDMDL
MODEL 5
REMARK VINA RESULT:      -5.7      1.468      2.313
REMARK  8 active torsions:
REMARK  status: ('A' for Active; 'I' for Inactive)
REMARK    1  A    between atoms: C_2  and  C_3 
REMARK    2  A    between atoms: C_2  and  C_14 
REMARK    3  A    between atoms: C_2  and  N_10 
REMARK       I    between atoms: C_3  and  N_4 
REMARK    4  A    between atoms: N_4  and  C_8 
REMARK    5  A    between atoms: C_7  and  C_8 
REMARK    6  A    between atoms: C_8  and  C_12 
REMARK    7  A    between atoms: C_12  and  C_20 
REMARK    8  A    between atoms: C_14  and  C_16 
ROOT
HETATM    1  C           1     -34.982  -2.234 -12.306  0.00  0.00     0.249 C 
HETATM    2  N           1     -34.787  -1.618 -13.513  0.00  0.00    -0.344 N 
HETATM    3  H           1     -33.847  -1.458 -13.853  0.00  0.00     0.163 HD
HETATM    4  O           1     -36.104  -2.425 -11.900  0.00  0.00    -0.271 OA
ENDROOT
BRANCH   1   5
HETATM    5  C           1     -33.796  -2.671 -11.481  0.00  0.00     0.275 C 
BRANCH   5   6
HETATM    6  C           1     -34.213  -3.804 -10.552  0.00  0.00     0.046 C 
BRANCH   6   7
HETATM    7  C           1     -33.500  -5.085 -10.960  0.00  0.00    -0.020 C 
HETATM    8  C           1     -32.479  -4.773 -12.045  0.00  0.00     0.009 C 
HETATM    9  C           1     -34.516  -6.087 -11.492  0.00  0.00     0.009 C 
ENDBRANCH   6   7
ENDBRANCH   5   6
BRANCH   5  10
HETATM   10  N           1     -33.300  -1.514 -10.667  0.00  0.00    -0.066 N 
HETATM   11  H           1     -32.948  -0.765 -11.305  0.00  0.00     0.275 HD
HETATM   12  H           1     -32.524  -1.834 -10.043  0.00  0.00     0.275 HD
HETATM   13  H           1     -34.081  -1.138 -10.085  0.00  0.00     0.275 HD
ENDBRANCH   5  10
ENDBRANCH   1   5
BRANCH   2  14
HETATM   14  C           1     -35.926  -1.198 -14.306  0.00  0.00     0.195 C 
BRANCH  14  15
HETATM   15  C           1     -35.586  -1.304 -15.771  0.00  0.00     0.197 C 
HETATM   16  O           1     -35.995  -0.435 -16.573  0.00  0.00    -0.646 OA
HETATM   17  O           1     -34.893  -2.259 -16.185  0.00  0.00    -0.646 OA
ENDBRANCH  14  15
BRANCH  14  18
HETATM   18  C           1     -36.274   0.246 -13.968  0.00  0.00     0.149 C 
BRANCH  18  19
HETATM   19  C           1     -35.169   0.850 -13.136  0.00  0.00     0.175 C 
HETATM   20  O           1     -35.230   0.804 -11.889  0.00  0.00    -0.648 OA
HETATM   21  O           1     -34.193   1.395 -13.695  0.00  0.00    -0.648 OA
ENDBRANCH  18  19
ENDBRANCH  14  18
ENDBRANCH   2  14
TORSDOF 8
ENDMDL
MODEL 6
REMARK VINA RESULT:      -5.5     25.271     26.726
REMARK  8 active torsions:
REMARK  status: ('A' for Active; 'I' for Inactive)
REMARK    1  A    between atoms: C_2  and  C_3 
REMARK    2  A    between atoms: C_2  and  C_14 
REMARK    3  A    between atoms: C_2  and  N_10 
REMARK       I    between atoms: C_3  and  N_4 
REMARK    4  A    between atoms: N_4  and  C_8 
REMARK    5  A    between atoms: C_7  and  C_8 
REMARK    6  A    between atoms: C_8  and  C_12 
REMARK    7  A    between atoms: C_12  and  C_20 
REMARK    8  A    between atoms: C_14  and  C_16 
ROOT
HETATM    1  C           1     -11.521   6.076 -20.001  0.00  0.00     0.249 C 
HETATM    2  N           1     -11.327   7.266 -20.651  0.00  0.00    -0.344 N 
HETATM    3  H           1     -10.457   7.441 -21.138  0.00  0.00     0.163 HD
HETATM    4  O           1     -12.559   5.868 -19.420  0.00  0.00    -0.271 OA
ENDROOT
BRANCH   1   5
HETATM    5  C           1     -10.437   5.026 -20.009  0.00  0.00     0.275 C 
BRANCH   5   6
HETATM    6  C           1     -11.051   3.659 -19.738  0.00  0.00     0.046 C 
BRANCH   6   7
HETATM    7  C           1     -11.318   2.950 -21.059  0.00  0.00    -0.020 C 
HETATM    8  C           1     -10.741   3.774 -22.202  0.00  0.00     0.009 C 
HETATM    9  C           1     -12.819   2.789 -21.256  0.00  0.00     0.009 C 
ENDBRANCH   6   7
ENDBRANCH   5   6
BRANCH   5  10
HETATM   10  N           1      -9.428   5.342 -18.945  0.00  0.00    -0.066 N 
HETATM   11  H           1      -8.976   6.260 -19.155  0.00  0.00     0.275 HD
HETATM   12  H           1      -8.700   4.592 -18.922  0.00  0.00     0.275 HD
HETATM   13  H           1      -9.906   5.391 -18.018  0.00  0.00     0.275 HD
ENDBRANCH   5  10
ENDBRANCH   1   5
BRANCH   2  14
HETATM   14  C           1     -12.369   8.275 -20.643  0.00  0.00     0.195 C 
BRANCH  14  15
HETATM   15  C           1     -12.667   8.700 -22.059  0.00  0.00     0.197 C 
HETATM   16  O           1     -13.846   8.700 -22.477  0.00  0.00    -0.646 OA
HETATM   17  O           1     -11.737   9.055 -22.815  0.00  0.00    -0.646 OA
ENDBRANCH  14  15
BRANCH  14  18
HETATM   18  C           1     -11.901   9.480 -19.838  0.00  0.00     0.149 C 
BRANCH  18  19
HETATM   19  C           1     -10.444   9.314 -19.482  0.00  0.00     0.175 C 
HETATM   20  O           1     -10.123   8.841 -18.371  0.00  0.00    -0.648 OA
HETATM   21  O           1      -9.560   9.651 -20.298  0.00  0.00    -0.648 OA
ENDBRANCH  18  19
ENDBRANCH  14  18
ENDBRANCH   2  14
TORSDOF 8
ENDMDL
MODEL 7
REMARK VINA RESULT:      -5.4      9.655     11.454
REMARK  8 active torsions:
REMARK  status: ('A' for Active; 'I' for Inactive)
REMARK    1  A    between atoms: C_2  and  C_3 
REMARK    2  A    between atoms: C_2  and  C_14 
REMARK    3  A    between atoms: C_2  and  N_10 
REMARK       I    between atoms: C_3  and  N_4 
REMARK    4  A    between atoms: N_4  and  C_8 
REMARK    5  A    between atoms: C_7  and  C_8 
REMARK    6  A    between atoms: C_8  and  C_12 
REMARK    7  A    between atoms: C_12  and  C_20 
REMARK    8  A    between atoms: C_14  and  C_16 
ROOT
HETATM    1  C           1     -26.883  -6.381 -18.167  0.00  0.00     0.249 C 
HETATM    2  N           1     -28.009  -6.825 -18.807  0.00  0.00    -0.344 N 
HETATM    3  H           1     -27.963  -7.101 -19.780  0.00  0.00     0.163 HD
HETATM    4  O           1     -26.939  -6.052 -17.006  0.00  0.00    -0.271 OA
ENDROOT
BRANCH   1   5
HETATM    5  C           1     -25.573  -6.301 -18.912  0.00  0.00     0.275 C 
BRANCH   5   6
HETATM    6  C           1     -25.832  -6.424 -20.408  0.00  0.00     0.046 C 
BRANCH   6   7
HETATM    7  C           1     -25.421  -7.811 -20.884  0.00  0.00    -0.020 C 
HETATM    8  C           1     -24.412  -7.680 -22.016  0.00  0.00     0.009 C 
HETATM    9  C           1     -26.649  -8.562 -21.382  0.00  0.00     0.009 C 
ENDBRANCH   6   7
ENDBRANCH   5   6
BRANCH   5  10
HETATM   10  N           1     -24.676  -7.418 -18.467  0.00  0.00    -0.066 N 
HETATM   11  H           1     -24.870  -7.641 -17.465  0.00  0.00     0.275 HD
HETATM   12  H           1     -23.678  -7.126 -18.573  0.00  0.00     0.275 HD
HETATM   13  H           1     -24.856  -8.263 -19.054  0.00  0.00     0.275 HD
ENDBRANCH   5  10
ENDBRANCH   1   5
BRANCH   2  14
HETATM   14  C           1     -29.268  -6.902 -18.091  0.00  0.00     0.195 C 
BRANCH  14  15
HETATM   15  C           1     -30.147  -7.947 -18.731  0.00  0.00     0.197 C 
HETATM   16  O           1     -31.391  -7.830 -18.686  0.00  0.00    -0.646 OA
HETATM   17  O           1     -29.632  -8.931 -19.306  0.00  0.00    -0.646 OA
ENDBRANCH  14  15
BRANCH  14  18
HETATM   18  C           1     -29.965  -5.549 -18.145  0.00  0.00     0.149 C 
BRANCH  18  19
HETATM   19  C           1     -30.636  -5.274 -16.822  0.00  0.00     0.175 C 
HETATM   20  O           1     -30.033  -5.519 -15.754  0.00  0.00    -0.648 OA
HETATM   21  O           1     -31.792  -4.802 -16.793  0.00  0.00    -0.648 OA
ENDBRANCH  18  19
ENDBRANCH  14  18
ENDBRANCH   2  14
TORSDOF 8
ENDMDL
MODEL 8
REMARK VINA RESULT:      -5.4      9.807     11.868
REMARK  8 active torsions:
REMARK  status: ('A' for Active; 'I' for Inactive)
REMARK    1  A    between atoms: C_2  and  C_3 
REMARK    2  A    between atoms: C_2  and  C_14 
REMARK    3  A    between atoms: C_2  and  N_10 
REMARK       I    between atoms: C_3  and  N_4 
REMARK    4  A    between atoms: N_4  and  C_8 
REMARK    5  A    between atoms: C_7  and  C_8 
REMARK    6  A    between atoms: C_8  and  C_12 
REMARK    7  A    between atoms: C_12  and  C_20 
REMARK    8  A    between atoms: C_14  and  C_16 
ROOT
HETATM    1  C           1     -26.750  -6.282 -18.704  0.00  0.00     0.249 C 
HETATM    2  N           1     -27.057  -6.668 -17.426  0.00  0.00    -0.344 N 
HETATM    3  H           1     -26.324  -6.984 -16.804  0.00  0.00     0.163 HD
HETATM    4  O           1     -27.625  -5.905 -19.446  0.00  0.00    -0.271 OA
ENDROOT
BRANCH   1   5
HETATM    5  C           1     -25.321  -6.332 -19.185  0.00  0.00     0.275 C 
BRANCH   5   6
HETATM    6  C           1     -25.300  -6.450 -20.703  0.00  0.00     0.046 C 
BRANCH   6   7
HETATM    7  C           1     -25.094  -7.906 -21.098  0.00  0.00    -0.020 C 
HETATM    8  C           1     -24.133  -7.980 -22.277  0.00  0.00     0.009 C 
HETATM    9  C           1     -26.429  -8.521 -21.493  0.00  0.00     0.009 C 
ENDBRANCH   6   7
ENDBRANCH   5   6
BRANCH   5  10
HETATM   10  N           1     -24.632  -7.520 -18.582  0.00  0.00    -0.066 N 
HETATM   11  H           1     -23.963  -7.923 -19.276  0.00  0.00     0.275 HD
HETATM   12  H           1     -25.344  -8.242 -18.325  0.00  0.00     0.275 HD
HETATM   13  H           1     -24.113  -7.223 -17.726  0.00  0.00     0.275 HD
ENDBRANCH   5  10
ENDBRANCH   1   5
BRANCH   2  14
HETATM   14  C           1     -28.430  -6.620 -16.962  0.00  0.00     0.195 C 
BRANCH  14  15
HETATM   15  C           1     -28.450  -6.552 -15.456  0.00  0.00     0.197 C 
HETATM   16  O           1     -27.923  -7.464 -14.782  0.00  0.00    -0.646 OA
HETATM   17  O           1     -28.993  -5.584 -14.880  0.00  0.00    -0.646 OA
ENDBRANCH  14  15
BRANCH  14  18
HETATM   18  C           1     -29.165  -7.870 -17.426  0.00  0.00     0.149 C 
BRANCH  18  19
HETATM   19  C           1     -30.507  -7.484 -17.997  0.00  0.00     0.175 C 
HETATM   20  O           1     -31.165  -6.559 -17.475  0.00  0.00    -0.648 OA
HETATM   21  O           1     -30.959  -8.089 -18.993  0.00  0.00    -0.648 OA
ENDBRANCH  18  19
ENDBRANCH  14  18
ENDBRANCH   2  14
TORSDOF 8
ENDMDL
MODEL 9
REMARK VINA RESULT:      -5.3     24.713     26.442
REMARK  8 active torsions:
REMARK  status: ('A' for Active; 'I' for Inactive)
REMARK    1  A    between atoms: C_2  and  C_3 
REMARK    2  A    between atoms: C_2  and  C_14 
REMARK    3  A    between atoms: C_2  and  N_10 
REMARK       I    between atoms: C_3  and  N_4 
REMARK    4  A    between atoms: N_4  and  C_8 
REMARK    5  A    between atoms: C_7  and  C_8 
REMARK    6  A    between atoms: C_8  and  C_12 
REMARK    7  A    between atoms: C_12  and  C_20 
REMARK    8  A    between atoms: C_14  and  C_16 
ROOT
HETATM    1  C           1     -11.477   5.963 -19.912  0.00  0.00     0.249 C 
HETATM    2  N           1     -11.531   4.888 -20.760  0.00  0.00    -0.344 N 
HETATM    3  H           1     -10.679   4.511 -21.154  0.00  0.00     0.163 HD
HETATM    4  O           1     -12.495   6.412 -19.442  0.00  0.00    -0.271 OA
ENDROOT
BRANCH   1   5
HETATM    5  C           1     -10.146   6.587 -19.569  0.00  0.00     0.275 C 
BRANCH   5   6
HETATM    6  C           1      -9.450   7.033 -20.848  0.00  0.00     0.046 C 
BRANCH   6   7
HETATM    7  C           1      -9.846   8.468 -21.169  0.00  0.00    -0.020 C 
HETATM    8  C           1     -10.738   8.482 -22.403  0.00  0.00     0.009 C 
HETATM    9  C           1      -8.596   9.294 -21.437  0.00  0.00     0.009 C 
ENDBRANCH   6   7
ENDBRANCH   5   6
BRANCH   5  10
HETATM   10  N           1      -9.291   5.580 -18.859  0.00  0.00    -0.066 N 
HETATM   11  H           1      -8.407   5.434 -19.397  0.00  0.00     0.275 HD
HETATM   12  H           1      -9.808   4.674 -18.785  0.00  0.00     0.275 HD
HETATM   13  H           1      -9.064   5.930 -17.902  0.00  0.00     0.275 HD
ENDBRANCH   5  10
ENDBRANCH   1   5
BRANCH   2  14
HETATM   14  C           1     -12.809   4.288 -21.090  0.00  0.00     0.195 C 
BRANCH  14  15
HETATM   15  C           1     -12.665   2.787 -21.129  0.00  0.00     0.197 C 
HETATM   16  O           1     -13.661   2.069 -21.367  0.00  0.00    -0.646 OA
HETATM   17  O           1     -11.549   2.260 -20.926  0.00  0.00    -0.646 OA
ENDBRANCH  14  15
BRANCH  14  18
HETATM   18  C           1     -13.269   4.791 -22.451  0.00  0.00     0.149 C 
BRANCH  18  19
HETATM   19  C           1     -14.451   5.713 -22.276  0.00  0.00     0.175 C 
HETATM   20  O           1     -15.443   5.337 -21.616  0.00  0.00    -0.648 OA
HETATM   21  O           1     -14.437   6.851 -22.790  0.00  0.00    -0.648 OA
ENDBRANCH  18  19
ENDBRANCH  14  18
ENDBRANCH   2  14
TORSDOF 8
ENDMDL
