MODEL 1
REMARK VINA RESULT:      -6.8      0.000      0.000
REMARK  8 active torsions:
REMARK  status: ('A' for Active; 'I' for Inactive)
REMARK    1  A    between atoms: C_2  and  C_3 
REMARK    2  A    between atoms: C_3  and  C_6 
REMARK    3  A    between atoms: C_3  and  N_17 
REMARK    4  A    between atoms: C_12  and  C_23 
REMARK       I    between atoms: C_12  and  N_20 
REMARK    5  A    between atoms: N_14  and  C_19 
REMARK       I    between atoms: N_17  and  C_22 
REMARK    6  A    between atoms: C_18  and  C_19 
REMARK    7  A    between atoms: C_18  and  C_23 
REMARK    8  A    between atoms: C_19  and  C_22 
ROOT
HETATM    1  C           1     -21.114  -5.900  -6.873  0.00  0.00     0.275 C 
ENDROOT
BRANCH   1   2
HETATM    2  N           1     -19.714  -6.226  -7.303  0.00  0.00    -0.066 N 
HETATM    3  H           1     -19.680  -7.205  -7.665  0.00  0.00     0.275 HD
HETATM    4  H           1     -19.069  -6.132  -6.486  0.00  0.00     0.275 HD
HETATM    5  H           1     -19.418  -5.565  -8.056  0.00  0.00     0.275 HD
ENDBRANCH   1   2
BRANCH   1   6
HETATM    6  C           1     -21.119  -5.539  -5.393  0.00  0.00     0.052 C 
BRANCH   6   7
HETATM    7  C           1     -22.152  -6.389  -4.666  0.00  0.00     0.105 C 
BRANCH   7   8
HETATM    8  C           1     -21.729  -6.578  -3.230  0.00  0.00     0.215 C 
HETATM    9  N           1     -22.399  -5.931  -2.227  0.00  0.00    -0.370 N 
HETATM   10  H           1     -22.115  -6.058  -1.264  0.00  0.00     0.159 HD
HETATM   11  H           1     -23.179  -5.324  -2.449  0.00  0.00     0.159 HD
HETATM   12  O           1     -20.799  -7.302  -2.966  0.00  0.00    -0.274 OA
ENDBRANCH   7   8
ENDBRANCH   6   7
ENDBRANCH   1   6
BRANCH   1  13
HETATM   13  C           1     -21.628  -4.732  -7.678  0.00  0.00     0.249 C 
HETATM   14  O           1     -21.621  -3.621  -7.204  0.00  0.00    -0.271 OA
HETATM   15  N           1     -22.102  -4.931  -8.947  0.00  0.00    -0.344 N 
HETATM   16  H           1     -22.108  -5.861  -9.344  0.00  0.00     0.163 HD
BRANCH  15  17
HETATM   17  C           1     -22.595  -3.809  -9.721  0.00  0.00     0.189 C 
BRANCH  17  18
HETATM   18  C           1     -24.103  -3.852  -9.764  0.00  0.00     0.197 C 
HETATM   19  O           1     -24.766  -2.831  -9.483  0.00  0.00    -0.646 OA
HETATM   20  O           1     -24.689  -4.911 -10.082  0.00  0.00    -0.646 OA
ENDBRANCH  17  18
BRANCH  17  21
HETATM   21  C           1     -22.044  -3.889 -11.138  0.00  0.00     0.010 C 
HETATM   22  C           1     -22.525  -2.685 -11.938  0.00  0.00     0.012 C 
HETATM   23  C           1     -20.521  -3.890 -11.090  0.00  0.00     0.012 C 
ENDBRANCH  17  21
ENDBRANCH  15  17
ENDBRANCH   1  13
TORSDOF 8
ENDMDL
MODEL 2
REMARK VINA RESULT:      -6.4     12.787     15.757
REMARK  8 active torsions:
REMARK  status: ('A' for Active; 'I' for Inactive)
REMARK    1  A    between atoms: C_2  and  C_3 
REMARK    2  A    between atoms: C_3  and  C_6 
REMARK    3  A    between atoms: C_3  and  N_17 
REMARK    4  A    between atoms: C_12  and  C_23 
REMARK       I    between atoms: C_12  and  N_20 
REMARK    5  A    between atoms: N_14  and  C_19 
REMARK       I    between atoms: N_17  and  C_22 
REMARK    6  A    between atoms: C_18  and  C_19 
REMARK    7  A    between atoms: C_18  and  C_23 
REMARK    8  A    between atoms: C_19  and  C_22 
ROOT
HETATM    1  C           1     -35.766  -0.311 -13.207  0.00  0.00     0.275 C 
ENDROOT
BRANCH   1   2
HETATM    2  N           1     -35.352   0.493 -12.011  0.00  0.00    -0.066 N 
HETATM    3  H           1     -35.210   1.489 -12.293  0.00  0.00     0.275 HD
HETATM    4  H           1     -34.460   0.109 -11.625  0.00  0.00     0.275 HD
HETATM    5  H           1     -36.097   0.441 -11.280  0.00  0.00     0.275 HD
ENDBRANCH   1   2
BRANCH   1   6
HETATM    6  C           1     -35.197   0.325 -14.469  0.00  0.00     0.052 C 
BRANCH   6   7
HETATM    7  C           1     -36.338   0.779 -15.368  0.00  0.00     0.105 C 
BRANCH   7   8
HETATM    8  C           1     -36.869  -0.401 -16.144  0.00  0.00     0.215 C 
HETATM    9  N           1     -36.168  -0.889 -17.213  0.00  0.00    -0.370 N 
HETATM   10  H           1     -36.524  -1.681 -17.733  0.00  0.00     0.159 HD
HETATM   11  H           1     -35.292  -0.458 -17.484  0.00  0.00     0.159 HD
HETATM   12  O           1     -37.913  -0.915 -15.821  0.00  0.00    -0.274 OA
ENDBRANCH   7   8
ENDBRANCH   6   7
ENDBRANCH   1   6
BRANCH   1  13
HETATM   13  C           1     -35.241  -1.719 -13.071  0.00  0.00     0.249 C 
HETATM   14  O           1     -34.836  -2.310 -14.045  0.00  0.00    -0.271 OA
HETATM   15  N           1     -35.223  -2.328 -11.845  0.00  0.00    -0.344 N 
HETATM   16  H           1     -35.562  -1.834 -11.030  0.00  0.00     0.163 HD
BRANCH  15  17
HETATM   17  C           1     -34.718  -3.681 -11.715  0.00  0.00     0.189 C 
BRANCH  17  18
HETATM   18  C           1     -35.636  -4.476 -10.820  0.00  0.00     0.197 C 
HETATM   19  O           1     -35.312  -5.627 -10.456  0.00  0.00    -0.646 OA
HETATM   20  O           1     -36.722  -3.983 -10.442  0.00  0.00    -0.646 OA
ENDBRANCH  17  18
BRANCH  17  21
HETATM   21  C           1     -33.322  -3.645 -11.107  0.00  0.00     0.010 C 
HETATM   22  C           1     -32.320  -4.208 -12.106  0.00  0.00     0.012 C 
HETATM   23  C           1     -32.952  -2.206 -10.773  0.00  0.00     0.012 C 
ENDBRANCH  17  21
ENDBRANCH  15  17
ENDBRANCH   1  13
TORSDOF 8
ENDMDL
MODEL 3
REMARK VINA RESULT:      -6.4      2.827      6.839
REMARK  8 active torsions:
REMARK  status: ('A' for Active; 'I' for Inactive)
REMARK    1  A    between atoms: C_2  and  C_3 
REMARK    2  A    between atoms: C_3  and  C_6 
REMARK    3  A    between atoms: C_3  and  N_17 
REMARK    4  A    between atoms: C_12  and  C_23 
REMARK       I    between atoms: C_12  and  N_20 
REMARK    5  A    between atoms: N_14  and  C_19 
REMARK       I    between atoms: N_17  and  C_22 
REMARK    6  A    between atoms: C_18  and  C_19 
REMARK    7  A    between atoms: C_18  and  C_23 
REMARK    8  A    between atoms: C_19  and  C_22 
ROOT
HETATM    1  C           1     -23.960  -4.306 -10.652  0.00  0.00     0.275 C 
ENDROOT
BRANCH   1   2
HETATM    2  N           1     -24.946  -4.210  -9.525  0.00  0.00    -0.066 N 
HETATM    3  H           1     -25.909  -4.095  -9.914  0.00  0.00     0.275 HD
HETATM    4  H           1     -24.711  -3.387  -8.926  0.00  0.00     0.275 HD
HETATM    5  H           1     -24.904  -5.082  -8.950  0.00  0.00     0.275 HD
ENDBRANCH   1   2
BRANCH   1   6
HETATM    6  C           1     -23.880  -2.965 -11.370  0.00  0.00     0.052 C 
BRANCH   6   7
HETATM    7  C           1     -24.462  -3.103 -12.770  0.00  0.00     0.105 C 
BRANCH   7   8
HETATM    8  C           1     -23.358  -2.970 -13.791  0.00  0.00     0.215 C 
HETATM    9  N           1     -22.077  -3.321 -13.463  0.00  0.00    -0.370 N 
HETATM   10  H           1     -21.337  -3.231 -14.148  0.00  0.00     0.159 HD
HETATM   11  H           1     -21.869  -3.670 -12.536  0.00  0.00     0.159 HD
HETATM   12  O           1     -23.607  -2.554 -14.897  0.00  0.00    -0.274 OA
ENDBRANCH   7   8
ENDBRANCH   6   7
ENDBRANCH   1   6
BRANCH   1  13
HETATM   13  C           1     -22.602  -4.664 -10.101  0.00  0.00     0.249 C 
HETATM   14  O           1     -21.639  -4.681 -10.830  0.00  0.00    -0.271 OA
HETATM   15  N           1     -22.461  -4.973  -8.775  0.00  0.00    -0.344 N 
HETATM   16  H           1     -23.267  -4.959  -8.164  0.00  0.00     0.163 HD
BRANCH  15  17
HETATM   17  C           1     -21.156  -5.318  -8.245  0.00  0.00     0.189 C 
BRANCH  17  18
HETATM   18  C           1     -21.323  -6.061  -6.943  0.00  0.00     0.197 C 
HETATM   19  O           1     -20.653  -7.092  -6.722  0.00  0.00    -0.646 OA
HETATM   20  O           1     -22.131  -5.645  -6.085  0.00  0.00    -0.646 OA
ENDBRANCH  17  18
BRANCH  17  21
HETATM   21  C           1     -20.354  -4.046  -8.006  0.00  0.00     0.010 C 
HETATM   22  C           1     -21.153  -3.102  -7.117  0.00  0.00     0.012 C 
HETATM   23  C           1     -19.040  -4.397  -7.320  0.00  0.00     0.012 C 
ENDBRANCH  17  21
ENDBRANCH  15  17
ENDBRANCH   1  13
TORSDOF 8
ENDMDL
MODEL 4
REMARK VINA RESULT:      -6.1      2.756      6.556
REMARK  8 active torsions:
REMARK  status: ('A' for Active; 'I' for Inactive)
REMARK    1  A    between atoms: C_2  and  C_3 
REMARK    2  A    between atoms: C_3  and  C_6 
REMARK    3  A    between atoms: C_3  and  N_17 
REMARK    4  A    between atoms: C_12  and  C_23 
REMARK       I    between atoms: C_12  and  N_20 
REMARK    5  A    between atoms: N_14  and  C_19 
REMARK       I    between atoms: N_17  and  C_22 
REMARK    6  A    between atoms: C_18  and  C_19 
REMARK    7  A    between atoms: C_18  and  C_23 
REMARK    8  A    between atoms: C_19  and  C_22 
ROOT
HETATM    1  C           1     -24.207  -4.698  -9.835  0.00  0.00     0.275 C 
ENDROOT
BRANCH   1   2
HETATM    2  N           1     -25.347  -3.724  -9.770  0.00  0.00    -0.066 N 
HETATM    3  H           1     -25.415  -3.208 -10.675  0.00  0.00     0.275 HD
HETATM    4  H           1     -25.181  -3.047  -8.992  0.00  0.00     0.275 HD
HETATM    5  H           1     -26.238  -4.242  -9.595  0.00  0.00     0.275 HD
ENDBRANCH   1   2
BRANCH   1   6
HETATM    6  C           1     -23.766  -4.867 -11.283  0.00  0.00     0.052 C 
BRANCH   6   7
HETATM    7  C           1     -23.957  -3.553 -12.028  0.00  0.00     0.105 C 
BRANCH   7   8
HETATM    8  C           1     -22.653  -3.144 -12.670  0.00  0.00     0.215 C 
HETATM    9  N           1     -21.514  -3.065 -11.915  0.00  0.00    -0.370 N 
HETATM   10  H           1     -20.640  -2.791 -12.345  0.00  0.00     0.159 HD
HETATM   11  H           1     -21.545  -3.282 -10.926  0.00  0.00     0.159 HD
HETATM   12  O           1     -22.616  -2.886 -13.849  0.00  0.00    -0.274 OA
ENDBRANCH   7   8
ENDBRANCH   6   7
ENDBRANCH   1   6
BRANCH   1  13
HETATM   13  C           1     -23.053  -4.175  -9.015  0.00  0.00     0.249 C 
HETATM   14  O           1     -22.881  -2.984  -8.903  0.00  0.00    -0.271 OA
HETATM   15  N           1     -22.200  -5.051  -8.398  0.00  0.00    -0.344 N 
HETATM   16  H           1     -22.343  -6.048  -8.491  0.00  0.00     0.163 HD
BRANCH  15  17
HETATM   17  C           1     -21.091  -4.548  -7.610  0.00  0.00     0.189 C 
BRANCH  17  18
HETATM   18  C           1     -19.852  -4.488  -8.469  0.00  0.00     0.197 C 
HETATM   19  O           1     -18.764  -4.125  -7.972  0.00  0.00    -0.646 OA
HETATM   20  O           1     -19.913  -4.801  -9.678  0.00  0.00    -0.646 OA
ENDBRANCH  17  18
BRANCH  17  21
HETATM   21  C           1     -20.846  -5.478  -6.429  0.00  0.00     0.010 C 
HETATM   22  C           1     -20.162  -4.705  -5.309  0.00  0.00     0.012 C 
HETATM   23  C           1     -22.177  -6.024  -5.929  0.00  0.00     0.012 C 
ENDBRANCH  17  21
ENDBRANCH  15  17
ENDBRANCH   1  13
TORSDOF 8
ENDMDL
MODEL 5
REMARK VINA RESULT:      -6.0      1.841      1.940
REMARK  8 active torsions:
REMARK  status: ('A' for Active; 'I' for Inactive)
REMARK    1  A    between atoms: C_2  and  C_3 
REMARK    2  A    between atoms: C_3  and  C_6 
REMARK    3  A    between atoms: C_3  and  N_17 
REMARK    4  A    between atoms: C_12  and  C_23 
REMARK       I    between atoms: C_12  and  N_20 
REMARK    5  A    between atoms: N_14  and  C_19 
REMARK       I    between atoms: N_17  and  C_22 
REMARK    6  A    between atoms: C_18  and  C_19 
REMARK    7  A    between atoms: C_18  and  C_23 
REMARK    8  A    between atoms: C_19  and  C_22 
ROOT
HETATM    1  C           1     -21.484  -5.293  -5.962  0.00  0.00     0.275 C 
ENDROOT
BRANCH   1   2
HETATM    2  N           1     -22.789  -5.773  -5.400  0.00  0.00    -0.066 N 
HETATM    3  H           1     -23.515  -5.033  -5.524  0.00  0.00     0.275 HD
HETATM    4  H           1     -22.674  -5.984  -4.383  0.00  0.00     0.275 HD
HETATM    5  H           1     -23.087  -6.640  -5.903  0.00  0.00     0.275 HD
ENDBRANCH   1   2
BRANCH   1   6
HETATM    6  C           1     -20.684  -6.483  -6.477  0.00  0.00     0.052 C 
BRANCH   6   7
HETATM    7  C           1     -21.116  -7.742  -5.738  0.00  0.00     0.105 C 
BRANCH   7   8
HETATM    8  C           1     -19.911  -8.388  -5.097  0.00  0.00     0.215 C 
HETATM    9  N           1     -19.857  -8.536  -3.737  0.00  0.00    -0.370 N 
HETATM   10  H           1     -19.049  -8.968  -3.307  0.00  0.00     0.159 HD
HETATM   11  H           1     -20.624  -8.212  -3.161  0.00  0.00     0.159 HD
HETATM   12  O           1     -18.996  -8.774  -5.784  0.00  0.00    -0.274 OA
ENDBRANCH   7   8
ENDBRANCH   6   7
ENDBRANCH   1   6
BRANCH   1  13
HETATM   13  C           1     -21.748  -4.334  -7.097  0.00  0.00     0.249 C 
HETATM   14  O           1     -21.438  -3.171  -6.990  0.00  0.00    -0.271 OA
HETATM   15  N           1     -22.340  -4.782  -8.247  0.00  0.00    -0.344 N 
HETATM   16  H           1     -22.600  -5.755  -8.336  0.00  0.00     0.163 HD
BRANCH  15  17
HETATM   17  C           1     -22.594  -3.860  -9.337  0.00  0.00     0.189 C 
BRANCH  17  18
HETATM   18  C           1     -24.066  -3.867  -9.668  0.00  0.00     0.197 C 
HETATM   19  O           1     -24.743  -2.826  -9.529  0.00  0.00    -0.646 OA
HETATM   20  O           1     -24.609  -4.915 -10.082  0.00  0.00    -0.646 OA
ENDBRANCH  17  18
BRANCH  17  21
HETATM   21  C           1     -21.797  -4.290 -10.561  0.00  0.00     0.010 C 
HETATM   22  C           1     -21.892  -3.213 -11.633  0.00  0.00     0.012 C 
HETATM   23  C           1     -20.338  -4.491 -10.171  0.00  0.00     0.012 C 
ENDBRANCH  17  21
ENDBRANCH  15  17
ENDBRANCH   1  13
TORSDOF 8
ENDMDL
MODEL 6
REMARK VINA RESULT:      -6.0     14.122     16.235
REMARK  8 active torsions:
REMARK  status: ('A' for Active; 'I' for Inactive)
REMARK    1  A    between atoms: C_2  and  C_3 
REMARK    2  A    between atoms: C_3  and  C_6 
REMARK    3  A    between atoms: C_3  and  N_17 
REMARK    4  A    between atoms: C_12  and  C_23 
REMARK       I    between atoms: C_12  and  N_20 
REMARK    5  A    between atoms: N_14  and  C_19 
REMARK       I    between atoms: N_17  and  C_22 
REMARK    6  A    between atoms: C_18  and  C_19 
REMARK    7  A    between atoms: C_18  and  C_23 
REMARK    8  A    between atoms: C_19  and  C_22 
ROOT
HETATM    1  C           1     -36.153   0.290 -14.447  0.00  0.00     0.275 C 
ENDROOT
BRANCH   1   2
HETATM    2  N           1     -34.661   0.432 -14.379  0.00  0.00    -0.066 N 
HETATM    3  H           1     -34.302   0.773 -15.299  0.00  0.00     0.275 HD
HETATM    4  H           1     -34.233  -0.495 -14.158  0.00  0.00     0.275 HD
HETATM    5  H           1     -34.410   1.118 -13.631  0.00  0.00     0.275 HD
ENDBRANCH   1   2
BRANCH   1   6
HETATM    6  C           1     -36.532  -0.504 -15.690  0.00  0.00     0.052 C 
BRANCH   6   7
HETATM    7  C           1     -35.306  -0.669 -16.579  0.00  0.00     0.105 C 
BRANCH   7   8
HETATM    8  C           1     -34.748  -2.062 -16.414  0.00  0.00     0.215 C 
HETATM    9  N           1     -34.074  -2.656 -17.446  0.00  0.00    -0.370 N 
HETATM   10  H           1     -33.699  -3.589 -17.335  0.00  0.00     0.159 HD
HETATM   11  H           1     -33.949  -2.161 -18.321  0.00  0.00     0.159 HD
HETATM   12  O           1     -34.897  -2.651 -15.371  0.00  0.00    -0.274 OA
ENDBRANCH   7   8
ENDBRANCH   6   7
ENDBRANCH   1   6
BRANCH   1  13
HETATM   13  C           1     -36.645  -0.434 -13.217  0.00  0.00     0.249 C 
HETATM   14  O           1     -37.787  -0.825 -13.162  0.00  0.00    -0.271 OA
HETATM   15  N           1     -35.796  -0.648 -12.164  0.00  0.00    -0.344 N 
HETATM   16  H           1     -34.840  -0.321 -12.210  0.00  0.00     0.163 HD
BRANCH  15  17
HETATM   17  C           1     -36.269  -1.344 -10.983  0.00  0.00     0.189 C 
BRANCH  17  18
HETATM   18  C           1     -36.566  -0.342  -9.895  0.00  0.00     0.197 C 
HETATM   19  O           1     -36.214   0.849 -10.029  0.00  0.00    -0.646 OA
HETATM   20  O           1     -37.165  -0.704  -8.859  0.00  0.00    -0.646 OA
ENDBRANCH  17  18
BRANCH  17  21
HETATM   21  C           1     -35.196  -2.312 -10.503  0.00  0.00     0.010 C 
HETATM   22  C           1     -35.588  -3.733 -10.886  0.00  0.00     0.012 C 
HETATM   23  C           1     -33.865  -1.959 -11.154  0.00  0.00     0.012 C 
ENDBRANCH  17  21
ENDBRANCH  15  17
ENDBRANCH   1  13
TORSDOF 8
ENDMDL
MODEL 7
REMARK VINA RESULT:      -5.8      2.136      6.762
REMARK  8 active torsions:
REMARK  status: ('A' for Active; 'I' for Inactive)
REMARK    1  A    between atoms: C_2  and  C_3 
REMARK    2  A    between atoms: C_3  and  C_6 
REMARK    3  A    between atoms: C_3  and  N_17 
REMARK    4  A    between atoms: C_12  and  C_23 
REMARK       I    between atoms: C_12  and  N_20 
REMARK    5  A    between atoms: N_14  and  C_19 
REMARK       I    between atoms: N_17  and  C_22 
REMARK    6  A    between atoms: C_18  and  C_19 
REMARK    7  A    between atoms: C_18  and  C_23 
REMARK    8  A    between atoms: C_19  and  C_22 
ROOT
HETATM    1  C           1     -22.036  -4.458  -7.087  0.00  0.00     0.275 C 
ENDROOT
BRANCH   1   2
HETATM    2  N           1     -21.615  -3.018  -7.055  0.00  0.00    -0.066 N 
HETATM    3  H           1     -20.919  -2.876  -6.289  0.00  0.00     0.275 HD
HETATM    4  H           1     -22.451  -2.415  -6.885  0.00  0.00     0.275 HD
HETATM    5  H           1     -21.182  -2.761  -7.971  0.00  0.00     0.275 HD
ENDBRANCH   1   2
BRANCH   1   6
HETATM    6  C           1     -21.979  -4.972  -8.520  0.00  0.00     0.052 C 
BRANCH   6   7
HETATM    7  C           1     -22.603  -3.943  -9.453  0.00  0.00     0.105 C 
BRANCH   7   8
HETATM    8  C           1     -23.866  -4.509 -10.055  0.00  0.00     0.215 C 
HETATM    9  N           1     -25.087  -4.103  -9.590  0.00  0.00    -0.370 N 
HETATM   10  H           1     -25.934  -4.482  -9.994  0.00  0.00     0.159 HD
HETATM   11  H           1     -25.144  -3.423  -8.842  0.00  0.00     0.159 HD
HETATM   12  O           1     -23.798  -5.320 -10.947  0.00  0.00    -0.274 OA
ENDBRANCH   7   8
ENDBRANCH   6   7
ENDBRANCH   1   6
BRANCH   1  13
HETATM   13  C           1     -21.104  -5.272  -6.223  0.00  0.00     0.249 C 
HETATM   14  O           1     -19.925  -5.011  -6.192  0.00  0.00    -0.271 OA
HETATM   15  N           1     -21.596  -6.308  -5.474  0.00  0.00    -0.344 N 
HETATM   16  H           1     -22.583  -6.527  -5.500  0.00  0.00     0.163 HD
BRANCH  15  17
HETATM   17  C           1     -20.701  -7.090  -4.644  0.00  0.00     0.189 C 
BRANCH  17  18
HETATM   18  C           1     -20.320  -8.357  -5.370  0.00  0.00     0.197 C 
HETATM   19  O           1     -19.122  -8.583  -5.645  0.00  0.00    -0.646 OA
HETATM   20  O           1     -21.203  -9.179  -5.698  0.00  0.00    -0.646 OA
ENDBRANCH  17  18
BRANCH  17  21
HETATM   21  C           1     -21.401  -7.445  -3.339  0.00  0.00     0.010 C 
HETATM   22  C           1     -20.446  -8.230  -2.449  0.00  0.00     0.012 C 
HETATM   23  C           1     -21.823  -6.166  -2.626  0.00  0.00     0.012 C 
ENDBRANCH  17  21
ENDBRANCH  15  17
ENDBRANCH   1  13
TORSDOF 8
ENDMDL
MODEL 8
REMARK VINA RESULT:      -5.8      2.037      6.806
REMARK  8 active torsions:
REMARK  status: ('A' for Active; 'I' for Inactive)
REMARK    1  A    between atoms: C_2  and  C_3 
REMARK    2  A    between atoms: C_3  and  C_6 
REMARK    3  A    between atoms: C_3  and  N_17 
REMARK    4  A    between atoms: C_12  and  C_23 
REMARK       I    between atoms: C_12  and  N_20 
REMARK    5  A    between atoms: N_14  and  C_19 
REMARK       I    between atoms: N_17  and  C_22 
REMARK    6  A    between atoms: C_18  and  C_19 
REMARK    7  A    between atoms: C_18  and  C_23 
REMARK    8  A    between atoms: C_19  and  C_22 
ROOT
HETATM    1  C           1     -20.747  -5.049  -6.545  0.00  0.00     0.275 C 
ENDROOT
BRANCH   1   2
HETATM    2  N           1     -20.087  -5.932  -7.563  0.00  0.00    -0.066 N 
HETATM    3  H           1     -20.454  -5.703  -8.513  0.00  0.00     0.275 HD
HETATM    4  H           1     -20.292  -6.933  -7.341  0.00  0.00     0.275 HD
HETATM    5  H           1     -19.054  -5.777  -7.541  0.00  0.00     0.275 HD
ENDBRANCH   1   2
BRANCH   1   6
HETATM    6  C           1     -21.707  -4.097  -7.246  0.00  0.00     0.052 C 
BRANCH   6   7
HETATM    7  C           1     -21.857  -4.509  -8.704  0.00  0.00     0.105 C 
BRANCH   7   8
HETATM    8  C           1     -23.058  -3.819  -9.303  0.00  0.00     0.215 C 
HETATM    9  N           1     -24.216  -3.712  -8.582  0.00  0.00    -0.370 N 
HETATM   10  H           1     -25.022  -3.250  -8.983  0.00  0.00     0.159 HD
HETATM   11  H           1     -24.268  -4.098  -7.647  0.00  0.00     0.159 HD
HETATM   12  O           1     -22.996  -3.360 -10.418  0.00  0.00    -0.274 OA
ENDBRANCH   7   8
ENDBRANCH   6   7
ENDBRANCH   1   6
BRANCH   1  13
HETATM   13  C           1     -21.511  -5.902  -5.562  0.00  0.00     0.249 C 
HETATM   14  O           1     -22.719  -5.871  -5.546  0.00  0.00    -0.271 OA
HETATM   15  N           1     -20.836  -6.709  -4.687  0.00  0.00    -0.344 N 
HETATM   16  H           1     -19.825  -6.735  -4.699  0.00  0.00     0.163 HD
BRANCH  15  17
HETATM   17  C           1     -21.571  -7.528  -3.742  0.00  0.00     0.189 C 
BRANCH  17  18
HETATM   18  C           1     -21.560  -6.864  -2.387  0.00  0.00     0.197 C 
HETATM   19  O           1     -22.200  -5.807  -2.203  0.00  0.00    -0.646 OA
HETATM   20  O           1     -20.909  -7.372  -1.447  0.00  0.00    -0.646 OA
ENDBRANCH  17  18
BRANCH  17  21
HETATM   21  C           1     -20.915  -8.899  -3.642  0.00  0.00     0.010 C 
HETATM   22  C           1     -21.942  -9.977  -3.958  0.00  0.00     0.012 C 
HETATM   23  C           1     -19.765  -8.985  -4.637  0.00  0.00     0.012 C 
ENDBRANCH  17  21
ENDBRANCH  15  17
ENDBRANCH   1  13
TORSDOF 8
ENDMDL
MODEL 9
REMARK VINA RESULT:      -5.7     15.215     16.043
REMARK  8 active torsions:
REMARK  status: ('A' for Active; 'I' for Inactive)
REMARK    1  A    between atoms: C_2  and  C_3 
REMARK    2  A    between atoms: C_3  and  C_6 
REMARK    3  A    between atoms: C_3  and  N_17 
REMARK    4  A    between atoms: C_12  and  C_23 
REMARK       I    between atoms: C_12  and  N_20 
REMARK    5  A    between atoms: N_14  and  C_19 
REMARK       I    between atoms: N_17  and  C_22 
REMARK    6  A    between atoms: C_18  and  C_19 
REMARK    7  A    between atoms: C_18  and  C_23 
REMARK    8  A    between atoms: C_19  and  C_22 
ROOT
HETATM    1  C           1     -36.682  -0.965 -11.234  0.00  0.00     0.275 C 
ENDROOT
BRANCH   1   2
HETATM    2  N           1     -35.216  -1.011 -10.920  0.00  0.00    -0.066 N 
HETATM    3  H           1     -35.022  -0.423 -10.079  0.00  0.00     0.275 HD
HETATM    4  H           1     -34.674  -0.646 -11.735  0.00  0.00     0.275 HD
HETATM    5  H           1     -34.931  -1.998 -10.728  0.00  0.00     0.275 HD
ENDBRANCH   1   2
BRANCH   1   6
HETATM    6  C           1     -37.391  -0.079 -10.218  0.00  0.00     0.052 C 
BRANCH   6   7
HETATM    7  C           1     -36.749  -0.261  -8.850  0.00  0.00     0.105 C 
BRANCH   7   8
HETATM    8  C           1     -37.029   0.952  -7.996  0.00  0.00     0.215 C 
HETATM    9  N           1     -37.570   2.075  -8.559  0.00  0.00    -0.370 N 
HETATM   10  H           1     -37.758   2.888  -7.986  0.00  0.00     0.159 HD
HETATM   11  H           1     -37.782   2.094  -9.549  0.00  0.00     0.159 HD
HETATM   12  O           1     -36.776   0.930  -6.815  0.00  0.00    -0.274 OA
ENDBRANCH   7   8
ENDBRANCH   6   7
ENDBRANCH   1   6
BRANCH   1  13
HETATM   13  C           1     -36.881  -0.401 -12.620  0.00  0.00     0.249 C 
HETATM   14  O           1     -37.887   0.215 -12.883  0.00  0.00    -0.271 OA
HETATM   15  N           1     -35.922  -0.588 -13.579  0.00  0.00    -0.344 N 
HETATM   16  H           1     -35.080  -1.104 -13.359  0.00  0.00     0.163 HD
BRANCH  15  17
HETATM   17  C           1     -36.114  -0.047 -14.910  0.00  0.00     0.189 C 
BRANCH  17  18
HETATM   18  C           1     -35.833  -1.119 -15.934  0.00  0.00     0.197 C 
HETATM   19  O           1     -35.152  -2.119 -15.621  0.00  0.00    -0.646 OA
HETATM   20  O           1     -36.284  -1.008 -17.095  0.00  0.00    -0.646 OA
ENDBRANCH  17  18
BRANCH  17  21
HETATM   21  C           1     -35.160   1.121 -15.124  0.00  0.00     0.010 C 
HETATM   22  C           1     -35.911   2.276 -15.774  0.00  0.00     0.012 C 
HETATM   23  C           1     -34.600   1.571 -13.781  0.00  0.00     0.012 C 
ENDBRANCH  17  21
ENDBRANCH  15  17
ENDBRANCH   1  13
TORSDOF 8
ENDMDL
