MODEL 1
REMARK VINA RESULT:      -6.9      0.000      0.000
REMARK  8 active torsions:
REMARK  status: ('A' for Active; 'I' for Inactive)
REMARK    1  A    between atoms: C_2  and  C_12 
REMARK    2  A    between atoms: C_2  and  C_3 
REMARK    3  A    between atoms: N_7  and  C_12 
REMARK    4  A    between atoms: C_10  and  C_24 
REMARK    5  A    between atoms: C_12  and  C_20 
REMARK    6  A    between atoms: C_15  and  C_24 
REMARK    7  A    between atoms: C_15  and  C_16 
REMARK    8  A    between atoms: C_15  and  N_19 
REMARK       I    between atoms: N_19  and  C_20 
ROOT
HETATM    1  C           1     -34.233  -4.121 -12.380  0.00  0.00     0.280 C 
ENDROOT
BRANCH   1   2
HETATM    2  C           1     -33.195  -4.822 -11.513  0.00  0.00     0.101 C 
BRANCH   2   3
HETATM    3  C           1     -33.831  -5.981 -10.811  0.00  0.00     0.028 A 
HETATM    4  C           1     -35.000  -5.913 -10.091  0.00  0.00     0.114 A 
HETATM    5  N           1     -35.208  -7.184  -9.632  0.00  0.00    -0.360 N 
HETATM    6  H           1     -36.014  -7.506  -9.039  0.00  0.00     0.166 HD
HETATM    7  C           1     -34.178  -7.958 -10.083  0.00  0.00     0.180 A 
HETATM    8  N           1     -33.329  -7.257 -10.800  0.00  0.00    -0.355 N 
ATOM      9  HN          1     -32.478  -7.591 -11.252  1.00  0.00     0.166 HD
ENDBRANCH   2   3
ENDBRANCH   1   2
BRANCH   1  10
HETATM   10  N           1     -33.792  -4.156 -13.813  0.00  0.00    -0.066 N 
HETATM   11  H           1     -32.797  -4.472 -13.864  0.00  0.00     0.275 HD
HETATM   12  H           1     -34.396  -4.820 -14.348  0.00  0.00     0.275 HD
HETATM   13  H           1     -33.875  -3.199 -14.225  0.00  0.00     0.275 HD
ENDBRANCH   1  10
BRANCH   1  14
HETATM   14  C           1     -34.377  -2.687 -11.933  0.00  0.00     0.249 C 
HETATM   15  O           1     -33.647  -2.245 -11.078  0.00  0.00    -0.271 OA
HETATM   16  N           1     -35.336  -1.888 -12.496  0.00  0.00    -0.344 N 
HETATM   17  H           1     -35.948  -2.259 -13.211  0.00  0.00     0.163 HD
BRANCH  16  18
HETATM   18  C           1     -35.475  -0.510 -12.066  0.00  0.00     0.189 C 
BRANCH  18  19
HETATM   19  C           1     -35.818   0.364 -13.265  0.00  0.00     0.014 C 
HETATM   20  C           1     -34.554   1.050 -13.769  0.00  0.00     0.012 C 
BRANCH  19  21
HETATM   21  C           1     -36.401  -0.502 -14.374  0.00  0.00     0.002 C 
HETATM   22  C           1     -35.701  -0.182 -15.689  0.00  0.00     0.005 C 
ENDBRANCH  19  21
ENDBRANCH  18  19
BRANCH  18  23
HETATM   23  C           1     -36.578  -0.413 -11.041  0.00  0.00     0.197 C 
HETATM   24  O           1     -37.589  -1.143 -11.141  0.00  0.00    -0.646 OA
HETATM   25  O           1     -36.483   0.396 -10.092  0.00  0.00    -0.646 OA
ENDBRANCH  18  23
ENDBRANCH  16  18
ENDBRANCH   1  14
TORSDOF 8
ENDMDL
MODEL 2
REMARK VINA RESULT:      -6.6     12.298     14.044
REMARK  8 active torsions:
REMARK  status: ('A' for Active; 'I' for Inactive)
REMARK    1  A    between atoms: C_2  and  C_12 
REMARK    2  A    between atoms: C_2  and  C_3 
REMARK    3  A    between atoms: N_7  and  C_12 
REMARK    4  A    between atoms: C_10  and  C_24 
REMARK    5  A    between atoms: C_12  and  C_20 
REMARK    6  A    between atoms: C_15  and  C_24 
REMARK    7  A    between atoms: C_15  and  C_16 
REMARK    8  A    between atoms: C_15  and  N_19 
REMARK       I    between atoms: N_19  and  C_20 
ROOT
HETATM    1  C           1     -21.145  -5.652  -6.944  0.00  0.00     0.280 C 
ENDROOT
BRANCH   1   2
HETATM    2  C           1     -20.770  -5.109  -5.572  0.00  0.00     0.101 C 
BRANCH   2   3
HETATM    3  C           1     -21.127  -6.116  -4.523  0.00  0.00     0.028 A 
HETATM    4  C           1     -21.144  -7.476  -4.718  0.00  0.00     0.114 A 
HETATM    5  N           1     -21.519  -8.003  -3.513  0.00  0.00    -0.360 N 
HETATM    6  H           1     -21.638  -9.023  -3.291  0.00  0.00     0.166 HD
HETATM    7  C           1     -21.711  -6.961  -2.652  0.00  0.00     0.180 A 
HETATM    8  N           1     -21.481  -5.807  -3.234  0.00  0.00    -0.355 N 
ATOM      9  HN          1     -21.551  -4.879  -2.817  1.00  0.00     0.166 HD
ENDBRANCH   2   3
ENDBRANCH   1   2
BRANCH   1  10
HETATM   10  N           1     -19.917  -6.187  -7.622  0.00  0.00    -0.066 N 
HETATM   11  H           1     -19.784  -7.190  -7.359  0.00  0.00     0.275 HD
HETATM   12  H           1     -20.030  -6.110  -8.657  0.00  0.00     0.275 HD
HETATM   13  H           1     -19.085  -5.633  -7.320  0.00  0.00     0.275 HD
ENDBRANCH   1  10
BRANCH   1  14
HETATM   14  C           1     -21.737  -4.544  -7.780  0.00  0.00     0.249 C 
HETATM   15  O           1     -21.666  -3.399  -7.403  0.00  0.00    -0.271 OA
HETATM   16  N           1     -22.355  -4.837  -8.967  0.00  0.00    -0.344 N 
HETATM   17  H           1     -22.415  -5.797  -9.282  0.00  0.00     0.163 HD
BRANCH  16  18
HETATM   18  C           1     -22.925  -3.772  -9.769  0.00  0.00     0.189 C 
BRANCH  18  19
HETATM   19  C           1     -22.533  -3.970 -11.227  0.00  0.00     0.014 C 
HETATM   20  C           1     -22.925  -2.736 -12.030  0.00  0.00     0.012 C 
BRANCH  19  21
HETATM   21  C           1     -21.027  -4.180 -11.324  0.00  0.00     0.002 C 
HETATM   22  C           1     -20.324  -2.829 -11.309  0.00  0.00     0.005 C 
ENDBRANCH  19  21
ENDBRANCH  18  19
BRANCH  18  23
HETATM   23  C           1     -24.428  -3.799  -9.644  0.00  0.00     0.197 C 
HETATM   24  O           1     -25.055  -2.743  -9.406  0.00  0.00    -0.646 OA
HETATM   25  O           1     -25.048  -4.877  -9.780  0.00  0.00    -0.646 OA
ENDBRANCH  18  23
ENDBRANCH  16  18
ENDBRANCH   1  14
TORSDOF 8
ENDMDL
MODEL 3
REMARK VINA RESULT:      -6.5     13.250     16.019
REMARK  8 active torsions:
REMARK  status: ('A' for Active; 'I' for Inactive)
REMARK    1  A    between atoms: C_2  and  C_12 
REMARK    2  A    between atoms: C_2  and  C_3 
REMARK    3  A    between atoms: N_7  and  C_12 
REMARK    4  A    between atoms: C_10  and  C_24 
REMARK    5  A    between atoms: C_12  and  C_20 
REMARK    6  A    between atoms: C_15  and  C_24 
REMARK    7  A    between atoms: C_15  and  C_16 
REMARK    8  A    between atoms: C_15  and  N_19 
REMARK       I    between atoms: N_19  and  C_20 
ROOT
HETATM    1  C           1     -21.945  -4.454  -7.080  0.00  0.00     0.280 C 
ENDROOT
BRANCH   1   2
HETATM    2  C           1     -21.943  -4.919  -8.530  0.00  0.00     0.101 C 
BRANCH   2   3
HETATM    3  C           1     -23.038  -4.226  -9.278  0.00  0.00     0.028 A 
HETATM    4  C           1     -23.005  -3.936 -10.622  0.00  0.00     0.114 A 
HETATM    5  N           1     -24.194  -3.311 -10.879  0.00  0.00    -0.360 N 
HETATM    6  H           1     -24.515  -2.946 -11.811  0.00  0.00     0.166 HD
HETATM    7  C           1     -24.887  -3.247  -9.704  0.00  0.00     0.180 A 
HETATM    8  N           1     -24.213  -3.793  -8.718  0.00  0.00    -0.355 N 
ATOM      9  HN          1     -24.502  -3.877  -7.744  1.00  0.00     0.166 HD
ENDBRANCH   2   3
ENDBRANCH   1   2
BRANCH   1  10
HETATM   10  N           1     -21.472  -3.031  -7.011  0.00  0.00    -0.066 N 
HETATM   11  H           1     -22.298  -2.390  -7.000  0.00  0.00     0.275 HD
HETATM   12  H           1     -20.912  -2.892  -6.141  0.00  0.00     0.275 HD
HETATM   13  H           1     -20.878  -2.822  -7.845  0.00  0.00     0.275 HD
ENDBRANCH   1  10
BRANCH   1  14
HETATM   14  C           1     -21.021  -5.329  -6.269  0.00  0.00     0.249 C 
HETATM   15  O           1     -19.825  -5.223  -6.392  0.00  0.00    -0.271 OA
HETATM   16  N           1     -21.541  -6.245  -5.393  0.00  0.00    -0.344 N 
HETATM   17  H           1     -22.544  -6.335  -5.290  0.00  0.00     0.163 HD
BRANCH  16  18
HETATM   18  C           1     -20.653  -7.087  -4.614  0.00  0.00     0.189 C 
BRANCH  18  19
HETATM   19  C           1     -21.343  -7.487  -3.316  0.00  0.00     0.014 C 
HETATM   20  C           1     -20.356  -8.235  -2.428  0.00  0.00     0.012 C 
BRANCH  19  21
HETATM   21  C           1     -21.828  -6.237  -2.593  0.00  0.00     0.002 C 
HETATM   22  C           1     -22.311  -6.614  -1.198  0.00  0.00     0.005 C 
ENDBRANCH  19  21
ENDBRANCH  18  19
BRANCH  18  23
HETATM   23  C           1     -20.314  -8.326  -5.406  0.00  0.00     0.197 C 
HETATM   24  O           1     -19.124  -8.576  -5.695  0.00  0.00    -0.646 OA
HETATM   25  O           1     -21.223  -9.103  -5.772  0.00  0.00    -0.646 OA
ENDBRANCH  18  23
ENDBRANCH  16  18
ENDBRANCH   1  14
TORSDOF 8
ENDMDL
MODEL 4
REMARK VINA RESULT:      -6.4      4.051      5.857
REMARK  8 active torsions:
REMARK  status: ('A' for Active; 'I' for Inactive)
REMARK    1  A    between atoms: C_2  and  C_12 
REMARK    2  A    between atoms: C_2  and  C_3 
REMARK    3  A    between atoms: N_7  and  C_12 
REMARK    4  A    between atoms: C_10  and  C_24 
REMARK    5  A    between atoms: C_12  and  C_20 
REMARK    6  A    between atoms: C_15  and  C_24 
REMARK    7  A    between atoms: C_15  and  C_16 
REMARK    8  A    between atoms: C_15  and  N_19 
REMARK       I    between atoms: N_19  and  C_20 
ROOT
HETATM    1  C           1     -33.009  -4.509 -16.643  0.00  0.00     0.280 C 
ENDROOT
BRANCH   1   2
HETATM    2  C           1     -31.556  -4.625 -16.203  0.00  0.00     0.101 C 
BRANCH   2   3
HETATM    3  C           1     -30.947  -5.850 -16.810  0.00  0.00     0.028 A 
HETATM    4  C           1     -31.603  -6.712 -17.656  0.00  0.00     0.114 A 
HETATM    5  N           1     -30.683  -7.675 -17.965  0.00  0.00    -0.360 N 
HETATM    6  H           1     -30.837  -8.503 -18.593  0.00  0.00     0.166 HD
HETATM    7  C           1     -29.527  -7.365 -17.306  0.00  0.00     0.180 A 
HETATM    8  N           1     -29.657  -6.266 -16.600  0.00  0.00    -0.355 N 
ATOM      9  HN          1     -28.949  -5.818 -16.019  1.00  0.00     0.166 HD
ENDBRANCH   2   3
ENDBRANCH   1   2
BRANCH   1  10
HETATM   10  N           1     -33.202  -3.225 -17.395  0.00  0.00    -0.066 N 
HETATM   11  H           1     -32.834  -2.430 -16.826  0.00  0.00     0.275 HD
HETATM   12  H           1     -32.686  -3.272 -18.302  0.00  0.00     0.275 HD
HETATM   13  H           1     -34.220  -3.081 -17.581  0.00  0.00     0.275 HD
ENDBRANCH   1  10
BRANCH   1  14
HETATM   14  C           1     -33.905  -4.519 -15.429  0.00  0.00     0.249 C 
HETATM   15  O           1     -35.015  -4.991 -15.501  0.00  0.00    -0.271 OA
HETATM   16  N           1     -33.461  -3.993 -14.245  0.00  0.00    -0.344 N 
HETATM   17  H           1     -32.531  -3.597 -14.186  0.00  0.00     0.163 HD
BRANCH  16  18
HETATM   18  C           1     -34.323  -4.003 -13.079  0.00  0.00     0.189 C 
BRANCH  18  19
HETATM   19  C           1     -33.502  -4.350 -11.845  0.00  0.00     0.014 C 
HETATM   20  C           1     -32.868  -3.083 -11.284  0.00  0.00     0.012 C 
BRANCH  19  21
HETATM   21  C           1     -34.408  -4.971 -10.790  0.00  0.00     0.002 C 
HETATM   22  C           1     -34.130  -6.467 -10.698  0.00  0.00     0.005 C 
ENDBRANCH  19  21
ENDBRANCH  18  19
BRANCH  18  23
HETATM   23  C           1     -34.943  -2.639 -12.903  0.00  0.00     0.197 C 
HETATM   24  O           1     -35.799  -2.452 -12.010  0.00  0.00    -0.646 OA
HETATM   25  O           1     -34.602  -1.695 -13.649  0.00  0.00    -0.646 OA
ENDBRANCH  18  23
ENDBRANCH  16  18
ENDBRANCH   1  14
TORSDOF 8
ENDMDL
MODEL 5
REMARK VINA RESULT:      -6.1     13.535     16.336
REMARK  8 active torsions:
REMARK  status: ('A' for Active; 'I' for Inactive)
REMARK    1  A    between atoms: C_2  and  C_12 
REMARK    2  A    between atoms: C_2  and  C_3 
REMARK    3  A    between atoms: N_7  and  C_12 
REMARK    4  A    between atoms: C_10  and  C_24 
REMARK    5  A    between atoms: C_12  and  C_20 
REMARK    6  A    between atoms: C_15  and  C_24 
REMARK    7  A    between atoms: C_15  and  C_16 
REMARK    8  A    between atoms: C_15  and  N_19 
REMARK       I    between atoms: N_19  and  C_20 
ROOT
HETATM    1  C           1     -21.179  -4.834  -6.496  0.00  0.00     0.280 C 
ENDROOT
BRANCH   1   2
HETATM    2  C           1     -21.273  -5.390  -7.911  0.00  0.00     0.101 C 
BRANCH   2   3
HETATM    3  C           1     -22.318  -4.637  -8.674  0.00  0.00     0.028 A 
HETATM    4  C           1     -22.255  -4.358 -10.018  0.00  0.00     0.114 A 
HETATM    5  N           1     -23.402  -3.665 -10.291  0.00  0.00    -0.360 N 
HETATM    6  H           1     -23.691  -3.287 -11.227  0.00  0.00     0.166 HD
HETATM    7  C           1     -24.101  -3.553  -9.123  0.00  0.00     0.180 A 
HETATM    8  N           1     -23.471  -4.132  -8.128  0.00  0.00    -0.355 N 
ATOM      9  HN          1     -23.773  -4.193  -7.156  1.00  0.00     0.166 HD
ENDBRANCH   2   3
ENDBRANCH   1   2
BRANCH   1  10
HETATM   10  N           1     -19.738  -4.622  -6.138  0.00  0.00    -0.066 N 
HETATM   11  H           1     -19.189  -5.477  -6.381  0.00  0.00     0.275 HD
HETATM   12  H           1     -19.363  -3.805  -6.670  0.00  0.00     0.275 HD
HETATM   13  H           1     -19.658  -4.436  -5.113  0.00  0.00     0.275 HD
ENDBRANCH   1  10
BRANCH   1  14
HETATM   14  C           1     -21.798  -5.813  -5.528  0.00  0.00     0.249 C 
HETATM   15  O           1     -22.998  -5.931  -5.473  0.00  0.00    -0.271 OA
HETATM   16  N           1     -20.997  -6.568  -4.712  0.00  0.00    -0.344 N 
HETATM   17  H           1     -19.991  -6.468  -4.758  0.00  0.00     0.163 HD
BRANCH  16  18
HETATM   18  C           1     -21.592  -7.508  -3.782  0.00  0.00     0.189 C 
BRANCH  18  19
HETATM   19  C           1     -20.776  -8.794  -3.769  0.00  0.00     0.014 C 
HETATM   20  C           1     -21.651  -9.954  -4.228  0.00  0.00     0.012 C 
BRANCH  19  21
HETATM   21  C           1     -19.589  -8.651  -4.712  0.00  0.00     0.002 C 
HETATM   22  C           1     -18.386  -9.381  -4.127  0.00  0.00     0.005 C 
ENDBRANCH  19  21
ENDBRANCH  18  19
BRANCH  18  23
HETATM   23  C           1     -21.604  -6.905  -2.399  0.00  0.00     0.197 C 
HETATM   24  O           1     -20.893  -7.399  -1.496  0.00  0.00    -0.646 OA
HETATM   25  O           1     -22.323  -5.912  -2.155  0.00  0.00    -0.646 OA
ENDBRANCH  18  23
ENDBRANCH  16  18
ENDBRANCH   1  14
TORSDOF 8
ENDMDL
MODEL 6
REMARK VINA RESULT:      -5.5     24.021     26.169
REMARK  8 active torsions:
REMARK  status: ('A' for Active; 'I' for Inactive)
REMARK    1  A    between atoms: C_2  and  C_12 
REMARK    2  A    between atoms: C_2  and  C_3 
REMARK    3  A    between atoms: N_7  and  C_12 
REMARK    4  A    between atoms: C_10  and  C_24 
REMARK    5  A    between atoms: C_12  and  C_20 
REMARK    6  A    between atoms: C_15  and  C_24 
REMARK    7  A    between atoms: C_15  and  C_16 
REMARK    8  A    between atoms: C_15  and  N_19 
REMARK       I    between atoms: N_19  and  C_20 
ROOT
HETATM    1  C           1     -11.478   8.309 -19.741  0.00  0.00     0.280 C 
ENDROOT
BRANCH   1   2
HETATM    2  C           1     -11.837   9.706 -20.231  0.00  0.00     0.101 C 
BRANCH   2   3
HETATM    3  C           1     -12.997  10.228 -19.442  0.00  0.00     0.028 A 
HETATM    4  C           1     -13.806  11.267 -19.837  0.00  0.00     0.114 A 
HETATM    5  N           1     -14.722  11.405 -18.831  0.00  0.00    -0.360 N 
HETATM    6  H           1     -15.502  12.108 -18.793  0.00  0.00     0.166 HD
HETATM    7  C           1     -14.437  10.463 -17.884  0.00  0.00     0.180 A 
HETATM    8  N           1     -13.399   9.736 -18.226  0.00  0.00    -0.355 N 
ATOM      9  HN          1     -12.980   8.969 -17.700  1.00  0.00     0.166 HD
ENDBRANCH   2   3
ENDBRANCH   1   2
BRANCH   1  10
HETATM   10  N           1      -9.995   8.109 -19.846  0.00  0.00    -0.066 N 
HETATM   11  H           1      -9.687   8.292 -20.827  0.00  0.00     0.275 HD
HETATM   12  H           1      -9.508   8.771 -19.200  0.00  0.00     0.275 HD
HETATM   13  H           1      -9.757   7.127 -19.582  0.00  0.00     0.275 HD
ENDBRANCH   1  10
BRANCH   1  14
HETATM   14  C           1     -12.184   7.281 -20.590  0.00  0.00     0.249 C 
HETATM   15  O           1     -12.361   7.487 -21.767  0.00  0.00    -0.271 OA
HETATM   16  N           1     -12.626   6.113 -20.026  0.00  0.00    -0.344 N 
HETATM   17  H           1     -12.478   5.941 -19.040  0.00  0.00     0.163 HD
BRANCH  16  18
HETATM   18  C           1     -13.305   5.125 -20.842  0.00  0.00     0.189 C 
BRANCH  18  19
HETATM   19  C           1     -12.862   3.730 -20.423  0.00  0.00     0.014 C 
HETATM   20  C           1     -13.329   2.717 -21.462  0.00  0.00     0.012 C 
BRANCH  19  21
HETATM   21  C           1     -11.343   3.688 -20.323  0.00  0.00     0.002 C 
HETATM   22  C           1     -10.846   2.300 -20.710  0.00  0.00     0.005 C 
ENDBRANCH  19  21
ENDBRANCH  18  19
BRANCH  18  23
HETATM   23  C           1     -14.795   5.258 -20.653  0.00  0.00     0.197 C 
HETATM   24  O           1     -15.543   5.382 -21.648  0.00  0.00    -0.646 OA
HETATM   25  O           1     -15.284   5.245 -19.502  0.00  0.00    -0.646 OA
ENDBRANCH  18  23
ENDBRANCH  16  18
ENDBRANCH   1  14
TORSDOF 8
ENDMDL
MODEL 7
REMARK VINA RESULT:      -5.5     16.288     18.527
REMARK  8 active torsions:
REMARK  status: ('A' for Active; 'I' for Inactive)
REMARK    1  A    between atoms: C_2  and  C_12 
REMARK    2  A    between atoms: C_2  and  C_3 
REMARK    3  A    between atoms: N_7  and  C_12 
REMARK    4  A    between atoms: C_10  and  C_24 
REMARK    5  A    between atoms: C_12  and  C_20 
REMARK    6  A    between atoms: C_15  and  C_24 
REMARK    7  A    between atoms: C_15  and  C_16 
REMARK    8  A    between atoms: C_15  and  N_19 
REMARK       I    between atoms: N_19  and  C_20 
ROOT
HETATM    1  C           1     -20.983  -8.427  -4.115  0.00  0.00     0.280 C 
ENDROOT
BRANCH   1   2
HETATM    2  C           1     -21.873  -7.280  -4.575  0.00  0.00     0.101 C 
BRANCH   2   3
HETATM    3  C           1     -21.112  -6.408  -5.525  0.00  0.00     0.028 A 
HETATM    4  C           1     -20.568  -5.188  -5.202  0.00  0.00     0.114 A 
HETATM    5  N           1     -19.973  -4.749  -6.352  0.00  0.00    -0.360 N 
HETATM    6  H           1     -19.455  -3.843  -6.477  0.00  0.00     0.166 HD
HETATM    7  C           1     -20.176  -5.701  -7.309  0.00  0.00     0.180 A 
HETATM    8  N           1     -20.862  -6.717  -6.838  0.00  0.00    -0.355 N 
ATOM      9  HN          1     -21.148  -7.557  -7.341  1.00  0.00     0.166 HD
ENDBRANCH   2   3
ENDBRANCH   1   2
BRANCH   1  10
HETATM   10  N           1     -21.578  -9.730  -4.559  0.00  0.00    -0.066 N 
HETATM   11  H           1     -21.534 -10.418  -3.774  0.00  0.00     0.275 HD
HETATM   12  H           1     -22.575  -9.581  -4.836  0.00  0.00     0.275 HD
HETATM   13  H           1     -21.041 -10.097  -5.377  0.00  0.00     0.275 HD
ENDBRANCH   1  10
BRANCH   1  14
HETATM   14  C           1     -20.877  -8.409  -2.610  0.00  0.00     0.249 C 
HETATM   15  O           1     -20.472  -7.423  -2.044  0.00  0.00    -0.271 OA
HETATM   16  N           1     -21.240  -9.514  -1.885  0.00  0.00    -0.344 N 
HETATM   17  H           1     -21.579 -10.341  -2.360  0.00  0.00     0.163 HD
BRANCH  16  18
HETATM   18  C           1     -21.138  -9.497  -0.439  0.00  0.00     0.189 C 
BRANCH  18  19
HETATM   19  C           1     -22.532  -9.574   0.169  0.00  0.00     0.014 C 
HETATM   20  C           1     -23.091  -8.166   0.335  0.00  0.00     0.012 C 
BRANCH  19  21
HETATM   21  C           1     -23.444 -10.375  -0.752  0.00  0.00     0.002 C 
HETATM   22  C           1     -23.877 -11.656  -0.049  0.00  0.00     0.005 C 
ENDBRANCH  19  21
ENDBRANCH  18  19
BRANCH  18  23
HETATM   23  C           1     -20.324 -10.682   0.019  0.00  0.00     0.197 C 
HETATM   24  O           1     -20.546 -11.198   1.137  0.00  0.00    -0.646 OA
HETATM   25  O           1     -19.427 -11.148  -0.717  0.00  0.00    -0.646 OA
ENDBRANCH  18  23
ENDBRANCH  16  18
ENDBRANCH   1  14
TORSDOF 8
ENDMDL
MODEL 8
REMARK VINA RESULT:      -5.5     14.688     17.722
REMARK  8 active torsions:
REMARK  status: ('A' for Active; 'I' for Inactive)
REMARK    1  A    between atoms: C_2  and  C_12 
REMARK    2  A    between atoms: C_2  and  C_3 
REMARK    3  A    between atoms: N_7  and  C_12 
REMARK    4  A    between atoms: C_10  and  C_24 
REMARK    5  A    between atoms: C_12  and  C_20 
REMARK    6  A    between atoms: C_15  and  C_24 
REMARK    7  A    between atoms: C_15  and  C_16 
REMARK    8  A    between atoms: C_15  and  N_19 
REMARK       I    between atoms: N_19  and  C_20 
ROOT
HETATM    1  C           1     -21.490  -6.224  -5.504  0.00  0.00     0.280 C 
ENDROOT
BRANCH   1   2
HETATM    2  C           1     -20.820  -4.937  -5.966  0.00  0.00     0.101 C 
BRANCH   2   3
HETATM    3  C           1     -21.394  -4.521  -7.284  0.00  0.00     0.028 A 
HETATM    4  C           1     -20.709  -4.542  -8.476  0.00  0.00     0.114 A 
HETATM    5  N           1     -21.602  -4.088  -9.406  0.00  0.00    -0.360 N 
HETATM    6  H           1     -21.422  -3.970 -10.435  0.00  0.00     0.166 HD
HETATM    7  C           1     -22.770  -3.814  -8.755  0.00  0.00     0.180 A 
HETATM    8  N           1     -22.674  -4.067  -7.470  0.00  0.00    -0.355 N 
ATOM      9  HN          1     -23.398  -3.950  -6.761  1.00  0.00     0.166 HD
ENDBRANCH   2   3
ENDBRANCH   1   2
BRANCH   1  10
HETATM   10  N           1     -22.036  -6.034  -4.120  0.00  0.00    -0.066 N 
HETATM   11  H           1     -23.020  -5.686  -4.178  0.00  0.00     0.275 HD
HETATM   12  H           1     -22.019  -6.946  -3.611  0.00  0.00     0.275 HD
HETATM   13  H           1     -21.449  -5.339  -3.607  0.00  0.00     0.275 HD
ENDBRANCH   1  10
BRANCH   1  14
HETATM   14  C           1     -20.478  -7.344  -5.496  0.00  0.00     0.249 C 
HETATM   15  O           1     -19.612  -7.381  -6.336  0.00  0.00    -0.271 OA
HETATM   16  N           1     -20.544  -8.319  -4.536  0.00  0.00    -0.344 N 
HETATM   17  H           1     -21.271  -8.287  -3.832  0.00  0.00     0.163 HD
BRANCH  16  18
HETATM   18  C           1     -19.572  -9.395  -4.528  0.00  0.00     0.189 C 
BRANCH  18  19
HETATM   19  C           1     -19.111  -9.652  -3.100  0.00  0.00     0.014 C 
HETATM   20  C           1     -17.609  -9.417  -3.001  0.00  0.00     0.012 C 
BRANCH  19  21
HETATM   21  C           1     -19.836  -8.703  -2.154  0.00  0.00     0.002 C 
HETATM   22  C           1     -20.660  -9.510  -1.158  0.00  0.00     0.005 C 
ENDBRANCH  19  21
ENDBRANCH  18  19
BRANCH  18  23
HETATM   23  C           1     -20.204 -10.645  -5.086  0.00  0.00     0.197 C 
HETATM   24  O           1     -20.657 -11.516  -4.311  0.00  0.00    -0.646 OA
HETATM   25  O           1     -20.278 -10.812  -6.324  0.00  0.00    -0.646 OA
ENDBRANCH  18  23
ENDBRANCH  16  18
ENDBRANCH   1  14
TORSDOF 8
ENDMDL
MODEL 9
REMARK VINA RESULT:      -5.4     14.319     17.220
REMARK  8 active torsions:
REMARK  status: ('A' for Active; 'I' for Inactive)
REMARK    1  A    between atoms: C_2  and  C_12 
REMARK    2  A    between atoms: C_2  and  C_3 
REMARK    3  A    between atoms: N_7  and  C_12 
REMARK    4  A    between atoms: C_10  and  C_24 
REMARK    5  A    between atoms: C_12  and  C_20 
REMARK    6  A    between atoms: C_15  and  C_24 
REMARK    7  A    between atoms: C_15  and  C_16 
REMARK    8  A    between atoms: C_15  and  N_19 
REMARK       I    between atoms: N_19  and  C_20 
ROOT
HETATM    1  C           1     -21.768  -6.312  -5.817  0.00  0.00     0.280 C 
ENDROOT
BRANCH   1   2
HETATM    2  C           1     -21.030  -5.027  -6.165  0.00  0.00     0.101 C 
BRANCH   2   3
HETATM    3  C           1     -21.466  -4.550  -7.515  0.00  0.00     0.028 A 
HETATM    4  C           1     -20.722  -4.671  -8.664  0.00  0.00     0.114 A 
HETATM    5  N           1     -21.492  -4.112  -9.646  0.00  0.00    -0.360 N 
HETATM    6  H           1     -21.238  -4.027 -10.662  0.00  0.00     0.166 HD
HETATM    7  C           1     -22.651  -3.683  -9.065  0.00  0.00     0.180 A 
HETATM    8  N           1     -22.664  -3.935  -7.776  0.00  0.00    -0.355 N 
ATOM      9  HN          1     -23.406  -3.719  -7.111  1.00  0.00     0.166 HD
ENDBRANCH   2   3
ENDBRANCH   1   2
BRANCH   1  10
HETATM   10  N           1     -23.118  -5.976  -5.255  0.00  0.00    -0.066 N 
HETATM   11  H           1     -23.053  -5.096  -4.696  0.00  0.00     0.275 HD
HETATM   12  H           1     -23.798  -5.843  -6.037  0.00  0.00     0.275 HD
HETATM   13  H           1     -23.443  -6.757  -4.641  0.00  0.00     0.275 HD
ENDBRANCH   1  10
BRANCH   1  14
HETATM   14  C           1     -20.976  -7.087  -4.792  0.00  0.00     0.249 C 
HETATM   15  O           1     -19.864  -7.476  -5.057  0.00  0.00    -0.271 OA
HETATM   16  N           1     -21.519  -7.349  -3.562  0.00  0.00    -0.344 N 
HETATM   17  H           1     -22.452  -7.023  -3.342  0.00  0.00     0.163 HD
BRANCH  16  18
HETATM   18  C           1     -20.758  -8.094  -2.578  0.00  0.00     0.189 C 
BRANCH  18  19
HETATM   19  C           1     -21.052  -7.545  -1.188  0.00  0.00     0.014 C 
HETATM   20  C           1     -22.325  -6.709  -1.232  0.00  0.00     0.012 C 
BRANCH  19  21
HETATM   21  C           1     -21.239  -8.702  -0.215  0.00  0.00     0.002 C 
HETATM   22  C           1     -21.857  -8.183   1.078  0.00  0.00     0.005 C 
ENDBRANCH  19  21
ENDBRANCH  18  19
BRANCH  18  23
HETATM   23  C           1     -21.150  -9.549  -2.638  0.00  0.00     0.197 C 
HETATM   24  O           1     -20.301 -10.436  -2.400  0.00  0.00    -0.646 OA
HETATM   25  O           1     -22.325  -9.870  -2.924  0.00  0.00    -0.646 OA
ENDBRANCH  18  23
ENDBRANCH  16  18
ENDBRANCH   1  14
TORSDOF 8
ENDMDL
