MODEL 1
REMARK VINA RESULT:      -6.4      0.000      0.000
REMARK  5 active torsions:
REMARK  status: ('A' for Active; 'I' for Inactive)
REMARK    1  A    between atoms: N_2  and  C_10 
REMARK       I    between atoms: C_3  and  N_4 
REMARK    2  A    between atoms: C_3  and  C_10 
REMARK    3  A    between atoms: N_4  and  C_14 
REMARK    4  A    between atoms: C_8  and  C_10 
REMARK    5  A    between atoms: C_14  and  C_15 
ROOT
HETATM    1  C           1     -35.389  -1.299 -12.803  0.00  0.00     0.249 C 
HETATM    2  N           1     -34.943  -0.790 -13.993  0.00  0.00    -0.345 N 
HETATM    3  H           1     -33.952  -0.786 -14.203  0.00  0.00     0.163 HD
HETATM    4  O           1     -36.570  -1.304 -12.554  0.00  0.00    -0.271 OA
ENDROOT
BRANCH   1   5
HETATM    5  C           1     -34.404  -1.854 -11.804  0.00  0.00     0.278 C 
BRANCH   5   6
HETATM    6  N           1     -34.869  -1.537 -10.414  0.00  0.00    -0.066 N 
HETATM    7  H           1     -34.961  -0.502 -10.304  0.00  0.00     0.275 HD
HETATM    8  H           1     -35.797  -1.988 -10.246  0.00  0.00     0.275 HD
HETATM    9  H           1     -34.175  -1.900  -9.722  0.00  0.00     0.275 HD
ENDBRANCH   5   6
BRANCH   5  10
HETATM   10  C           1     -34.304  -3.364 -11.973  0.00  0.00     0.017 C 
HETATM   11  C           1     -35.229  -4.049 -10.975  0.00  0.00     0.012 C 
HETATM   12  C           1     -32.869  -3.810 -11.721  0.00  0.00     0.012 C 
ENDBRANCH   5  10
ENDBRANCH   1   5
BRANCH   2  13
HETATM   13  C           1     -35.888  -0.257 -14.954  0.00  0.00     0.181 C 
HETATM   14  C           1     -35.540   1.194 -15.258  0.00  0.00     0.043 C 
BRANCH  13  15
HETATM   15  C           1     -35.823  -1.067 -16.225  0.00  0.00     0.196 C 
HETATM   16  O           1     -36.545  -0.760 -17.200  0.00  0.00    -0.646 OA
HETATM   17  O           1     -35.049  -2.045 -16.305  0.00  0.00    -0.646 OA
ENDBRANCH  13  15
ENDBRANCH   2  13
TORSDOF 5
ENDMDL
MODEL 2
REMARK VINA RESULT:      -6.0      1.520      2.003
REMARK  5 active torsions:
REMARK  status: ('A' for Active; 'I' for Inactive)
REMARK    1  A    between atoms: N_2  and  C_10 
REMARK       I    between atoms: C_3  and  N_4 
REMARK    2  A    between atoms: C_3  and  C_10 
REMARK    3  A    between atoms: N_4  and  C_14 
REMARK    4  A    between atoms: C_8  and  C_10 
REMARK    5  A    between atoms: C_14  and  C_15 
ROOT
HETATM    1  C           1     -35.155  -2.293 -12.843  0.00  0.00     0.249 C 
HETATM    2  N           1     -34.833  -1.445 -13.869  0.00  0.00    -0.345 N 
HETATM    3  H           1     -34.110  -1.700 -14.529  0.00  0.00     0.163 HD
HETATM    4  O           1     -36.018  -1.988 -12.056  0.00  0.00    -0.271 OA
ENDROOT
BRANCH   1   5
HETATM    5  C           1     -34.430  -3.609 -12.698  0.00  0.00     0.278 C 
BRANCH   5   6
HETATM    6  N           1     -33.689  -3.914 -13.966  0.00  0.00    -0.066 N 
HETATM    7  H           1     -32.685  -3.648 -13.855  0.00  0.00     0.275 HD
HETATM    8  H           1     -33.758  -4.936 -14.172  0.00  0.00     0.275 HD
HETATM    9  H           1     -34.108  -3.370 -14.754  0.00  0.00     0.275 HD
ENDBRANCH   5   6
BRANCH   5  10
HETATM   10  C           1     -33.442  -3.520 -11.542  0.00  0.00     0.017 C 
HETATM   11  C           1     -33.809  -4.551 -10.482  0.00  0.00     0.012 C 
HETATM   12  C           1     -33.497  -2.125 -10.933  0.00  0.00     0.012 C 
ENDBRANCH   5  10
ENDBRANCH   1   5
BRANCH   2  13
HETATM   13  C           1     -35.529  -0.181 -14.010  0.00  0.00     0.181 C 
HETATM   14  C           1     -34.550   0.965 -13.791  0.00  0.00     0.043 C 
BRANCH  13  15
HETATM   15  C           1     -36.118  -0.083 -15.395  0.00  0.00     0.196 C 
HETATM   16  O           1     -36.392  -1.124 -16.033  0.00  0.00    -0.646 OA
HETATM   17  O           1     -36.332   1.037 -15.906  0.00  0.00    -0.646 OA
ENDBRANCH  13  15
ENDBRANCH   2  13
TORSDOF 5
ENDMDL
MODEL 3
REMARK VINA RESULT:      -5.8     11.773     13.241
REMARK  5 active torsions:
REMARK  status: ('A' for Active; 'I' for Inactive)
REMARK    1  A    between atoms: N_2  and  C_10 
REMARK       I    between atoms: C_3  and  N_4 
REMARK    2  A    between atoms: C_3  and  C_10 
REMARK    3  A    between atoms: N_4  and  C_14 
REMARK    4  A    between atoms: C_8  and  C_10 
REMARK    5  A    between atoms: C_14  and  C_15 
ROOT
HETATM    1  C           1     -22.144  -4.311 -11.814  0.00  0.00     0.249 C 
HETATM    2  N           1     -22.300  -3.343 -12.771  0.00  0.00    -0.345 N 
HETATM    3  H           1     -21.571  -2.658 -12.920  0.00  0.00     0.163 HD
HETATM    4  O           1     -23.014  -5.129 -11.636  0.00  0.00    -0.271 OA
ENDROOT
BRANCH   1   5
HETATM    5  C           1     -20.885  -4.353 -10.983  0.00  0.00     0.278 C 
BRANCH   5   6
HETATM    6  N           1     -20.139  -3.062 -11.140  0.00  0.00    -0.066 N 
HETATM    7  H           1     -20.761  -2.351 -11.586  0.00  0.00     0.275 HD
HETATM    8  H           1     -19.836  -2.718 -10.200  0.00  0.00     0.275 HD
HETATM    9  H           1     -19.299  -3.216 -11.742  0.00  0.00     0.275 HD
ENDBRANCH   5   6
BRANCH   5  10
HETATM   10  C           1     -21.249  -4.554  -9.518  0.00  0.00     0.017 C 
HETATM   11  C           1     -22.323  -3.549  -9.120  0.00  0.00     0.012 C 
HETATM   12  C           1     -20.013  -4.343  -8.654  0.00  0.00     0.012 C 
ENDBRANCH   5  10
ENDBRANCH   1   5
BRANCH   2  13
HETATM   13  C           1     -23.509  -3.302 -13.570  0.00  0.00     0.181 C 
HETATM   14  C           1     -24.675  -2.849 -12.702  0.00  0.00     0.043 C 
BRANCH  13  15
HETATM   15  C           1     -23.323  -2.332 -14.710  0.00  0.00     0.196 C 
HETATM   16  O           1     -22.414  -2.518 -15.548  0.00  0.00    -0.646 OA
HETATM   17  O           1     -24.079  -1.342 -14.819  0.00  0.00    -0.646 OA
ENDBRANCH  13  15
ENDBRANCH   2  13
TORSDOF 5
ENDMDL
MODEL 4
REMARK VINA RESULT:      -5.7     12.566     14.268
REMARK  5 active torsions:
REMARK  status: ('A' for Active; 'I' for Inactive)
REMARK    1  A    between atoms: N_2  and  C_10 
REMARK       I    between atoms: C_3  and  N_4 
REMARK    2  A    between atoms: C_3  and  C_10 
REMARK    3  A    between atoms: N_4  and  C_14 
REMARK    4  A    between atoms: C_8  and  C_10 
REMARK    5  A    between atoms: C_14  and  C_15 
ROOT
HETATM    1  C           1     -21.906  -4.483  -8.309  0.00  0.00     0.249 C 
HETATM    2  N           1     -22.244  -4.680  -9.621  0.00  0.00    -0.345 N 
HETATM    3  H           1     -22.131  -5.594 -10.041  0.00  0.00     0.163 HD
HETATM    4  O           1     -22.041  -3.392  -7.808  0.00  0.00    -0.271 OA
ENDROOT
BRANCH   1   5
HETATM    5  C           1     -21.366  -5.629  -7.489  0.00  0.00     0.278 C 
BRANCH   5   6
HETATM    6  N           1     -19.923  -5.852  -7.832  0.00  0.00    -0.066 N 
HETATM    7  H           1     -19.493  -6.496  -7.130  0.00  0.00     0.275 HD
HETATM    8  H           1     -19.854  -6.279  -8.784  0.00  0.00     0.275 HD
HETATM    9  H           1     -19.417  -4.938  -7.822  0.00  0.00     0.275 HD
ENDBRANCH   5   6
BRANCH   5  10
HETATM   10  C           1     -21.488  -5.297  -6.007  0.00  0.00     0.017 C 
HETATM   11  C           1     -20.126  -4.880  -5.467  0.00  0.00     0.012 C 
HETATM   12  C           1     -21.979  -6.524  -5.251  0.00  0.00     0.012 C 
ENDBRANCH   5  10
ENDBRANCH   1   5
BRANCH   2  13
HETATM   13  C           1     -22.763  -3.580 -10.409  0.00  0.00     0.181 C 
HETATM   14  C           1     -22.058  -3.546 -11.759  0.00  0.00     0.043 C 
BRANCH  13  15
HETATM   15  C           1     -24.245  -3.769 -10.619  0.00  0.00     0.196 C 
HETATM   16  O           1     -24.842  -3.107 -11.497  0.00  0.00    -0.646 OA
HETATM   17  O           1     -24.877  -4.588  -9.917  0.00  0.00    -0.646 OA
ENDBRANCH  13  15
ENDBRANCH   2  13
TORSDOF 5
ENDMDL
MODEL 5
REMARK VINA RESULT:      -5.5      9.695     10.949
REMARK  5 active torsions:
REMARK  status: ('A' for Active; 'I' for Inactive)
REMARK    1  A    between atoms: N_2  and  C_10 
REMARK       I    between atoms: C_3  and  N_4 
REMARK    2  A    between atoms: C_3  and  C_10 
REMARK    3  A    between atoms: N_4  and  C_14 
REMARK    4  A    between atoms: C_8  and  C_10 
REMARK    5  A    between atoms: C_14  and  C_15 
ROOT
HETATM    1  C           1     -28.364  -6.362 -18.570  0.00  0.00     0.249 C 
HETATM    2  N           1     -27.552  -7.300 -19.149  0.00  0.00    -0.345 N 
HETATM    3  H           1     -27.511  -8.237 -18.770  0.00  0.00     0.163 HD
HETATM    4  O           1     -28.412  -5.243 -19.022  0.00  0.00    -0.271 OA
ENDROOT
BRANCH   1   5
HETATM    5  C           1     -29.199  -6.727 -17.367  0.00  0.00     0.278 C 
BRANCH   5   6
HETATM    6  N           1     -29.405  -8.212 -17.334  0.00  0.00    -0.066 N 
HETATM    7  H           1     -29.221  -8.569 -16.369  0.00  0.00     0.275 HD
HETATM    8  H           1     -30.390  -8.434 -17.604  0.00  0.00     0.275 HD
HETATM    9  H           1     -28.748  -8.670 -18.006  0.00  0.00     0.275 HD
ENDBRANCH   5   6
BRANCH   5  10
HETATM   10  C           1     -28.483  -6.286 -16.098  0.00  0.00     0.017 C 
HETATM   11  C           1     -27.736  -7.471 -15.499  0.00  0.00     0.012 C 
HETATM   12  C           1     -29.504  -5.771 -15.092  0.00  0.00     0.012 C 
ENDBRANCH   5  10
ENDBRANCH   1   5
BRANCH   2  13
HETATM   13  C           1     -26.749  -6.950 -20.304  0.00  0.00     0.181 C 
HETATM   14  C           1     -25.361  -6.522 -19.847  0.00  0.00     0.043 C 
BRANCH  13  15
HETATM   15  C           1     -26.633  -8.146 -21.216  0.00  0.00     0.196 C 
HETATM   16  O           1     -27.638  -8.852 -21.452  0.00  0.00    -0.646 OA
HETATM   17  O           1     -25.533  -8.432 -21.736  0.00  0.00    -0.646 OA
ENDBRANCH  13  15
ENDBRANCH   2  13
TORSDOF 5
ENDMDL
MODEL 6
REMARK VINA RESULT:      -5.5     13.174     15.285
REMARK  5 active torsions:
REMARK  status: ('A' for Active; 'I' for Inactive)
REMARK    1  A    between atoms: N_2  and  C_10 
REMARK       I    between atoms: C_3  and  N_4 
REMARK    2  A    between atoms: C_3  and  C_10 
REMARK    3  A    between atoms: N_4  and  C_14 
REMARK    4  A    between atoms: C_8  and  C_10 
REMARK    5  A    between atoms: C_14  and  C_15 
ROOT
HETATM    1  C           1     -21.020  -4.190 -10.433  0.00  0.00     0.249 C 
HETATM    2  N           1     -21.235  -4.265  -9.083  0.00  0.00    -0.345 N 
HETATM    3  H           1     -21.998  -3.750  -8.662  0.00  0.00     0.163 HD
HETATM    4  O           1     -20.110  -4.805 -10.934  0.00  0.00    -0.271 OA
ENDROOT
BRANCH   1   5
HETATM    5  C           1     -21.921  -3.338 -11.293  0.00  0.00     0.278 C 
BRANCH   5   6
HETATM    6  N           1     -21.635  -3.611 -12.740  0.00  0.00    -0.066 N 
HETATM    7  H           1     -20.654  -3.326 -12.961  0.00  0.00     0.275 HD
HETATM    8  H           1     -21.753  -4.631 -12.931  0.00  0.00     0.275 HD
HETATM    9  H           1     -22.298  -3.065 -13.335  0.00  0.00     0.275 HD
ENDBRANCH   5   6
BRANCH   5  10
HETATM   10  C           1     -23.376  -3.671 -10.992  0.00  0.00     0.017 C 
HETATM   11  C           1     -23.582  -5.177 -11.092  0.00  0.00     0.012 C 
HETATM   12  C           1     -24.277  -2.969 -12.000  0.00  0.00     0.012 C 
ENDBRANCH   5  10
ENDBRANCH   1   5
BRANCH   2  13
HETATM   13  C           1     -20.371  -5.084  -8.255  0.00  0.00     0.181 C 
HETATM   14  C           1     -19.273  -4.216  -7.654  0.00  0.00     0.043 C 
BRANCH  13  15
HETATM   15  C           1     -21.181  -5.710  -7.148  0.00  0.00     0.196 C 
HETATM   16  O           1     -22.112  -5.068  -6.614  0.00  0.00    -0.646 OA
HETATM   17  O           1     -20.923  -6.871  -6.764  0.00  0.00    -0.646 OA
ENDBRANCH  13  15
ENDBRANCH   2  13
TORSDOF 5
ENDMDL
MODEL 7
REMARK VINA RESULT:      -5.5     12.155     13.896
REMARK  5 active torsions:
REMARK  status: ('A' for Active; 'I' for Inactive)
REMARK    1  A    between atoms: N_2  and  C_10 
REMARK       I    between atoms: C_3  and  N_4 
REMARK    2  A    between atoms: C_3  and  C_10 
REMARK    3  A    between atoms: N_4  and  C_14 
REMARK    4  A    between atoms: C_8  and  C_10 
REMARK    5  A    between atoms: C_14  and  C_15 
ROOT
HETATM    1  C           1     -21.912  -4.263  -8.771  0.00  0.00     0.249 C 
HETATM    2  N           1     -23.020  -4.236  -9.575  0.00  0.00    -0.345 N 
HETATM    3  H           1     -23.943  -4.187  -9.162  0.00  0.00     0.163 HD
HETATM    4  O           1     -20.811  -4.322  -9.264  0.00  0.00    -0.271 OA
ENDROOT
BRANCH   1   5
HETATM    5  C           1     -22.067  -4.220  -7.271  0.00  0.00     0.278 C 
BRANCH   5   6
HETATM    6  N           1     -23.506  -4.440  -6.911  0.00  0.00    -0.066 N 
HETATM    7  H           1     -23.809  -3.712  -6.225  0.00  0.00     0.275 HD
HETATM    8  H           1     -24.095  -4.373  -7.772  0.00  0.00     0.275 HD
HETATM    9  H           1     -23.618  -5.388  -6.484  0.00  0.00     0.275 HD
ENDBRANCH   5   6
BRANCH   5  10
HETATM   10  C           1     -21.214  -5.313  -6.640  0.00  0.00     0.017 C 
HETATM   11  C           1     -22.043  -6.073  -5.612  0.00  0.00     0.012 C 
HETATM   12  C           1     -20.008  -4.684  -5.954  0.00  0.00     0.012 C 
ENDBRANCH   5  10
ENDBRANCH   1   5
BRANCH   2  13
HETATM   13  C           1     -22.872  -4.276 -11.016  0.00  0.00     0.181 C 
HETATM   14  C           1     -23.572  -5.513 -11.564  0.00  0.00     0.043 C 
BRANCH  13  15
HETATM   15  C           1     -23.489  -3.039 -11.619  0.00  0.00     0.196 C 
HETATM   16  O           1     -24.728  -2.872 -11.573  0.00  0.00    -0.646 OA
HETATM   17  O           1     -22.764  -2.180 -12.166  0.00  0.00    -0.646 OA
ENDBRANCH  13  15
ENDBRANCH   2  13
TORSDOF 5
ENDMDL
MODEL 8
REMARK VINA RESULT:      -5.5      1.938      2.374
REMARK  5 active torsions:
REMARK  status: ('A' for Active; 'I' for Inactive)
REMARK    1  A    between atoms: N_2  and  C_10 
REMARK       I    between atoms: C_3  and  N_4 
REMARK    2  A    between atoms: C_3  and  C_10 
REMARK    3  A    between atoms: N_4  and  C_14 
REMARK    4  A    between atoms: C_8  and  C_10 
REMARK    5  A    between atoms: C_14  and  C_15 
ROOT
HETATM    1  C           1     -34.858  -2.535 -12.750  0.00  0.00     0.249 C 
HETATM    2  N           1     -35.544  -1.352 -12.678  0.00  0.00    -0.345 N 
HETATM    3  H           1     -35.802  -0.971 -11.777  0.00  0.00     0.163 HD
HETATM    4  O           1     -34.550  -2.990 -13.825  0.00  0.00    -0.271 OA
ENDROOT
BRANCH   1   5
HETATM    5  C           1     -34.487  -3.270 -11.484  0.00  0.00     0.278 C 
BRANCH   5   6
HETATM    6  N           1     -35.725  -3.540 -10.682  0.00  0.00    -0.066 N 
HETATM    7  H           1     -36.385  -4.122 -11.245  0.00  0.00     0.275 HD
HETATM    8  H           1     -35.469  -4.051  -9.808  0.00  0.00     0.275 HD
HETATM    9  H           1     -36.185  -2.634 -10.435  0.00  0.00     0.275 HD
ENDBRANCH   5   6
BRANCH   5  10
HETATM   10  C           1     -33.815  -4.589 -11.841  0.00  0.00     0.017 C 
HETATM   11  C           1     -34.098  -5.613 -10.749  0.00  0.00     0.012 C 
HETATM   12  C           1     -32.311  -4.378 -11.960  0.00  0.00     0.012 C 
ENDBRANCH   5  10
ENDBRANCH   1   5
BRANCH   2  13
HETATM   13  C           1     -35.900  -0.646 -13.893  0.00  0.00     0.181 C 
HETATM   14  C           1     -37.293  -0.048 -13.742  0.00  0.00     0.043 C 
BRANCH  13  15
HETATM   15  C           1     -34.902   0.457 -14.143  0.00  0.00     0.196 C 
HETATM   16  O           1     -34.221   0.458 -15.192  0.00  0.00    -0.646 OA
HETATM   17  O           1     -34.755   1.371 -13.303  0.00  0.00    -0.646 OA
ENDBRANCH  13  15
ENDBRANCH   2  13
TORSDOF 5
ENDMDL
MODEL 9
REMARK VINA RESULT:      -5.3      3.136      3.963
REMARK  5 active torsions:
REMARK  status: ('A' for Active; 'I' for Inactive)
REMARK    1  A    between atoms: N_2  and  C_10 
REMARK       I    between atoms: C_3  and  N_4 
REMARK    2  A    between atoms: C_3  and  C_10 
REMARK    3  A    between atoms: N_4  and  C_14 
REMARK    4  A    between atoms: C_8  and  C_10 
REMARK    5  A    between atoms: C_14  and  C_15 
ROOT
HETATM    1  C           1     -35.220  -3.142 -10.615  0.00  0.00     0.249 C 
HETATM    2  N           1     -35.226  -1.778 -10.490  0.00  0.00    -0.345 N 
HETATM    3  H           1     -34.353  -1.274 -10.406  0.00  0.00     0.163 HD
HETATM    4  O           1     -36.262  -3.744 -10.715  0.00  0.00    -0.271 OA
ENDROOT
BRANCH   1   5
HETATM    5  C           1     -33.911  -3.892 -10.627  0.00  0.00     0.278 C 
BRANCH   5   6
HETATM    6  N           1     -34.175  -5.361 -10.484  0.00  0.00    -0.066 N 
HETATM    7  H           1     -35.148  -5.508 -10.132  0.00  0.00     0.275 HD
HETATM    8  H           1     -34.068  -5.827 -11.414  0.00  0.00     0.275 HD
HETATM    9  H           1     -33.494  -5.774  -9.807  0.00  0.00     0.275 HD
ENDBRANCH   5   6
BRANCH   5  10
HETATM   10  C           1     -33.189  -3.633 -11.943  0.00  0.00     0.017 C 
HETATM   11  C           1     -34.164  -3.806 -13.100  0.00  0.00     0.012 C 
HETATM   12  C           1     -32.041  -4.623 -12.096  0.00  0.00     0.012 C 
ENDBRANCH   5  10
ENDBRANCH   1   5
BRANCH   2  13
HETATM   13  C           1     -36.484  -1.057 -10.478  0.00  0.00     0.181 C 
HETATM   14  C           1     -36.643  -0.337  -9.146  0.00  0.00     0.043 C 
BRANCH  13  15
HETATM   15  C           1     -36.495  -0.049 -11.600  0.00  0.00     0.196 C 
HETATM   16  O           1     -35.425   0.476 -11.980  0.00  0.00    -0.646 OA
HETATM   17  O           1     -37.573   0.263 -12.151  0.00  0.00    -0.646 OA
ENDBRANCH  13  15
ENDBRANCH   2  13
TORSDOF 5
ENDMDL
