MODEL 1
REMARK VINA RESULT:      -7.3      0.000      0.000
REMARK  10 active torsions:
REMARK  status: ('A' for Active; 'I' for Inactive)
REMARK    1  A    between atoms: N_1  and  C_17 
REMARK    2  A    between atoms: C_6  and  C_8 
REMARK    3  A    between atoms: C_6  and  C_7 
REMARK    4  A    between atoms: C_7  and  C_13 
REMARK    5  A    between atoms: C_8  and  N_25 
REMARK    6  A    between atoms: N_11  and  C_13 
REMARK       I    between atoms: N_11  and  C_19 
REMARK    7  A    between atoms: C_12  and  C_18 
REMARK    8  A    between atoms: C_13  and  C_14 
REMARK    9  A    between atoms: C_17  and  C_19 
REMARK   10  A    between atoms: C_17  and  C_18 
ROOT
HETATM    1  H           1     -22.248  -5.823  -9.357  0.00  0.00     0.163 HD
HETATM    2  N           1     -22.232  -4.869  -9.020  0.00  0.00    -0.345 N 
HETATM    3  C           1     -21.680  -4.584  -7.800  0.00  0.00     0.249 C 
HETATM    4  O           1     -21.659  -3.444  -7.398  0.00  0.00    -0.271 OA
ENDROOT
BRANCH   3   5
HETATM    5  C           1     -21.096  -5.691  -6.958  0.00  0.00     0.278 C 
BRANCH   5   6
HETATM    6  N           1     -19.757  -6.086  -7.510  0.00  0.00    -0.066 N 
HETATM    7  H           1     -19.012  -5.852  -6.816  0.00  0.00     0.275 HD
HETATM    8  H           1     -19.748  -7.113  -7.699  0.00  0.00     0.275 HD
HETATM    9  H           1     -19.581  -5.565  -8.398  0.00  0.00     0.275 HD
ENDBRANCH   5   6
BRANCH   5  10
HETATM   10  C           1     -20.931  -5.207  -5.524  0.00  0.00     0.081 C 
BRANCH  10  11
HETATM   11  C           1     -21.179  -6.344  -4.581  0.00  0.00    -0.056 A 
HETATM   12  C           1     -21.239  -6.109  -3.208  0.00  0.00     0.007 A 
HETATM   13  C           1     -21.470  -7.167  -2.329  0.00  0.00     0.001 A 
HETATM   14  C           1     -21.640  -8.460  -2.824  0.00  0.00     0.000 A 
HETATM   15  C           1     -21.579  -8.695  -4.198  0.00  0.00     0.001 A 
HETATM   16  C           1     -21.348  -7.637  -5.076  0.00  0.00     0.007 A 
ENDBRANCH  10  11
ENDBRANCH   5  10
ENDBRANCH   3   5
BRANCH   2  17
HETATM   17  C           1     -22.792  -3.805  -9.829  0.00  0.00     0.185 C 
BRANCH  17  18
HETATM   18  C           1     -22.366  -3.990 -11.280  0.00  0.00     0.038 C 
BRANCH  18  19
HETATM   19  C           1     -22.446  -2.653 -12.006  0.00  0.00     0.030 C 
BRANCH  19  20
HETATM   20  C           1     -23.359  -2.788 -13.218  0.00  0.00     0.230 C 
BRANCH  20  21
HETATM   21  N           1     -22.532  -3.047 -14.442  0.00  0.00    -0.079 N 
HETATM   22  H           1     -22.857  -3.926 -14.903  0.00  0.00     0.274 HD
HETATM   23  H           1     -22.634  -2.247 -15.107  0.00  0.00     0.274 HD
HETATM   24  H           1     -21.529  -3.146 -14.169  0.00  0.00     0.274 HD
ENDBRANCH  20  21
ENDBRANCH  19  20
ENDBRANCH  18  19
ENDBRANCH  17  18
BRANCH  17  25
HETATM   25  C           1     -24.297  -3.844  -9.739  0.00  0.00     0.196 C 
HETATM   26  O           1     -24.938  -2.795  -9.511  0.00  0.00    -0.646 OA
HETATM   27  O           1     -24.905  -4.926  -9.892  0.00  0.00    -0.646 OA
ENDBRANCH  17  25
ENDBRANCH   2  17
TORSDOF 10
ENDMDL
MODEL 2
REMARK VINA RESULT:      -7.1     12.473     15.516
REMARK  10 active torsions:
REMARK  status: ('A' for Active; 'I' for Inactive)
REMARK    1  A    between atoms: N_1  and  C_17 
REMARK    2  A    between atoms: C_6  and  C_8 
REMARK    3  A    between atoms: C_6  and  C_7 
REMARK    4  A    between atoms: C_7  and  C_13 
REMARK    5  A    between atoms: C_8  and  N_25 
REMARK    6  A    between atoms: N_11  and  C_13 
REMARK       I    between atoms: N_11  and  C_19 
REMARK    7  A    between atoms: C_12  and  C_18 
REMARK    8  A    between atoms: C_13  and  C_14 
REMARK    9  A    between atoms: C_17  and  C_19 
REMARK   10  A    between atoms: C_17  and  C_18 
ROOT
HETATM    1  H           1     -36.244  -3.595 -11.785  0.00  0.00     0.163 HD
HETATM    2  N           1     -35.394  -3.333 -11.302  0.00  0.00    -0.345 N 
HETATM    3  C           1     -35.277  -2.084 -10.755  0.00  0.00     0.249 C 
HETATM    4  O           1     -34.262  -1.771 -10.177  0.00  0.00    -0.271 OA
ENDROOT
BRANCH   3   5
HETATM    5  C           1     -36.413  -1.098 -10.872  0.00  0.00     0.278 C 
BRANCH   5   6
HETATM    6  N           1     -37.044  -0.902  -9.525  0.00  0.00    -0.066 N 
HETATM    7  H           1     -37.377  -1.823  -9.159  0.00  0.00     0.275 HD
HETATM    8  H           1     -36.341  -0.499  -8.866  0.00  0.00     0.275 HD
HETATM    9  H           1     -37.856  -0.250  -9.613  0.00  0.00     0.275 HD
ENDBRANCH   5   6
BRANCH   5  10
HETATM   10  C           1     -35.880   0.234 -11.381  0.00  0.00     0.081 C 
BRANCH  10  11
HETATM   11  C           1     -35.971   0.271 -12.875  0.00  0.00    -0.056 A 
HETATM   12  C           1     -37.136  -0.153 -13.513  0.00  0.00     0.007 A 
HETATM   13  C           1     -37.221  -0.119 -14.904  0.00  0.00     0.001 A 
HETATM   14  C           1     -36.140   0.338 -15.658  0.00  0.00     0.000 A 
HETATM   15  C           1     -34.974   0.762 -15.020  0.00  0.00     0.001 A 
HETATM   16  C           1     -34.890   0.728 -13.628  0.00  0.00     0.007 A 
ENDBRANCH  10  11
ENDBRANCH   5  10
ENDBRANCH   3   5
BRANCH   2  17
HETATM   17  C           1     -34.303  -4.280 -11.189  0.00  0.00     0.185 C 
BRANCH  17  18
HETATM   18  C           1     -34.856  -5.700 -11.214  0.00  0.00     0.038 C 
BRANCH  18  19
HETATM   19  C           1     -34.183  -6.525 -10.125  0.00  0.00     0.030 C 
BRANCH  19  20
HETATM   20  C           1     -34.713  -7.953 -10.169  0.00  0.00     0.230 C 
BRANCH  20  21
HETATM   21  N           1     -33.562  -8.914 -10.196  0.00  0.00    -0.079 N 
HETATM   22  H           1     -32.670  -8.394 -10.037  0.00  0.00     0.274 HD
HETATM   23  H           1     -33.687  -9.629  -9.445  0.00  0.00     0.274 HD
HETATM   24  H           1     -33.528  -9.389 -11.126  0.00  0.00     0.274 HD
ENDBRANCH  20  21
ENDBRANCH  19  20
ENDBRANCH  18  19
ENDBRANCH  17  18
BRANCH  17  25
HETATM   25  C           1     -33.352  -4.092 -12.345  0.00  0.00     0.196 C 
HETATM   26  O           1     -33.779  -3.679 -13.446  0.00  0.00    -0.646 OA
HETATM   27  O           1     -32.137  -4.349 -12.204  0.00  0.00    -0.646 OA
ENDBRANCH  17  25
ENDBRANCH   2  17
TORSDOF 10
ENDMDL
MODEL 3
REMARK VINA RESULT:      -7.0     12.148     13.876
REMARK  10 active torsions:
REMARK  status: ('A' for Active; 'I' for Inactive)
REMARK    1  A    between atoms: N_1  and  C_17 
REMARK    2  A    between atoms: C_6  and  C_8 
REMARK    3  A    between atoms: C_6  and  C_7 
REMARK    4  A    between atoms: C_7  and  C_13 
REMARK    5  A    between atoms: C_8  and  N_25 
REMARK    6  A    between atoms: N_11  and  C_13 
REMARK       I    between atoms: N_11  and  C_19 
REMARK    7  A    between atoms: C_12  and  C_18 
REMARK    8  A    between atoms: C_13  and  C_14 
REMARK    9  A    between atoms: C_17  and  C_19 
REMARK   10  A    between atoms: C_17  and  C_18 
ROOT
HETATM    1  H           1     -35.373  -1.963 -13.728  0.00  0.00     0.163 HD
HETATM    2  N           1     -34.912  -1.642 -12.886  0.00  0.00    -0.345 N 
HETATM    3  C           1     -34.171  -2.516 -12.138  0.00  0.00     0.249 C 
HETATM    4  O           1     -33.620  -2.133 -11.132  0.00  0.00    -0.271 OA
ENDROOT
BRANCH   3   5
HETATM    5  C           1     -34.040  -3.957 -12.567  0.00  0.00     0.278 C 
BRANCH   5   6
HETATM    6  N           1     -33.655  -4.013 -14.016  0.00  0.00    -0.066 N 
HETATM    7  H           1     -34.296  -4.664 -14.522  0.00  0.00     0.275 HD
HETATM    8  H           1     -33.728  -3.058 -14.433  0.00  0.00     0.275 HD
HETATM    9  H           1     -32.672  -4.357 -14.100  0.00  0.00     0.275 HD
ENDBRANCH   5   6
BRANCH   5  10
HETATM   10  C           1     -32.970  -4.643 -11.730  0.00  0.00     0.081 C 
BRANCH  10  11
HETATM   11  C           1     -33.575  -5.795 -10.989  0.00  0.00    -0.056 A 
HETATM   12  C           1     -32.907  -7.017 -10.936  0.00  0.00     0.007 A 
HETATM   13  C           1     -33.471  -8.090 -10.247  0.00  0.00     0.001 A 
HETATM   14  C           1     -34.703  -7.941  -9.612  0.00  0.00     0.000 A 
HETATM   15  C           1     -35.372  -6.718  -9.665  0.00  0.00     0.001 A 
HETATM   16  C           1     -34.808  -5.645 -10.355  0.00  0.00     0.007 A 
ENDBRANCH  10  11
ENDBRANCH   5  10
ENDBRANCH   3   5
BRANCH   2  17
HETATM   17  C           1     -35.037  -0.259 -12.473  0.00  0.00     0.185 C 
BRANCH  17  18
HETATM   18  C           1     -35.073   0.639 -13.704  0.00  0.00     0.038 C 
BRANCH  18  19
HETATM   19  C           1     -35.454  -0.190 -14.924  0.00  0.00     0.030 C 
BRANCH  19  20
HETATM   20  C           1     -36.771   0.323 -15.495  0.00  0.00     0.230 C 
BRANCH  20  21
HETATM   21  N           1     -36.564   1.688 -16.083  0.00  0.00    -0.079 N 
HETATM   22  H           1     -36.427   2.381 -15.313  0.00  0.00     0.274 HD
HETATM   23  H           1     -35.719   1.678 -16.698  0.00  0.00     0.274 HD
HETATM   24  H           1     -37.402   1.954 -16.647  0.00  0.00     0.274 HD
ENDBRANCH  20  21
ENDBRANCH  19  20
ENDBRANCH  18  19
ENDBRANCH  17  18
BRANCH  17  25
HETATM   25  C           1     -36.311  -0.081 -11.686  0.00  0.00     0.196 C 
HETATM   26  O           1     -37.379  -0.579 -12.103  0.00  0.00    -0.646 OA
HETATM   27  O           1     -36.300   0.565 -10.615  0.00  0.00    -0.646 OA
ENDBRANCH  17  25
ENDBRANCH   2  17
TORSDOF 10
ENDMDL
MODEL 4
REMARK VINA RESULT:      -6.9      3.296      7.855
REMARK  10 active torsions:
REMARK  status: ('A' for Active; 'I' for Inactive)
REMARK    1  A    between atoms: N_1  and  C_17 
REMARK    2  A    between atoms: C_6  and  C_8 
REMARK    3  A    between atoms: C_6  and  C_7 
REMARK    4  A    between atoms: C_7  and  C_13 
REMARK    5  A    between atoms: C_8  and  N_25 
REMARK    6  A    between atoms: N_11  and  C_13 
REMARK       I    between atoms: N_11  and  C_19 
REMARK    7  A    between atoms: C_12  and  C_18 
REMARK    8  A    between atoms: C_13  and  C_14 
REMARK    9  A    between atoms: C_17  and  C_19 
REMARK   10  A    between atoms: C_17  and  C_18 
ROOT
HETATM    1  H           1     -21.503  -7.906  -6.168  0.00  0.00     0.163 HD
HETATM    2  N           1     -21.075  -7.290  -5.488  0.00  0.00    -0.345 N 
HETATM    3  C           1     -21.274  -5.939  -5.568  0.00  0.00     0.249 C 
HETATM    4  O           1     -20.763  -5.203  -4.756  0.00  0.00    -0.271 OA
ENDROOT
BRANCH   3   5
HETATM    5  C           1     -22.130  -5.365  -6.671  0.00  0.00     0.278 C 
BRANCH   5   6
HETATM    6  N           1     -23.509  -5.098  -6.145  0.00  0.00    -0.066 N 
HETATM    7  H           1     -24.177  -5.790  -6.550  0.00  0.00     0.275 HD
HETATM    8  H           1     -23.507  -5.184  -5.103  0.00  0.00     0.275 HD
HETATM    9  H           1     -23.802  -4.132  -6.415  0.00  0.00     0.275 HD
ENDBRANCH   5   6
BRANCH   5  10
HETATM   10  C           1     -21.515  -4.064  -7.168  0.00  0.00     0.081 C 
BRANCH  10  11
HETATM   11  C           1     -21.475  -4.070  -8.665  0.00  0.00    -0.056 A 
HETATM   12  C           1     -20.298  -4.414  -9.329  0.00  0.00     0.007 A 
HETATM   13  C           1     -20.261  -4.419 -10.723  0.00  0.00     0.001 A 
HETATM   14  C           1     -21.400  -4.080 -11.453  0.00  0.00     0.000 A 
HETATM   15  C           1     -22.577  -3.736 -10.788  0.00  0.00     0.001 A 
HETATM   16  C           1     -22.615  -3.731  -9.394  0.00  0.00     0.007 A 
ENDBRANCH  10  11
ENDBRANCH   5  10
ENDBRANCH   3   5
BRANCH   2  17
HETATM   17  C           1     -20.254  -7.840  -4.428  0.00  0.00     0.185 C 
BRANCH  17  18
HETATM   18  C           1     -21.148  -8.411  -3.334  0.00  0.00     0.038 C 
BRANCH  18  19
HETATM   19  C           1     -20.819  -7.737  -2.008  0.00  0.00     0.030 C 
BRANCH  19  20
HETATM   20  C           1     -22.073  -7.076  -1.450  0.00  0.00     0.230 C 
BRANCH  20  21
HETATM   21  N           1     -22.269  -5.741  -2.106  0.00  0.00    -0.079 N 
HETATM   22  H           1     -22.919  -5.161  -1.529  0.00  0.00     0.274 HD
HETATM   23  H           1     -21.348  -5.255  -2.188  0.00  0.00     0.274 HD
HETATM   24  H           1     -22.675  -5.878  -3.058  0.00  0.00     0.274 HD
ENDBRANCH  20  21
ENDBRANCH  19  20
ENDBRANCH  18  19
ENDBRANCH  17  18
BRANCH  17  25
HETATM   25  C           1     -19.382  -8.938  -4.986  0.00  0.00     0.196 C 
HETATM   26  O           1     -19.207  -9.991  -4.334  0.00  0.00    -0.646 OA
HETATM   27  O           1     -18.832  -8.795  -6.100  0.00  0.00    -0.646 OA
ENDBRANCH  17  25
ENDBRANCH   2  17
TORSDOF 10
ENDMDL
MODEL 5
REMARK VINA RESULT:      -6.9     13.254     15.420
REMARK  10 active torsions:
REMARK  status: ('A' for Active; 'I' for Inactive)
REMARK    1  A    between atoms: N_1  and  C_17 
REMARK    2  A    between atoms: C_6  and  C_8 
REMARK    3  A    between atoms: C_6  and  C_7 
REMARK    4  A    between atoms: C_7  and  C_13 
REMARK    5  A    between atoms: C_8  and  N_25 
REMARK    6  A    between atoms: N_11  and  C_13 
REMARK       I    between atoms: N_11  and  C_19 
REMARK    7  A    between atoms: C_12  and  C_18 
REMARK    8  A    between atoms: C_13  and  C_14 
REMARK    9  A    between atoms: C_17  and  C_19 
REMARK   10  A    between atoms: C_17  and  C_18 
ROOT
HETATM    1  H           1     -35.075  -0.356 -13.856  0.00  0.00     0.163 HD
HETATM    2  N           1     -36.083  -0.433 -13.826  0.00  0.00    -0.345 N 
HETATM    3  C           1     -36.724  -0.554 -12.622  0.00  0.00     0.249 C 
HETATM    4  O           1     -37.929  -0.645 -12.586  0.00  0.00    -0.271 OA
ENDROOT
BRANCH   3   5
HETATM    5  C           1     -35.928  -0.574 -11.340  0.00  0.00     0.278 C 
BRANCH   5   6
HETATM    6  N           1     -36.325   0.595 -10.488  0.00  0.00    -0.066 N 
HETATM    7  H           1     -36.249   1.475 -11.046  0.00  0.00     0.275 HD
HETATM    8  H           1     -37.311   0.471 -10.165  0.00  0.00     0.275 HD
HETATM    9  H           1     -35.691   0.653  -9.660  0.00  0.00     0.275 HD
ENDBRANCH   5   6
BRANCH   5  10
HETATM   10  C           1     -36.205  -1.868 -10.589  0.00  0.00     0.081 C 
BRANCH  10  11
HETATM   11  C           1     -35.132  -2.866 -10.899  0.00  0.00    -0.056 A 
HETATM   12  C           1     -33.837  -2.432 -11.178  0.00  0.00     0.007 A 
HETATM   13  C           1     -32.838  -3.362 -11.467  0.00  0.00     0.001 A 
HETATM   14  C           1     -33.135  -4.724 -11.478  0.00  0.00     0.000 A 
HETATM   15  C           1     -34.431  -5.158 -11.198  0.00  0.00     0.001 A 
HETATM   16  C           1     -35.430  -4.229 -10.909  0.00  0.00     0.007 A 
ENDBRANCH  10  11
ENDBRANCH   5  10
ENDBRANCH   3   5
BRANCH   2  17
HETATM   17  C           1     -36.849  -0.413 -15.056  0.00  0.00     0.185 C 
BRANCH  17  18
HETATM   18  C           1     -37.099   1.029 -15.478  0.00  0.00     0.038 C 
BRANCH  18  19
HETATM   19  C           1     -35.779   1.789 -15.494  0.00  0.00     0.030 C 
BRANCH  19  20
HETATM   20  C           1     -35.726   2.689 -16.722  0.00  0.00     0.230 C 
BRANCH  20  21
HETATM   21  N           1     -37.005   3.465 -16.829  0.00  0.00    -0.079 N 
HETATM   22  H           1     -36.866   4.278 -17.470  0.00  0.00     0.274 HD
HETATM   23  H           1     -37.757   2.846 -17.209  0.00  0.00     0.274 HD
HETATM   24  H           1     -37.283   3.809 -15.883  0.00  0.00     0.274 HD
ENDBRANCH  20  21
ENDBRANCH  19  20
ENDBRANCH  18  19
ENDBRANCH  17  18
BRANCH  17  25
HETATM   25  C           1     -36.078  -1.126 -16.139  0.00  0.00     0.196 C 
HETATM   26  O           1     -36.408  -0.986 -17.338  0.00  0.00    -0.646 OA
HETATM   27  O           1     -35.110  -1.858 -15.840  0.00  0.00    -0.646 OA
ENDBRANCH  17  25
ENDBRANCH   2  17
TORSDOF 10
ENDMDL
MODEL 6
REMARK VINA RESULT:      -6.7      3.142      8.124
REMARK  10 active torsions:
REMARK  status: ('A' for Active; 'I' for Inactive)
REMARK    1  A    between atoms: N_1  and  C_17 
REMARK    2  A    between atoms: C_6  and  C_8 
REMARK    3  A    between atoms: C_6  and  C_7 
REMARK    4  A    between atoms: C_7  and  C_13 
REMARK    5  A    between atoms: C_8  and  N_25 
REMARK    6  A    between atoms: N_11  and  C_13 
REMARK       I    between atoms: N_11  and  C_19 
REMARK    7  A    between atoms: C_12  and  C_18 
REMARK    8  A    between atoms: C_13  and  C_14 
REMARK    9  A    between atoms: C_17  and  C_19 
REMARK   10  A    between atoms: C_17  and  C_18 
ROOT
HETATM    1  H           1     -22.410  -7.324  -5.527  0.00  0.00     0.163 HD
HETATM    2  N           1     -21.642  -6.748  -5.207  0.00  0.00    -0.345 N 
HETATM    3  C           1     -21.397  -5.541  -5.804  0.00  0.00     0.249 C 
HETATM    4  O           1     -20.480  -4.852  -5.422  0.00  0.00    -0.271 OA
ENDROOT
BRANCH   3   5
HETATM    5  C           1     -22.272  -5.068  -6.939  0.00  0.00     0.278 C 
BRANCH   5   6
HETATM    6  N           1     -23.666  -4.840  -6.433  0.00  0.00    -0.066 N 
HETATM    7  H           1     -23.655  -4.089  -5.707  0.00  0.00     0.275 HD
HETATM    8  H           1     -24.281  -4.550  -7.226  0.00  0.00     0.275 HD
HETATM    9  H           1     -24.032  -5.724  -6.013  0.00  0.00     0.275 HD
ENDBRANCH   5   6
BRANCH   5  10
HETATM   10  C           1     -21.717  -3.767  -7.502  0.00  0.00     0.081 C 
BRANCH  10  11
HETATM   11  C           1     -21.672  -3.848  -8.997  0.00  0.00    -0.056 A 
HETATM   12  C           1     -22.831  -3.631  -9.741  0.00  0.00     0.007 A 
HETATM   13  C           1     -22.789  -3.706 -11.133  0.00  0.00     0.001 A 
HETATM   14  C           1     -21.588  -3.999 -11.780  0.00  0.00     0.000 A 
HETATM   15  C           1     -20.429  -4.215 -11.035  0.00  0.00     0.001 A 
HETATM   16  C           1     -20.471  -4.140  -9.643  0.00  0.00     0.007 A 
ENDBRANCH  10  11
ENDBRANCH   5  10
ENDBRANCH   3   5
BRANCH   2  17
HETATM   17  C           1     -20.801  -7.201  -4.116  0.00  0.00     0.185 C 
BRANCH  17  18
HETATM   18  C           1     -21.676  -7.696  -2.971  0.00  0.00     0.038 C 
BRANCH  18  19
HETATM   19  C           1     -21.694  -6.654  -1.860  0.00  0.00     0.030 C 
BRANCH  19  20
HETATM   20  C           1     -22.499  -7.184  -0.680  0.00  0.00     0.230 C 
BRANCH  20  21
HETATM   21  N           1     -21.598  -7.966   0.230  0.00  0.00    -0.079 N 
HETATM   22  H           1     -22.144  -8.302   1.055  0.00  0.00     0.274 HD
HETATM   23  H           1     -21.208  -8.786  -0.287  0.00  0.00     0.274 HD
HETATM   24  H           1     -20.816  -7.354   0.554  0.00  0.00     0.274 HD
ENDBRANCH  20  21
ENDBRANCH  19  20
ENDBRANCH  18  19
ENDBRANCH  17  18
BRANCH  17  25
HETATM   25  C           1     -19.919  -8.326  -4.596  0.00  0.00     0.196 C 
HETATM   26  O           1     -19.580  -8.387  -5.798  0.00  0.00    -0.646 OA
HETATM   27  O           1     -19.526  -9.199  -3.792  0.00  0.00    -0.646 OA
ENDBRANCH  17  25
ENDBRANCH   2  17
TORSDOF 10
ENDMDL
MODEL 7
REMARK VINA RESULT:      -6.6      2.547      3.305
REMARK  10 active torsions:
REMARK  status: ('A' for Active; 'I' for Inactive)
REMARK    1  A    between atoms: N_1  and  C_17 
REMARK    2  A    between atoms: C_6  and  C_8 
REMARK    3  A    between atoms: C_6  and  C_7 
REMARK    4  A    between atoms: C_7  and  C_13 
REMARK    5  A    between atoms: C_8  and  N_25 
REMARK    6  A    between atoms: N_11  and  C_13 
REMARK       I    between atoms: N_11  and  C_19 
REMARK    7  A    between atoms: C_12  and  C_18 
REMARK    8  A    between atoms: C_13  and  C_14 
REMARK    9  A    between atoms: C_17  and  C_19 
REMARK   10  A    between atoms: C_17  and  C_18 
ROOT
HETATM    1  H           1     -22.471  -4.110  -6.867  0.00  0.00     0.163 HD
HETATM    2  N           1     -21.934  -4.839  -7.319  0.00  0.00    -0.345 N 
HETATM    3  C           1     -21.450  -5.887  -6.584  0.00  0.00     0.249 C 
HETATM    4  O           1     -20.809  -6.759  -7.123  0.00  0.00    -0.271 OA
ENDROOT
BRANCH   3   5
HETATM    5  C           1     -21.716  -5.957  -5.099  0.00  0.00     0.278 C 
BRANCH   5   6
HETATM    6  N           1     -23.162  -6.280  -4.866  0.00  0.00    -0.066 N 
HETATM    7  H           1     -23.657  -5.431  -4.511  0.00  0.00     0.275 HD
HETATM    8  H           1     -23.599  -6.588  -5.764  0.00  0.00     0.275 HD
HETATM    9  H           1     -23.237  -7.047  -4.160  0.00  0.00     0.275 HD
ENDBRANCH   5   6
BRANCH   5  10
HETATM   10  C           1     -20.847  -7.040  -4.477  0.00  0.00     0.081 C 
BRANCH  10  11
HETATM   11  C           1     -21.359  -7.366  -3.107  0.00  0.00    -0.056 A 
HETATM   12  C           1     -21.433  -8.694  -2.689  0.00  0.00     0.007 A 
HETATM   13  C           1     -21.909  -8.998  -1.415  0.00  0.00     0.001 A 
HETATM   14  C           1     -22.313  -7.974  -0.558  0.00  0.00     0.000 A 
HETATM   15  C           1     -22.239  -6.645  -0.977  0.00  0.00     0.001 A 
HETATM   16  C           1     -21.762  -6.341  -2.252  0.00  0.00     0.007 A 
ENDBRANCH  10  11
ENDBRANCH   5  10
ENDBRANCH   3   5
BRANCH   2  17
HETATM   17  C           1     -21.679  -4.774  -8.744  0.00  0.00     0.185 C 
BRANCH  17  18
HETATM   18  C           1     -22.569  -3.710  -9.372  0.00  0.00     0.038 C 
BRANCH  18  19
HETATM   19  C           1     -23.394  -4.334 -10.491  0.00  0.00     0.030 C 
BRANCH  19  20
HETATM   20  C           1     -24.558  -3.414 -10.838  0.00  0.00     0.230 C 
BRANCH  20  21
HETATM   21  N           1     -25.609  -3.513  -9.772  0.00  0.00    -0.079 N 
HETATM   22  H           1     -25.361  -2.882  -8.978  0.00  0.00     0.274 HD
HETATM   23  H           1     -26.534  -3.229 -10.167  0.00  0.00     0.274 HD
HETATM   24  H           1     -25.665  -4.499  -9.430  0.00  0.00     0.274 HD
ENDBRANCH  20  21
ENDBRANCH  19  20
ENDBRANCH  18  19
ENDBRANCH  17  18
BRANCH  17  25
HETATM   25  C           1     -20.231  -4.420  -8.979  0.00  0.00     0.196 C 
HETATM   26  O           1     -19.622  -3.699  -8.159  0.00  0.00    -0.646 OA
HETATM   27  O           1     -19.641  -4.845  -9.996  0.00  0.00    -0.646 OA
ENDBRANCH  17  25
ENDBRANCH   2  17
TORSDOF 10
ENDMDL
MODEL 8
REMARK VINA RESULT:      -6.5      3.045      4.518
REMARK  10 active torsions:
REMARK  status: ('A' for Active; 'I' for Inactive)
REMARK    1  A    between atoms: N_1  and  C_17 
REMARK    2  A    between atoms: C_6  and  C_8 
REMARK    3  A    between atoms: C_6  and  C_7 
REMARK    4  A    between atoms: C_7  and  C_13 
REMARK    5  A    between atoms: C_8  and  N_25 
REMARK    6  A    between atoms: N_11  and  C_13 
REMARK       I    between atoms: N_11  and  C_19 
REMARK    7  A    between atoms: C_12  and  C_18 
REMARK    8  A    between atoms: C_13  and  C_14 
REMARK    9  A    between atoms: C_17  and  C_19 
REMARK   10  A    between atoms: C_17  and  C_18 
ROOT
HETATM    1  H           1     -22.489  -6.173  -5.007  0.00  0.00     0.163 HD
HETATM    2  N           1     -21.709  -6.439  -5.594  0.00  0.00    -0.345 N 
HETATM    3  C           1     -21.021  -7.594  -5.337  0.00  0.00     0.249 C 
HETATM    4  O           1     -20.090  -7.912  -6.039  0.00  0.00    -0.271 OA
ENDROOT
BRANCH   3   5
HETATM    5  C           1     -21.425  -8.471  -4.177  0.00  0.00     0.278 C 
BRANCH   5   6
HETATM    6  N           1     -21.524  -9.895  -4.638  0.00  0.00    -0.066 N 
HETATM    7  H           1     -21.362  -9.939  -5.670  0.00  0.00     0.275 HD
HETATM    8  H           1     -20.803 -10.471  -4.147  0.00  0.00     0.275 HD
HETATM    9  H           1     -22.476 -10.266  -4.420  0.00  0.00     0.275 HD
ENDBRANCH   5   6
BRANCH   5  10
HETATM   10  C           1     -20.382  -8.366  -3.073  0.00  0.00     0.081 C 
BRANCH  10  11
HETATM   11  C           1     -21.067  -8.288  -1.743  0.00  0.00    -0.056 A 
HETATM   12  C           1     -21.924  -7.225  -1.463  0.00  0.00     0.007 A 
HETATM   13  C           1     -22.562  -7.152  -0.225  0.00  0.00     0.001 A 
HETATM   14  C           1     -22.342  -8.142   0.733  0.00  0.00     0.000 A 
HETATM   15  C           1     -21.485  -9.207   0.451  0.00  0.00     0.001 A 
HETATM   16  C           1     -20.847  -9.279  -0.787  0.00  0.00     0.007 A 
ENDBRANCH  10  11
ENDBRANCH   5  10
ENDBRANCH   3   5
BRANCH   2  17
HETATM   17  C           1     -21.321  -5.597  -6.709  0.00  0.00     0.185 C 
BRANCH  17  18
HETATM   18  C           1     -22.463  -4.650  -7.053  0.00  0.00     0.038 C 
BRANCH  18  19
HETATM   19  C           1     -22.203  -4.014  -8.413  0.00  0.00     0.030 C 
BRANCH  19  20
HETATM   20  C           1     -23.383  -4.289  -9.336  0.00  0.00     0.230 C 
BRANCH  20  21
HETATM   21  N           1     -24.493  -3.327  -9.031  0.00  0.00    -0.079 N 
HETATM   22  H           1     -25.397  -3.847  -8.968  0.00  0.00     0.274 HD
HETATM   23  H           1     -24.300  -2.851  -8.121  0.00  0.00     0.274 HD
HETATM   24  H           1     -24.552  -2.613  -9.791  0.00  0.00     0.274 HD
ENDBRANCH  20  21
ENDBRANCH  19  20
ENDBRANCH  18  19
ENDBRANCH  17  18
BRANCH  17  25
HETATM   25  C           1     -20.100  -4.795  -6.332  0.00  0.00     0.196 C 
HETATM   26  O           1     -19.179  -4.631  -7.162  0.00  0.00    -0.646 OA
HETATM   27  O           1     -20.009  -4.295  -5.190  0.00  0.00    -0.646 OA
ENDBRANCH  17  25
ENDBRANCH   2  17
TORSDOF 10
ENDMDL
MODEL 9
REMARK VINA RESULT:      -6.2      2.664      7.996
REMARK  10 active torsions:
REMARK  status: ('A' for Active; 'I' for Inactive)
REMARK    1  A    between atoms: N_1  and  C_17 
REMARK    2  A    between atoms: C_6  and  C_8 
REMARK    3  A    between atoms: C_6  and  C_7 
REMARK    4  A    between atoms: C_7  and  C_13 
REMARK    5  A    between atoms: C_8  and  N_25 
REMARK    6  A    between atoms: N_11  and  C_13 
REMARK       I    between atoms: N_11  and  C_19 
REMARK    7  A    between atoms: C_12  and  C_18 
REMARK    8  A    between atoms: C_13  and  C_14 
REMARK    9  A    between atoms: C_17  and  C_19 
REMARK   10  A    between atoms: C_17  and  C_18 
ROOT
HETATM    1  H           1     -22.688  -6.567  -6.466  0.00  0.00     0.163 HD
HETATM    2  N           1     -21.749  -6.230  -6.298  0.00  0.00    -0.345 N 
HETATM    3  C           1     -21.205  -5.281  -7.121  0.00  0.00     0.249 C 
HETATM    4  O           1     -20.083  -4.878  -6.920  0.00  0.00    -0.271 OA
ENDROOT
BRANCH   3   5
HETATM    5  C           1     -22.006  -4.736  -8.279  0.00  0.00     0.278 C 
BRANCH   5   6
HETATM    6  N           1     -22.693  -3.470  -7.858  0.00  0.00    -0.066 N 
HETATM    7  H           1     -23.364  -3.174  -8.603  0.00  0.00     0.275 HD
HETATM    8  H           1     -23.212  -3.636  -6.967  0.00  0.00     0.275 HD
HETATM    9  H           1     -21.980  -2.720  -7.713  0.00  0.00     0.275 HD
ENDBRANCH   5   6
BRANCH   5  10
HETATM   10  C           1     -21.076  -4.444  -9.448  0.00  0.00     0.081 C 
BRANCH  10  11
HETATM   11  C           1     -21.885  -4.041 -10.642  0.00  0.00    -0.056 A 
HETATM   12  C           1     -21.515  -2.924 -11.389  0.00  0.00     0.007 A 
HETATM   13  C           1     -22.268  -2.549 -12.501  0.00  0.00     0.001 A 
HETATM   14  C           1     -23.392  -3.291 -12.865  0.00  0.00     0.000 A 
HETATM   15  C           1     -23.761  -4.409 -12.117  0.00  0.00     0.001 A 
HETATM   16  C           1     -23.008  -4.784 -11.005  0.00  0.00     0.007 A 
ENDBRANCH  10  11
ENDBRANCH   5  10
ENDBRANCH   3   5
BRANCH   2  17
HETATM   17  C           1     -20.980  -6.752  -5.186  0.00  0.00     0.185 C 
BRANCH  17  18
HETATM   18  C           1     -21.904  -7.001  -4.000  0.00  0.00     0.038 C 
BRANCH  18  19
HETATM   19  C           1     -21.266  -6.441  -2.735  0.00  0.00     0.030 C 
BRANCH  19  20
HETATM   20  C           1     -21.175  -7.540  -1.684  0.00  0.00     0.230 C 
BRANCH  20  21
HETATM   21  N           1     -21.586  -8.848  -2.290  0.00  0.00    -0.079 N 
HETATM   22  H           1     -22.348  -9.274  -1.716  0.00  0.00     0.274 HD
HETATM   23  H           1     -21.930  -8.688  -3.264  0.00  0.00     0.274 HD
HETATM   24  H           1     -20.764  -9.493  -2.314  0.00  0.00     0.274 HD
ENDBRANCH  20  21
ENDBRANCH  19  20
ENDBRANCH  18  19
ENDBRANCH  17  18
BRANCH  17  25
HETATM   25  C           1     -20.326  -8.050  -5.593  0.00  0.00     0.196 C 
HETATM   26  O           1     -20.935  -9.132  -5.441  0.00  0.00    -0.646 OA
HETATM   27  O           1     -19.175  -8.044  -6.080  0.00  0.00    -0.646 OA
ENDBRANCH  17  25
ENDBRANCH   2  17
TORSDOF 10
ENDMDL
