MODEL 1
REMARK VINA RESULT:      -6.5      0.000      0.000
REMARK  11 active torsions:
REMARK  status: ('A' for Active; 'I' for Inactive)
REMARK    1  A    between atoms: N_5  and  C_23 
REMARK       I    between atoms: C_6  and  N_7 
REMARK    2  A    between atoms: C_6  and  C_23 
REMARK    3  A    between atoms: N_7  and  C_14 
REMARK    4  A    between atoms: C_12  and  C_17 
REMARK    5  A    between atoms: C_12  and  C_13 
REMARK    6  A    between atoms: C_13  and  C_14 
REMARK    7  A    between atoms: C_14  and  C_15 
REMARK    8  A    between atoms: C_17  and  C_18 
REMARK    9  A    between atoms: C_18  and  N_20 
REMARK   10  A    between atoms: C_21  and  C_22 
REMARK   11  A    between atoms: C_22  and  C_23 
ROOT
HETATM    1  O           1     -35.785  -0.086 -11.312  0.00  0.00    -0.271 OA
HETATM    2  C           1     -35.569  -0.521 -12.418  0.00  0.00     0.249 C 
HETATM    3  N           1     -35.143  -1.813 -12.575  0.00  0.00    -0.345 N 
HETATM    4  H           1     -34.963  -2.178 -13.501  0.00  0.00     0.163 HD
ENDROOT
BRANCH   3   5
HETATM    5  C           1     -34.952  -2.660 -11.413  0.00  0.00     0.185 C 
BRANCH   5   6
HETATM    6  C           1     -35.072  -4.121 -11.824  0.00  0.00     0.036 C 
BRANCH   6   7
HETATM    7  C           1     -34.972  -5.007 -10.590  0.00  0.00     0.004 C 
BRANCH   7   8
HETATM    8  C           1     -34.074  -6.199 -10.890  0.00  0.00     0.027 C 
BRANCH   8   9
HETATM    9  C           1     -34.637  -7.442 -10.213  0.00  0.00     0.229 C 
BRANCH   9  10
HETATM   10  N           1     -33.638  -8.558 -10.303  0.00  0.00    -0.079 N 
HETATM   11  H           1     -33.070  -8.587  -9.425  0.00  0.00     0.274 HD
HETATM   12  H           1     -33.009  -8.395 -11.121  0.00  0.00     0.274 HD
HETATM   13  H           1     -34.140  -9.466 -10.424  0.00  0.00     0.274 HD
ENDBRANCH   9  10
ENDBRANCH   8   9
ENDBRANCH   7   8
ENDBRANCH   6   7
ENDBRANCH   5   6
BRANCH   5  14
HETATM   14  C           1     -33.583  -2.411 -10.831  0.00  0.00     0.196 C 
HETATM   15  O           1     -33.452  -1.661  -9.840  0.00  0.00    -0.646 OA
HETATM   16  O           1     -32.578  -2.955 -11.339  0.00  0.00    -0.646 OA
ENDBRANCH   5  14
ENDBRANCH   3   5
BRANCH   2  17
HETATM   17  C           1     -35.768   0.359 -13.628  0.00  0.00     0.284 C 
BRANCH  17  18
HETATM   18  N           1     -34.454   0.552 -14.326  0.00  0.00    -0.066 N 
HETATM   19  H           1     -34.524   0.188 -15.303  0.00  0.00     0.275 HD
HETATM   20  H           1     -33.707   0.033 -13.813  0.00  0.00     0.275 HD
HETATM   21  H           1     -34.218   1.570 -14.350  0.00  0.00     0.275 HD
ENDBRANCH  17  18
BRANCH  17  22
HETATM   22  C           1     -36.757  -0.300 -14.579  0.00  0.00     0.155 C 
BRANCH  22  23
HETATM   23  C           1     -36.026  -0.793 -15.804  0.00  0.00     0.175 C 
HETATM   24  O           1     -35.242  -1.762 -15.717  0.00  0.00    -0.648 OA
HETATM   25  O           1     -36.205  -0.231 -16.906  0.00  0.00    -0.648 OA
ENDBRANCH  22  23
ENDBRANCH  17  22
ENDBRANCH   2  17
TORSDOF 11
ENDMDL
MODEL 2
REMARK VINA RESULT:      -6.3      2.509      3.077
REMARK  11 active torsions:
REMARK  status: ('A' for Active; 'I' for Inactive)
REMARK    1  A    between atoms: N_5  and  C_23 
REMARK       I    between atoms: C_6  and  N_7 
REMARK    2  A    between atoms: C_6  and  C_23 
REMARK    3  A    between atoms: N_7  and  C_14 
REMARK    4  A    between atoms: C_12  and  C_17 
REMARK    5  A    between atoms: C_12  and  C_13 
REMARK    6  A    between atoms: C_13  and  C_14 
REMARK    7  A    between atoms: C_14  and  C_15 
REMARK    8  A    between atoms: C_17  and  C_18 
REMARK    9  A    between atoms: C_18  and  N_20 
REMARK   10  A    between atoms: C_21  and  C_22 
REMARK   11  A    between atoms: C_22  and  C_23 
ROOT
HETATM    1  O           1     -37.820  -0.670 -13.707  0.00  0.00    -0.271 OA
HETATM    2  C           1     -36.669  -0.306 -13.682  0.00  0.00     0.249 C 
HETATM    3  N           1     -35.916  -0.492 -12.553  0.00  0.00    -0.345 N 
HETATM    4  H           1     -34.952  -0.188 -12.533  0.00  0.00     0.163 HD
ENDROOT
BRANCH   3   5
HETATM    5  C           1     -36.501  -1.127 -11.388  0.00  0.00     0.185 C 
BRANCH   5   6
HETATM    6  C           1     -35.530  -2.160 -10.832  0.00  0.00     0.036 C 
BRANCH   6   7
HETATM    7  C           1     -34.272  -2.188 -11.690  0.00  0.00     0.004 C 
BRANCH   7   8
HETATM    8  C           1     -33.220  -3.063 -11.021  0.00  0.00     0.027 C 
BRANCH   8   9
HETATM    9  C           1     -32.825  -4.192 -11.964  0.00  0.00     0.229 C 
BRANCH   9  10
HETATM   10  N           1     -33.529  -4.018 -13.277  0.00  0.00    -0.079 N 
HETATM   11  H           1     -34.324  -3.349 -13.160  0.00  0.00     0.274 HD
HETATM   12  H           1     -33.895  -4.941 -13.600  0.00  0.00     0.274 HD
HETATM   13  H           1     -32.858  -3.643 -13.985  0.00  0.00     0.274 HD
ENDBRANCH   9  10
ENDBRANCH   8   9
ENDBRANCH   7   8
ENDBRANCH   6   7
ENDBRANCH   5   6
BRANCH   5  14
HETATM   14  C           1     -36.784  -0.083 -10.337  0.00  0.00     0.196 C 
HETATM   15  O           1     -36.078  -0.026  -9.307  0.00  0.00    -0.646 OA
HETATM   16  O           1     -37.724   0.726 -10.495  0.00  0.00    -0.646 OA
ENDBRANCH   5  14
ENDBRANCH   3   5
BRANCH   2  17
HETATM   17  C           1     -36.060   0.355 -14.895  0.00  0.00     0.284 C 
BRANCH  17  18
HETATM   18  N           1     -34.592   0.561 -14.666  0.00  0.00    -0.066 N 
HETATM   19  H           1     -34.225   1.248 -15.363  0.00  0.00     0.275 HD
HETATM   20  H           1     -34.091  -0.349 -14.776  0.00  0.00     0.275 HD
HETATM   21  H           1     -34.438   0.929 -13.700  0.00  0.00     0.275 HD
ENDBRANCH  17  18
BRANCH  17  22
HETATM   22  C           1     -36.264  -0.534 -16.114  0.00  0.00     0.155 C 
BRANCH  22  23
HETATM   23  C           1     -35.233  -1.637 -16.111  0.00  0.00     0.175 C 
HETATM   24  O           1     -34.998  -2.271 -15.061  0.00  0.00    -0.648 OA
HETATM   25  O           1     -34.615  -1.915 -17.162  0.00  0.00    -0.648 OA
ENDBRANCH  22  23
ENDBRANCH  17  22
ENDBRANCH   2  17
TORSDOF 11
ENDMDL
MODEL 3
REMARK VINA RESULT:      -6.3      2.286      5.557
REMARK  11 active torsions:
REMARK  status: ('A' for Active; 'I' for Inactive)
REMARK    1  A    between atoms: N_5  and  C_23 
REMARK       I    between atoms: C_6  and  N_7 
REMARK    2  A    between atoms: C_6  and  C_23 
REMARK    3  A    between atoms: N_7  and  C_14 
REMARK    4  A    between atoms: C_12  and  C_17 
REMARK    5  A    between atoms: C_12  and  C_13 
REMARK    6  A    between atoms: C_13  and  C_14 
REMARK    7  A    between atoms: C_14  and  C_15 
REMARK    8  A    between atoms: C_17  and  C_18 
REMARK    9  A    between atoms: C_18  and  N_20 
REMARK   10  A    between atoms: C_21  and  C_22 
REMARK   11  A    between atoms: C_22  and  C_23 
ROOT
HETATM    1  O           1     -33.493  -1.443 -10.602  0.00  0.00    -0.271 OA
HETATM    2  C           1     -34.282  -2.269 -10.996  0.00  0.00     0.249 C 
HETATM    3  N           1     -35.479  -1.872 -11.530  0.00  0.00    -0.345 N 
HETATM    4  H           1     -36.139  -2.564 -11.861  0.00  0.00     0.163 HD
ENDROOT
BRANCH   3   5
HETATM    5  C           1     -35.800  -0.461 -11.624  0.00  0.00     0.185 C 
BRANCH   5   6
HETATM    6  C           1     -36.190  -0.124 -13.056  0.00  0.00     0.036 C 
BRANCH   6   7
HETATM    7  C           1     -34.962   0.356 -13.819  0.00  0.00     0.004 C 
BRANCH   7   8
HETATM    8  C           1     -35.369   0.785 -15.222  0.00  0.00     0.027 C 
BRANCH   8   9
HETATM    9  C           1     -36.041  -0.383 -15.934  0.00  0.00     0.229 C 
BRANCH   9  10
HETATM   10  N           1     -35.000  -1.375 -16.361  0.00  0.00    -0.079 N 
HETATM   11  H           1     -34.049  -0.996 -16.146  0.00  0.00     0.274 HD
HETATM   12  H           1     -35.084  -1.546 -17.388  0.00  0.00     0.274 HD
HETATM   13  H           1     -35.142  -2.272 -15.845  0.00  0.00     0.274 HD
ENDBRANCH   9  10
ENDBRANCH   8   9
ENDBRANCH   7   8
ENDBRANCH   6   7
ENDBRANCH   5   6
BRANCH   5  14
HETATM   14  C           1     -36.950  -0.146 -10.700  0.00  0.00     0.196 C 
HETATM   15  O           1     -38.050  -0.719 -10.853  0.00  0.00    -0.646 OA
HETATM   16  O           1     -36.804   0.689  -9.781  0.00  0.00    -0.646 OA
ENDBRANCH   5  14
ENDBRANCH   3   5
BRANCH   2  17
HETATM   17  C           1     -33.948  -3.737 -10.899  0.00  0.00     0.284 C 
BRANCH  17  18
HETATM   18  N           1     -35.211  -4.524 -10.708  0.00  0.00    -0.066 N 
HETATM   19  H           1     -35.742  -4.553 -11.607  0.00  0.00     0.275 HD
HETATM   20  H           1     -35.796  -4.071  -9.971  0.00  0.00     0.275 HD
HETATM   21  H           1     -34.973  -5.498 -10.413  0.00  0.00     0.275 HD
ENDBRANCH  17  18
BRANCH  17  22
HETATM   22  C           1     -33.258  -4.187 -12.179  0.00  0.00     0.155 C 
BRANCH  22  23
HETATM   23  C           1     -34.270  -4.262 -13.297  0.00  0.00     0.175 C 
HETATM   24  O           1     -35.012  -5.261 -13.403  0.00  0.00    -0.648 OA
HETATM   25  O           1     -34.364  -3.323 -14.117  0.00  0.00    -0.648 OA
ENDBRANCH  22  23
ENDBRANCH  17  22
ENDBRANCH   2  17
TORSDOF 11
ENDMDL
MODEL 4
REMARK VINA RESULT:      -6.1      2.530      6.502
REMARK  11 active torsions:
REMARK  status: ('A' for Active; 'I' for Inactive)
REMARK    1  A    between atoms: N_5  and  C_23 
REMARK       I    between atoms: C_6  and  N_7 
REMARK    2  A    between atoms: C_6  and  C_23 
REMARK    3  A    between atoms: N_7  and  C_14 
REMARK    4  A    between atoms: C_12  and  C_17 
REMARK    5  A    between atoms: C_12  and  C_13 
REMARK    6  A    between atoms: C_13  and  C_14 
REMARK    7  A    between atoms: C_14  and  C_15 
REMARK    8  A    between atoms: C_17  and  C_18 
REMARK    9  A    between atoms: C_18  and  N_20 
REMARK   10  A    between atoms: C_21  and  C_22 
REMARK   11  A    between atoms: C_22  and  C_23 
ROOT
HETATM    1  O           1     -33.271  -2.277 -10.924  0.00  0.00    -0.271 OA
HETATM    2  C           1     -34.102  -2.960 -11.472  0.00  0.00     0.249 C 
HETATM    3  N           1     -35.267  -2.396 -11.919  0.00  0.00    -0.345 N 
HETATM    4  H           1     -35.962  -2.968 -12.379  0.00  0.00     0.163 HD
ENDROOT
BRANCH   3   5
HETATM    5  C           1     -35.502  -0.977 -11.734  0.00  0.00     0.185 C 
BRANCH   5   6
HETATM    6  C           1     -35.974  -0.366 -13.047  0.00  0.00     0.036 C 
BRANCH   6   7
HETATM    7  C           1     -34.982   0.698 -13.498  0.00  0.00     0.004 C 
BRANCH   7   8
HETATM    8  C           1     -35.190   0.993 -14.977  0.00  0.00     0.027 C 
BRANCH   8   9
HETATM    9  C           1     -36.488   0.348 -15.446  0.00  0.00     0.229 C 
BRANCH   9  10
HETATM   10  N           1     -37.417   1.408 -15.960  0.00  0.00    -0.079 N 
HETATM   11  H           1     -37.363   1.441 -17.004  0.00  0.00     0.274 HD
HETATM   12  H           1     -37.138   2.334 -15.567  0.00  0.00     0.274 HD
HETATM   13  H           1     -38.395   1.185 -15.669  0.00  0.00     0.274 HD
ENDBRANCH   9  10
ENDBRANCH   8   9
ENDBRANCH   7   8
ENDBRANCH   6   7
ENDBRANCH   5   6
BRANCH   5  14
HETATM   14  C           1     -36.559  -0.777 -10.676  0.00  0.00     0.196 C 
HETATM   15  O           1     -37.753  -1.045 -10.928  0.00  0.00    -0.646 OA
HETATM   16  O           1     -36.241  -0.344  -9.548  0.00  0.00    -0.646 OA
ENDBRANCH   5  14
ENDBRANCH   3   5
BRANCH   2  17
HETATM   17  C           1     -33.857  -4.437 -11.665  0.00  0.00     0.284 C 
BRANCH  17  18
HETATM   18  N           1     -32.458  -4.650 -12.165  0.00  0.00    -0.066 N 
HETATM   19  H           1     -32.085  -3.751 -12.545  0.00  0.00     0.275 HD
HETATM   20  H           1     -32.464  -5.372 -12.920  0.00  0.00     0.275 HD
HETATM   21  H           1     -31.852  -4.973 -11.378  0.00  0.00     0.275 HD
ENDBRANCH  17  18
BRANCH  17  22
HETATM   22  C           1     -34.035  -5.159 -10.337  0.00  0.00     0.155 C 
BRANCH  22  23
HETATM   23  C           1     -34.638  -6.521 -10.580  0.00  0.00     0.175 C 
HETATM   24  O           1     -34.796  -7.314  -9.627  0.00  0.00    -0.648 OA
HETATM   25  O           1     -34.980  -6.855 -11.735  0.00  0.00    -0.648 OA
ENDBRANCH  22  23
ENDBRANCH  17  22
ENDBRANCH   2  17
TORSDOF 11
ENDMDL
MODEL 5
REMARK VINA RESULT:      -6.0     12.048     13.684
REMARK  11 active torsions:
REMARK  status: ('A' for Active; 'I' for Inactive)
REMARK    1  A    between atoms: N_5  and  C_23 
REMARK       I    between atoms: C_6  and  N_7 
REMARK    2  A    between atoms: C_6  and  C_23 
REMARK    3  A    between atoms: N_7  and  C_14 
REMARK    4  A    between atoms: C_12  and  C_17 
REMARK    5  A    between atoms: C_12  and  C_13 
REMARK    6  A    between atoms: C_13  and  C_14 
REMARK    7  A    between atoms: C_14  and  C_15 
REMARK    8  A    between atoms: C_17  and  C_18 
REMARK    9  A    between atoms: C_18  and  N_20 
REMARK   10  A    between atoms: C_21  and  C_22 
REMARK   11  A    between atoms: C_22  and  C_23 
ROOT
HETATM    1  O           1     -23.048  -3.167  -8.557  0.00  0.00    -0.271 OA
HETATM    2  C           1     -23.138  -4.286  -9.004  0.00  0.00     0.249 C 
HETATM    3  N           1     -22.244  -5.250  -8.622  0.00  0.00    -0.345 N 
HETATM    4  H           1     -22.320  -6.187  -8.995  0.00  0.00     0.163 HD
ENDROOT
BRANCH   3   5
HETATM    5  C           1     -21.188  -4.928  -7.681  0.00  0.00     0.185 C 
BRANCH   5   6
HETATM    6  C           1     -20.956  -6.114  -6.754  0.00  0.00     0.036 C 
BRANCH   6   7
HETATM    7  C           1     -21.929  -6.044  -5.584  0.00  0.00     0.004 C 
BRANCH   7   8
HETATM    8  C           1     -21.151  -5.891  -4.285  0.00  0.00     0.027 C 
BRANCH   8   9
HETATM    9  C           1     -21.818  -6.718  -3.193  0.00  0.00     0.229 C 
BRANCH   9  10
HETATM   10  N           1     -22.275  -5.814  -2.087  0.00  0.00    -0.079 N 
HETATM   11  H           1     -23.033  -5.187  -2.441  0.00  0.00     0.274 HD
HETATM   12  H           1     -21.470  -5.236  -1.757  0.00  0.00     0.274 HD
HETATM   13  H           1     -22.639  -6.389  -1.295  0.00  0.00     0.274 HD
ENDBRANCH   9  10
ENDBRANCH   8   9
ENDBRANCH   7   8
ENDBRANCH   6   7
ENDBRANCH   5   6
BRANCH   5  14
HETATM   14  C           1     -19.919  -4.623  -8.436  0.00  0.00     0.196 C 
HETATM   15  O           1     -18.900  -4.246  -7.819  0.00  0.00    -0.646 OA
HETATM   16  O           1     -19.886  -4.745  -9.680  0.00  0.00    -0.646 OA
ENDBRANCH   5  14
ENDBRANCH   3   5
BRANCH   2  17
HETATM   17  C           1     -24.237  -4.621  -9.983  0.00  0.00     0.284 C 
BRANCH  17  18
HETATM   18  N           1     -25.320  -3.586  -9.891  0.00  0.00    -0.066 N 
HETATM   19  H           1     -25.465  -3.151 -10.829  0.00  0.00     0.275 HD
HETATM   20  H           1     -25.041  -2.851  -9.203  0.00  0.00     0.275 HD
HETATM   21  H           1     -26.208  -4.039  -9.576  0.00  0.00     0.275 HD
ENDBRANCH  17  18
BRANCH  17  22
HETATM   22  C           1     -23.670  -4.638 -11.396  0.00  0.00     0.155 C 
BRANCH  22  23
HETATM   23  C           1     -24.014  -3.344 -12.093  0.00  0.00     0.175 C 
HETATM   24  O           1     -25.083  -3.243 -12.731  0.00  0.00    -0.648 OA
HETATM   25  O           1     -23.228  -2.373 -12.030  0.00  0.00    -0.648 OA
ENDBRANCH  22  23
ENDBRANCH  17  22
ENDBRANCH   2  17
TORSDOF 11
ENDMDL
MODEL 6
REMARK VINA RESULT:      -5.9      8.971      9.809
REMARK  11 active torsions:
REMARK  status: ('A' for Active; 'I' for Inactive)
REMARK    1  A    between atoms: N_5  and  C_23 
REMARK       I    between atoms: C_6  and  N_7 
REMARK    2  A    between atoms: C_6  and  C_23 
REMARK    3  A    between atoms: N_7  and  C_14 
REMARK    4  A    between atoms: C_12  and  C_17 
REMARK    5  A    between atoms: C_12  and  C_13 
REMARK    6  A    between atoms: C_13  and  C_14 
REMARK    7  A    between atoms: C_14  and  C_15 
REMARK    8  A    between atoms: C_17  and  C_18 
REMARK    9  A    between atoms: C_18  and  N_20 
REMARK   10  A    between atoms: C_21  and  C_22 
REMARK   11  A    between atoms: C_22  and  C_23 
ROOT
HETATM    1  O           1     -30.648  -7.865 -17.973  0.00  0.00    -0.271 OA
HETATM    2  C           1     -30.681  -6.662 -17.864  0.00  0.00     0.249 C 
HETATM    3  N           1     -29.523  -5.936 -17.941  0.00  0.00    -0.345 N 
HETATM    4  H           1     -29.551  -4.928 -17.851  0.00  0.00     0.163 HD
ENDROOT
BRANCH   3   5
HETATM    5  C           1     -28.257  -6.610 -18.154  0.00  0.00     0.185 C 
BRANCH   5   6
HETATM    6  C           1     -27.551  -5.995 -19.355  0.00  0.00     0.036 C 
BRANCH   6   7
HETATM    7  C           1     -26.843  -7.089 -20.144  0.00  0.00     0.004 C 
BRANCH   7   8
HETATM    8  C           1     -25.456  -6.609 -20.547  0.00  0.00     0.027 C 
BRANCH   8   9
HETATM    9  C           1     -24.407  -7.571 -20.001  0.00  0.00     0.229 C 
BRANCH   9  10
HETATM   10  N           1     -24.274  -7.379 -18.519  0.00  0.00    -0.079 N 
HETATM   11  H           1     -24.846  -8.100 -18.023  0.00  0.00     0.274 HD
HETATM   12  H           1     -24.614  -6.426 -18.261  0.00  0.00     0.274 HD
HETATM   13  H           1     -23.272  -7.479 -18.244  0.00  0.00     0.274 HD
ENDBRANCH   9  10
ENDBRANCH   8   9
ENDBRANCH   7   8
ENDBRANCH   6   7
ENDBRANCH   5   6
BRANCH   5  14
HETATM   14  C           1     -27.393  -6.454 -16.927  0.00  0.00     0.196 C 
HETATM   15  O           1     -27.696  -7.047 -15.870  0.00  0.00    -0.646 OA
HETATM   16  O           1     -26.374  -5.730 -16.967  0.00  0.00    -0.646 OA
ENDBRANCH   5  14
ENDBRANCH   3   5
BRANCH   2  17
HETATM   17  C           1     -31.999  -5.961 -17.643  0.00  0.00     0.284 C 
BRANCH  17  18
HETATM   18  N           1     -33.011  -6.948 -17.139  0.00  0.00    -0.066 N 
HETATM   19  H           1     -33.971  -6.622 -17.395  0.00  0.00     0.275 HD
HETATM   20  H           1     -32.934  -7.026 -16.100  0.00  0.00     0.275 HD
HETATM   21  H           1     -32.833  -7.881 -17.573  0.00  0.00     0.275 HD
ENDBRANCH  17  18
BRANCH  17  22
HETATM   22  C           1     -31.818  -4.851 -16.617  0.00  0.00     0.155 C 
BRANCH  22  23
HETATM   23  C           1     -32.010  -3.511 -17.284  0.00  0.00     0.175 C 
HETATM   24  O           1     -33.153  -3.014 -17.371  0.00  0.00    -0.648 OA
HETATM   25  O           1     -31.024  -2.898 -17.748  0.00  0.00    -0.648 OA
ENDBRANCH  22  23
ENDBRANCH  17  22
ENDBRANCH   2  17
TORSDOF 11
ENDMDL
MODEL 7
REMARK VINA RESULT:      -5.6     13.127     14.990
REMARK  11 active torsions:
REMARK  status: ('A' for Active; 'I' for Inactive)
REMARK    1  A    between atoms: N_5  and  C_23 
REMARK       I    between atoms: C_6  and  N_7 
REMARK    2  A    between atoms: C_6  and  C_23 
REMARK    3  A    between atoms: N_7  and  C_14 
REMARK    4  A    between atoms: C_12  and  C_17 
REMARK    5  A    between atoms: C_12  and  C_13 
REMARK    6  A    between atoms: C_13  and  C_14 
REMARK    7  A    between atoms: C_14  and  C_15 
REMARK    8  A    between atoms: C_17  and  C_18 
REMARK    9  A    between atoms: C_18  and  N_20 
REMARK   10  A    between atoms: C_21  and  C_22 
REMARK   11  A    between atoms: C_22  and  C_23 
ROOT
HETATM    1  O           1     -20.142  -4.199  -7.021  0.00  0.00    -0.271 OA
HETATM    2  C           1     -21.320  -4.425  -7.157  0.00  0.00     0.249 C 
HETATM    3  N           1     -21.939  -5.344  -6.352  0.00  0.00    -0.345 N 
HETATM    4  H           1     -22.927  -5.532  -6.466  0.00  0.00     0.163 HD
ENDROOT
BRANCH   3   5
HETATM    5  C           1     -21.179  -6.047  -5.337  0.00  0.00     0.185 C 
BRANCH   5   6
HETATM    6  C           1     -22.087  -6.370  -4.157  0.00  0.00     0.036 C 
BRANCH   6   7
HETATM    7  C           1     -21.347  -6.094  -2.855  0.00  0.00     0.004 C 
BRANCH   7   8
HETATM    8  C           1     -22.264  -6.389  -1.676  0.00  0.00     0.027 C 
BRANCH   8   9
HETATM    9  C           1     -21.901  -7.742  -1.077  0.00  0.00     0.229 C 
BRANCH   9  10
HETATM   10  N           1     -22.141  -7.715   0.404  0.00  0.00    -0.079 N 
HETATM   11  H           1     -22.976  -8.301   0.632  0.00  0.00     0.274 HD
HETATM   12  H           1     -22.311  -6.731   0.709  0.00  0.00     0.274 HD
HETATM   13  H           1     -21.303  -8.094   0.899  0.00  0.00     0.274 HD
ENDBRANCH   9  10
ENDBRANCH   8   9
ENDBRANCH   7   8
ENDBRANCH   6   7
ENDBRANCH   5   6
BRANCH   5  14
HETATM   14  C           1     -20.631  -7.327  -5.916  0.00  0.00     0.196 C 
HETATM   15  O           1     -21.334  -8.360  -5.928  0.00  0.00    -0.646 OA
HETATM   16  O           1     -19.472  -7.355  -6.384  0.00  0.00    -0.646 OA
ENDBRANCH   5  14
ENDBRANCH   3   5
BRANCH   2  17
HETATM   17  C           1     -22.111  -3.694  -8.214  0.00  0.00     0.284 C 
BRANCH  17  18
HETATM   18  N           1     -21.482  -3.925  -9.557  0.00  0.00    -0.066 N 
HETATM   19  H           1     -22.185  -4.354 -10.201  0.00  0.00     0.275 HD
HETATM   20  H           1     -20.666  -4.568  -9.453  0.00  0.00     0.275 HD
HETATM   21  H           1     -21.159  -3.013  -9.952  0.00  0.00     0.275 HD
ENDBRANCH  17  18
BRANCH  17  22
HETATM   22  C           1     -23.542  -4.213  -8.228  0.00  0.00     0.155 C 
BRANCH  22  23
HETATM   23  C           1     -24.102  -4.112  -9.626  0.00  0.00     0.175 C 
HETATM   24  O           1     -24.060  -5.099 -10.390  0.00  0.00    -0.648 OA
HETATM   25  O           1     -24.608  -3.038 -10.019  0.00  0.00    -0.648 OA
ENDBRANCH  22  23
ENDBRANCH  17  22
ENDBRANCH   2  17
TORSDOF 11
ENDMDL
MODEL 8
REMARK VINA RESULT:      -5.5     14.109     15.816
REMARK  11 active torsions:
REMARK  status: ('A' for Active; 'I' for Inactive)
REMARK    1  A    between atoms: N_5  and  C_23 
REMARK       I    between atoms: C_6  and  N_7 
REMARK    2  A    between atoms: C_6  and  C_23 
REMARK    3  A    between atoms: N_7  and  C_14 
REMARK    4  A    between atoms: C_12  and  C_17 
REMARK    5  A    between atoms: C_12  and  C_13 
REMARK    6  A    between atoms: C_13  and  C_14 
REMARK    7  A    between atoms: C_14  and  C_15 
REMARK    8  A    between atoms: C_17  and  C_18 
REMARK    9  A    between atoms: C_18  and  N_20 
REMARK   10  A    between atoms: C_21  and  C_22 
REMARK   11  A    between atoms: C_22  and  C_23 
ROOT
HETATM    1  O           1     -20.087  -4.489  -6.534  0.00  0.00    -0.271 OA
HETATM    2  C           1     -20.955  -5.149  -7.054  0.00  0.00     0.249 C 
HETATM    3  N           1     -21.443  -6.259  -6.418  0.00  0.00    -0.345 N 
HETATM    4  H           1     -22.171  -6.812  -6.853  0.00  0.00     0.163 HD
ENDROOT
BRANCH   3   5
HETATM    5  C           1     -20.918  -6.642  -5.122  0.00  0.00     0.185 C 
BRANCH   5   6
HETATM    6  C           1     -22.003  -6.476  -4.066  0.00  0.00     0.036 C 
BRANCH   6   7
HETATM    7  C           1     -21.369  -6.060  -2.745  0.00  0.00     0.004 C 
BRANCH   7   8
HETATM    8  C           1     -22.250  -6.519  -1.591  0.00  0.00     0.027 C 
BRANCH   8   9
HETATM    9  C           1     -21.747  -7.860  -1.071  0.00  0.00     0.229 C 
BRANCH   9  10
HETATM   10  N           1     -20.320  -8.057  -1.491  0.00  0.00    -0.079 N 
HETATM   11  H           1     -19.737  -7.274  -1.118  0.00  0.00     0.274 HD
HETATM   12  H           1     -20.264  -8.070  -2.533  0.00  0.00     0.274 HD
HETATM   13  H           1     -19.968  -8.965  -1.111  0.00  0.00     0.274 HD
ENDBRANCH   9  10
ENDBRANCH   8   9
ENDBRANCH   7   8
ENDBRANCH   6   7
ENDBRANCH   5   6
BRANCH   5  14
HETATM   14  C           1     -20.474  -8.083  -5.165  0.00  0.00     0.196 C 
HETATM   15  O           1     -21.071  -8.899  -5.900  0.00  0.00    -0.646 OA
HETATM   16  O           1     -19.509  -8.462  -4.467  0.00  0.00    -0.646 OA
ENDBRANCH   5  14
ENDBRANCH   3   5
BRANCH   2  17
HETATM   17  C           1     -21.501  -4.751  -8.403  0.00  0.00     0.284 C 
BRANCH  17  18
HETATM   18  N           1     -22.453  -3.602  -8.237  0.00  0.00    -0.066 N 
HETATM   19  H           1     -23.318  -3.785  -8.794  0.00  0.00     0.275 HD
HETATM   20  H           1     -22.000  -2.723  -8.572  0.00  0.00     0.275 HD
HETATM   21  H           1     -22.704  -3.501  -7.227  0.00  0.00     0.275 HD
ENDBRANCH  17  18
BRANCH  17  22
HETATM   22  C           1     -20.354  -4.331  -9.312  0.00  0.00     0.155 C 
BRANCH  22  23
HETATM   23  C           1     -20.897  -3.951 -10.668  0.00  0.00     0.175 C 
HETATM   24  O           1     -21.872  -4.569 -11.146  0.00  0.00    -0.648 OA
HETATM   25  O           1     -20.371  -3.018 -11.312  0.00  0.00    -0.648 OA
ENDBRANCH  22  23
ENDBRANCH  17  22
ENDBRANCH   2  17
TORSDOF 11
ENDMDL
MODEL 9
REMARK VINA RESULT:      -5.5     14.181     16.502
REMARK  11 active torsions:
REMARK  status: ('A' for Active; 'I' for Inactive)
REMARK    1  A    between atoms: N_5  and  C_23 
REMARK       I    between atoms: C_6  and  N_7 
REMARK    2  A    between atoms: C_6  and  C_23 
REMARK    3  A    between atoms: N_7  and  C_14 
REMARK    4  A    between atoms: C_12  and  C_17 
REMARK    5  A    between atoms: C_12  and  C_13 
REMARK    6  A    between atoms: C_13  and  C_14 
REMARK    7  A    between atoms: C_14  and  C_15 
REMARK    8  A    between atoms: C_17  and  C_18 
REMARK    9  A    between atoms: C_18  and  N_20 
REMARK   10  A    between atoms: C_21  and  C_22 
REMARK   11  A    between atoms: C_22  and  C_23 
ROOT
HETATM    1  O           1     -21.074  -7.605  -6.459  0.00  0.00    -0.271 OA
HETATM    2  C           1     -21.604  -6.797  -5.734  0.00  0.00     0.249 C 
HETATM    3  N           1     -21.804  -5.514  -6.170  0.00  0.00    -0.345 N 
HETATM    4  H           1     -22.249  -4.837  -5.564  0.00  0.00     0.163 HD
ENDROOT
BRANCH   3   5
HETATM    5  C           1     -21.380  -5.126  -7.501  0.00  0.00     0.185 C 
BRANCH   5   6
HETATM    6  C           1     -22.406  -4.174  -8.103  0.00  0.00     0.036 C 
BRANCH   6   7
HETATM    7  C           1     -22.836  -4.689  -9.471  0.00  0.00     0.004 C 
BRANCH   7   8
HETATM    8  C           1     -22.585  -3.615 -10.520  0.00  0.00     0.027 C 
BRANCH   8   9
HETATM    9  C           1     -21.630  -4.152 -11.578  0.00  0.00     0.229 C 
BRANCH   9  10
HETATM   10  N           1     -20.297  -3.478 -11.438  0.00  0.00    -0.079 N 
HETATM   11  H           1     -20.050  -3.403 -10.425  0.00  0.00     0.274 HD
HETATM   12  H           1     -20.346  -2.523 -11.857  0.00  0.00     0.274 HD
HETATM   13  H           1     -19.569  -4.040 -11.935  0.00  0.00     0.274 HD
ENDBRANCH   9  10
ENDBRANCH   8   9
ENDBRANCH   7   8
ENDBRANCH   6   7
ENDBRANCH   5   6
BRANCH   5  14
HETATM   14  C           1     -20.040  -4.437  -7.420  0.00  0.00     0.196 C 
HETATM   15  O           1     -19.629  -3.754  -8.383  0.00  0.00    -0.646 OA
HETATM   16  O           1     -19.341  -4.549  -6.390  0.00  0.00    -0.646 OA
ENDBRANCH   5  14
ENDBRANCH   3   5
BRANCH   2  17
HETATM   17  C           1     -22.046  -7.200  -4.349  0.00  0.00     0.284 C 
BRANCH  17  18
HETATM   18  N           1     -21.607  -8.609  -4.076  0.00  0.00    -0.066 N 
HETATM   19  H           1     -20.644  -8.601  -3.672  0.00  0.00     0.275 HD
HETATM   20  H           1     -21.607  -9.153  -4.969  0.00  0.00     0.275 HD
HETATM   21  H           1     -22.266  -9.054  -3.398  0.00  0.00     0.275 HD
ENDBRANCH  17  18
BRANCH  17  22
HETATM   22  C           1     -21.418  -6.267  -3.323  0.00  0.00     0.155 C 
BRANCH  22  23
HETATM   23  C           1     -21.625  -6.827  -1.937  0.00  0.00     0.175 C 
HETATM   24  O           1     -22.612  -6.470  -1.259  0.00  0.00    -0.648 OA
HETATM   25  O           1     -20.809  -7.650  -1.469  0.00  0.00    -0.648 OA
ENDBRANCH  22  23
ENDBRANCH  17  22
ENDBRANCH   2  17
TORSDOF 11
ENDMDL
