MODEL 1
REMARK VINA RESULT:      -6.5      0.000      0.000
REMARK  7 active torsions:
REMARK  status: ('A' for Active; 'I' for Inactive)
REMARK    1  A    between atoms: C_3  and  C_4 
REMARK    2  A    between atoms: C_3  and  N_5 
REMARK    3  A    between atoms: C_4  and  C_18 
REMARK       I    between atoms: N_10  and  C_11 
REMARK    4  A    between atoms: C_11  and  C_19 
REMARK    5  A    between atoms: N_17  and  C_19 
REMARK    6  A    between atoms: C_18  and  C_19 
REMARK    7  A    between atoms: C_20  and  C_21 
ROOT
HETATM    1  C           1     -36.073  -0.158 -13.275  0.00  0.00     0.275 C 
ENDROOT
BRANCH   1   2
HETATM    2  C           1     -35.234  -1.396 -13.477  0.00  0.00     0.251 C 
HETATM    3  N           1     -34.789  -2.105 -12.394  0.00  0.00    -0.336 N 
HETATM    4  C           1     -35.026  -1.816 -10.982  0.00  0.00     0.127 C 
HETATM    5  C           1     -33.974  -3.317 -12.398  0.00  0.00     0.188 C 
HETATM    6  C           1     -33.693  -2.116 -10.321  0.00  0.00     0.022 C 
HETATM    7  C           1     -32.998  -3.100 -11.255  0.00  0.00     0.038 C 
HETATM    8  O           1     -34.955  -1.762 -14.594  0.00  0.00    -0.271 OA
BRANCH   5   9
HETATM    9  C           1     -34.826  -4.539 -12.153  0.00  0.00     0.196 C 
HETATM   10  O           1     -35.105  -4.883 -10.985  0.00  0.00    -0.646 OA
HETATM   11  O           1     -35.252  -5.206 -13.120  0.00  0.00    -0.646 OA
ENDBRANCH   5   9
ENDBRANCH   1   2
BRANCH   1  12
HETATM   12  N           1     -35.433   0.999 -13.983  0.00  0.00    -0.067 N 
HETATM   13  H           1     -34.683   1.405 -13.378  0.00  0.00     0.275 HD
HETATM   14  H           1     -35.016   0.669 -14.882  0.00  0.00     0.275 HD
HETATM   15  H           1     -36.154   1.729 -14.180  0.00  0.00     0.275 HD
ENDBRANCH   1  12
BRANCH   1  16
HETATM   16  C           1     -37.467  -0.391 -13.842  0.00  0.00     0.044 C 
BRANCH  16  17
HETATM   17  C           1     -37.613   0.361 -15.158  0.00  0.00     0.030 C 
BRANCH  17  18
HETATM   18  C           1     -37.741  -0.635 -16.302  0.00  0.00     0.230 C 
BRANCH  18  19
HETATM   19  N           1     -36.447  -0.699 -17.059  0.00  0.00    -0.079 N 
HETATM   20  H           1     -35.875   0.148 -16.840  0.00  0.00     0.274 HD
HETATM   21  H           1     -35.920  -1.556 -16.778  0.00  0.00     0.274 HD
HETATM   22  H           1     -36.645  -0.732 -18.084  0.00  0.00     0.274 HD
ENDBRANCH  18  19
ENDBRANCH  17  18
ENDBRANCH  16  17
ENDBRANCH   1  16
TORSDOF 7
ENDMDL
MODEL 2
REMARK VINA RESULT:      -5.9     12.468     14.369
REMARK  7 active torsions:
REMARK  status: ('A' for Active; 'I' for Inactive)
REMARK    1  A    between atoms: C_3  and  C_4 
REMARK    2  A    between atoms: C_3  and  N_5 
REMARK    3  A    between atoms: C_4  and  C_18 
REMARK       I    between atoms: N_10  and  C_11 
REMARK    4  A    between atoms: C_11  and  C_19 
REMARK    5  A    between atoms: N_17  and  C_19 
REMARK    6  A    between atoms: C_18  and  C_19 
REMARK    7  A    between atoms: C_20  and  C_21 
ROOT
HETATM    1  C           1     -21.748  -3.176 -10.767  0.00  0.00     0.275 C 
ENDROOT
BRANCH   1   2
HETATM    2  C           1     -22.010  -4.361  -9.870  0.00  0.00     0.251 C 
HETATM    3  N           1     -21.303  -4.510  -8.708  0.00  0.00    -0.336 N 
HETATM    4  C           1     -20.264  -3.629  -8.179  0.00  0.00     0.127 C 
HETATM    5  C           1     -21.421  -5.583  -7.725  0.00  0.00     0.188 C 
HETATM    6  C           1     -19.223  -4.585  -7.626  0.00  0.00     0.022 C 
HETATM    7  C           1     -19.982  -5.874  -7.332  0.00  0.00     0.038 C 
HETATM    8  O           1     -22.845  -5.179 -10.177  0.00  0.00    -0.271 OA
BRANCH   5   9
HETATM    9  C           1     -22.224  -5.133  -6.530  0.00  0.00     0.196 C 
HETATM   10  O           1     -21.780  -5.309  -5.375  0.00  0.00    -0.646 OA
HETATM   11  O           1     -23.334  -4.583  -6.696  0.00  0.00    -0.646 OA
ENDBRANCH   5   9
ENDBRANCH   1   2
BRANCH   1  12
HETATM   12  N           1     -20.625  -3.501 -11.707  0.00  0.00    -0.067 N 
HETATM   13  H           1     -20.983  -4.107 -12.479  0.00  0.00     0.275 HD
HETATM   14  H           1     -20.240  -2.617 -12.107  0.00  0.00     0.275 HD
HETATM   15  H           1     -19.872  -4.006 -11.188  0.00  0.00     0.275 HD
ENDBRANCH   1  12
BRANCH   1  16
HETATM   16  C           1     -23.004  -2.858 -11.567  0.00  0.00     0.044 C 
BRANCH  16  17
HETATM   17  C           1     -22.738  -3.098 -13.047  0.00  0.00     0.030 C 
BRANCH  17  18
HETATM   18  C           1     -23.645  -2.200 -13.879  0.00  0.00     0.230 C 
BRANCH  18  19
HETATM   19  N           1     -23.033  -1.988 -15.234  0.00  0.00    -0.079 N 
HETATM   20  H           1     -22.371  -1.180 -15.193  0.00  0.00     0.274 HD
HETATM   21  H           1     -22.515  -2.848 -15.522  0.00  0.00     0.274 HD
HETATM   22  H           1     -23.788  -1.787 -15.927  0.00  0.00     0.274 HD
ENDBRANCH  18  19
ENDBRANCH  17  18
ENDBRANCH  16  17
ENDBRANCH   1  16
TORSDOF 7
ENDMDL
MODEL 3
REMARK VINA RESULT:      -5.9     12.801     15.554
REMARK  7 active torsions:
REMARK  status: ('A' for Active; 'I' for Inactive)
REMARK    1  A    between atoms: C_3  and  C_4 
REMARK    2  A    between atoms: C_3  and  N_5 
REMARK    3  A    between atoms: C_4  and  C_18 
REMARK       I    between atoms: N_10  and  C_11 
REMARK    4  A    between atoms: C_11  and  C_19 
REMARK    5  A    between atoms: N_17  and  C_19 
REMARK    6  A    between atoms: C_18  and  C_19 
REMARK    7  A    between atoms: C_20  and  C_21 
ROOT
HETATM    1  C           1     -21.587  -4.161  -7.000  0.00  0.00     0.275 C 
ENDROOT
BRANCH   1   2
HETATM    2  C           1     -21.329  -4.574  -8.428  0.00  0.00     0.251 C 
HETATM    3  N           1     -22.210  -4.219  -9.413  0.00  0.00    -0.336 N 
HETATM    4  C           1     -23.443  -3.449  -9.269  0.00  0.00     0.127 C 
HETATM    5  C           1     -22.124  -4.528 -10.838  0.00  0.00     0.188 C 
HETATM    6  C           1     -24.422  -4.153 -10.192  0.00  0.00     0.022 C 
HETATM    7  C           1     -23.554  -4.868 -11.222  0.00  0.00     0.038 C 
HETATM    8  O           1     -20.344  -5.218  -8.702  0.00  0.00    -0.271 OA
BRANCH   5   9
HETATM    9  C           1     -21.627  -3.335 -11.617  0.00  0.00     0.196 C 
HETATM   10  O           1     -22.287  -2.902 -12.586  0.00  0.00    -0.646 OA
HETATM   11  O           1     -20.555  -2.780 -11.293  0.00  0.00    -0.646 OA
ENDBRANCH   5   9
ENDBRANCH   1   2
BRANCH   1  12
HETATM   12  N           1     -22.827  -4.840  -6.500  0.00  0.00    -0.067 N 
HETATM   13  H           1     -22.597  -5.405  -5.651  0.00  0.00     0.275 HD
HETATM   14  H           1     -23.544  -4.121  -6.257  0.00  0.00     0.275 HD
HETATM   15  H           1     -23.204  -5.469  -7.245  0.00  0.00     0.275 HD
ENDBRANCH   1  12
BRANCH   1  16
HETATM   16  C           1     -20.403  -4.566  -6.132  0.00  0.00     0.044 C 
BRANCH  16  17
HETATM   17  C           1     -20.830  -5.666  -5.170  0.00  0.00     0.030 C 
BRANCH  17  18
HETATM   18  C           1     -20.162  -6.976  -5.565  0.00  0.00     0.230 C 
BRANCH  18  19
HETATM   19  N           1     -21.208  -7.960  -6.002  0.00  0.00    -0.079 N 
HETATM   20  H           1     -22.067  -7.833  -5.421  0.00  0.00     0.274 HD
HETATM   21  H           1     -21.440  -7.799  -7.007  0.00  0.00     0.274 HD
HETATM   22  H           1     -20.843  -8.931  -5.879  0.00  0.00     0.274 HD
ENDBRANCH  18  19
ENDBRANCH  17  18
ENDBRANCH  16  17
ENDBRANCH   1  16
TORSDOF 7
ENDMDL
MODEL 4
REMARK VINA RESULT:      -5.8     13.128     15.738
REMARK  7 active torsions:
REMARK  status: ('A' for Active; 'I' for Inactive)
REMARK    1  A    between atoms: C_3  and  C_4 
REMARK    2  A    between atoms: C_3  and  N_5 
REMARK    3  A    between atoms: C_4  and  C_18 
REMARK       I    between atoms: N_10  and  C_11 
REMARK    4  A    between atoms: C_11  and  C_19 
REMARK    5  A    between atoms: N_17  and  C_19 
REMARK    6  A    between atoms: C_18  and  C_19 
REMARK    7  A    between atoms: C_20  and  C_21 
ROOT
HETATM    1  C           1     -20.662  -5.419  -7.404  0.00  0.00     0.275 C 
ENDROOT
BRANCH   1   2
HETATM    2  C           1     -21.714  -4.600  -8.110  0.00  0.00     0.251 C 
HETATM    3  N           1     -21.616  -4.374  -9.456  0.00  0.00    -0.336 N 
HETATM    4  C           1     -20.571  -4.843 -10.363  0.00  0.00     0.127 C 
HETATM    5  C           1     -22.532  -3.612 -10.300  0.00  0.00     0.188 C 
HETATM    6  C           1     -20.323  -3.655 -11.276  0.00  0.00     0.022 C 
HETATM    7  C           1     -21.611  -2.842 -11.231  0.00  0.00     0.038 C 
HETATM    8  O           1     -22.644  -4.144  -7.488  0.00  0.00    -0.271 OA
BRANCH   5   9
HETATM    9  C           1     -23.437  -4.533 -11.081  0.00  0.00     0.196 C 
HETATM   10  O           1     -23.983  -5.503 -10.512  0.00  0.00    -0.646 OA
HETATM   11  O           1     -23.641  -4.326 -12.296  0.00  0.00    -0.646 OA
ENDBRANCH   5   9
ENDBRANCH   1   2
BRANCH   1  12
HETATM   12  N           1     -19.697  -4.503  -6.713  0.00  0.00    -0.067 N 
HETATM   13  H           1     -20.228  -3.804  -6.144  0.00  0.00     0.275 HD
HETATM   14  H           1     -19.074  -5.060  -6.087  0.00  0.00     0.275 HD
HETATM   15  H           1     -19.119  -4.003  -7.426  0.00  0.00     0.275 HD
ENDBRANCH   1  12
BRANCH   1  16
HETATM   16  C           1     -21.329  -6.323  -6.375  0.00  0.00     0.044 C 
BRANCH  16  17
HETATM   17  C           1     -20.993  -5.832  -4.973  0.00  0.00     0.030 C 
BRANCH  17  18
HETATM   18  C           1     -21.583  -6.787  -3.944  0.00  0.00     0.230 C 
BRANCH  18  19
HETATM   19  N           1     -22.115  -6.003  -2.780  0.00  0.00    -0.079 N 
HETATM   20  H           1     -21.351  -5.857  -2.081  0.00  0.00     0.274 HD
HETATM   21  H           1     -22.463  -5.075  -3.113  0.00  0.00     0.274 HD
HETATM   22  H           1     -22.900  -6.530  -2.336  0.00  0.00     0.274 HD
ENDBRANCH  18  19
ENDBRANCH  17  18
ENDBRANCH  16  17
ENDBRANCH   1  16
TORSDOF 7
ENDMDL
MODEL 5
REMARK VINA RESULT:      -5.8      2.147      4.997
REMARK  7 active torsions:
REMARK  status: ('A' for Active; 'I' for Inactive)
REMARK    1  A    between atoms: C_3  and  C_4 
REMARK    2  A    between atoms: C_3  and  N_5 
REMARK    3  A    between atoms: C_4  and  C_18 
REMARK       I    between atoms: N_10  and  C_11 
REMARK    4  A    between atoms: C_11  and  C_19 
REMARK    5  A    between atoms: N_17  and  C_19 
REMARK    6  A    between atoms: C_18  and  C_19 
REMARK    7  A    between atoms: C_20  and  C_21 
ROOT
HETATM    1  C           1     -35.709  -0.400 -11.460  0.00  0.00     0.275 C 
ENDROOT
BRANCH   1   2
HETATM    2  C           1     -36.517  -0.409 -12.734  0.00  0.00     0.251 C 
HETATM    3  N           1     -35.998   0.134 -13.878  0.00  0.00    -0.336 N 
HETATM    4  C           1     -34.690   0.761 -14.051  0.00  0.00     0.127 C 
HETATM    5  C           1     -36.630   0.213 -15.192  0.00  0.00     0.188 C 
HETATM    6  C           1     -34.975   1.956 -14.944  0.00  0.00     0.022 C 
HETATM    7  C           1     -36.255   1.598 -15.691  0.00  0.00     0.038 C 
HETATM    8  O           1     -37.622  -0.897 -12.745  0.00  0.00    -0.271 OA
BRANCH   5   9
HETATM    9  C           1     -36.091  -0.854 -16.113  0.00  0.00     0.196 C 
HETATM   10  O           1     -35.385  -1.778 -15.655  0.00  0.00    -0.646 OA
HETATM   11  O           1     -36.353  -0.815 -17.335  0.00  0.00    -0.646 OA
ENDBRANCH   5   9
ENDBRANCH   1   2
BRANCH   1  12
HETATM   12  N           1     -36.483   0.300 -10.383  0.00  0.00    -0.067 N 
HETATM   13  H           1     -37.291  -0.296 -10.092  0.00  0.00     0.275 HD
HETATM   14  H           1     -35.862   0.471  -9.562  0.00  0.00     0.275 HD
HETATM   15  H           1     -36.838   1.213 -10.748  0.00  0.00     0.275 HD
ENDBRANCH   1  12
BRANCH   1  16
HETATM   16  C           1     -35.423  -1.832 -11.029  0.00  0.00     0.044 C 
BRANCH  16  17
HETATM   17  C           1     -33.918  -2.057 -10.977  0.00  0.00     0.030 C 
BRANCH  17  18
HETATM   18  C           1     -33.557  -3.280 -11.811  0.00  0.00     0.230 C 
BRANCH  18  19
HETATM   19  N           1     -34.255  -3.206 -13.137  0.00  0.00    -0.079 N 
HETATM   20  H           1     -34.245  -4.149 -13.588  0.00  0.00     0.274 HD
HETATM   21  H           1     -35.244  -2.899 -12.995  0.00  0.00     0.274 HD
HETATM   22  H           1     -33.762  -2.520 -13.751  0.00  0.00     0.274 HD
ENDBRANCH  18  19
ENDBRANCH  17  18
ENDBRANCH  16  17
ENDBRANCH   1  16
TORSDOF 7
ENDMDL
MODEL 6
REMARK VINA RESULT:      -5.6      1.802      3.019
REMARK  7 active torsions:
REMARK  status: ('A' for Active; 'I' for Inactive)
REMARK    1  A    between atoms: C_3  and  C_4 
REMARK    2  A    between atoms: C_3  and  N_5 
REMARK    3  A    between atoms: C_4  and  C_18 
REMARK       I    between atoms: N_10  and  C_11 
REMARK    4  A    between atoms: C_11  and  C_19 
REMARK    5  A    between atoms: N_17  and  C_19 
REMARK    6  A    between atoms: C_18  and  C_19 
REMARK    7  A    between atoms: C_20  and  C_21 
ROOT
HETATM    1  C           1     -35.359  -0.069 -12.596  0.00  0.00     0.275 C 
ENDROOT
BRANCH   1   2
HETATM    2  C           1     -35.052  -1.445 -13.134  0.00  0.00     0.251 C 
HETATM    3  N           1     -34.444  -2.373 -12.333  0.00  0.00    -0.336 N 
HETATM    4  C           1     -34.022  -2.210 -10.944  0.00  0.00     0.127 C 
HETATM    5  C           1     -34.073  -3.742 -12.680  0.00  0.00     0.188 C 
HETATM    6  C           1     -32.681  -2.920 -10.885  0.00  0.00     0.022 C 
HETATM    7  C           1     -32.712  -3.925 -12.031  0.00  0.00     0.038 C 
HETATM    8  O           1     -35.344  -1.728 -14.272  0.00  0.00    -0.271 OA
BRANCH   5   9
HETATM    9  C           1     -35.071  -4.727 -12.123  0.00  0.00     0.196 C 
HETATM   10  O           1     -35.150  -5.878 -12.604  0.00  0.00    -0.646 OA
HETATM   11  O           1     -35.818  -4.392 -11.179  0.00  0.00    -0.646 OA
ENDBRANCH   5   9
ENDBRANCH   1   2
BRANCH   1  12
HETATM   12  N           1     -35.010   0.960 -13.629  0.00  0.00    -0.067 N 
HETATM   13  H           1     -34.022   1.271 -13.490  0.00  0.00     0.275 HD
HETATM   14  H           1     -35.115   0.545 -14.582  0.00  0.00     0.275 HD
HETATM   15  H           1     -35.651   1.780 -13.534  0.00  0.00     0.275 HD
ENDBRANCH   1  12
BRANCH   1  16
HETATM   16  C           1     -36.843   0.027 -12.265  0.00  0.00     0.044 C 
BRANCH  16  17
HETATM   17  C           1     -37.078  -0.451 -10.839  0.00  0.00     0.030 C 
BRANCH  17  18
HETATM   18  C           1     -37.574   0.710  -9.988  0.00  0.00     0.230 C 
BRANCH  18  19
HETATM   19  N           1     -36.446   1.230  -9.144  0.00  0.00    -0.079 N 
HETATM   20  H           1     -36.821   1.549  -8.222  0.00  0.00     0.274 HD
HETATM   21  H           1     -35.746   0.470  -8.991  0.00  0.00     0.274 HD
HETATM   22  H           1     -35.988   2.032  -9.633  0.00  0.00     0.274 HD
ENDBRANCH  18  19
ENDBRANCH  17  18
ENDBRANCH  16  17
ENDBRANCH   1  16
TORSDOF 7
ENDMDL
MODEL 7
REMARK VINA RESULT:      -5.6     12.427     13.565
REMARK  7 active torsions:
REMARK  status: ('A' for Active; 'I' for Inactive)
REMARK    1  A    between atoms: C_3  and  C_4 
REMARK    2  A    between atoms: C_3  and  N_5 
REMARK    3  A    between atoms: C_4  and  C_18 
REMARK       I    between atoms: N_10  and  C_11 
REMARK    4  A    between atoms: C_11  and  C_19 
REMARK    5  A    between atoms: N_17  and  C_19 
REMARK    6  A    between atoms: C_18  and  C_19 
REMARK    7  A    between atoms: C_20  and  C_21 
ROOT
HETATM    1  C           1     -23.243  -3.608 -12.415  0.00  0.00     0.275 C 
ENDROOT
BRANCH   1   2
HETATM    2  C           1     -22.160  -3.280 -11.417  0.00  0.00     0.251 C 
HETATM    3  N           1     -22.154  -3.884 -10.189  0.00  0.00    -0.336 N 
HETATM    4  C           1     -23.108  -4.864  -9.675  0.00  0.00     0.127 C 
HETATM    5  C           1     -21.193  -3.691  -9.107  0.00  0.00     0.188 C 
HETATM    6  C           1     -23.314  -4.447  -8.229  0.00  0.00     0.022 C 
HETATM    7  C           1     -22.056  -3.670  -7.856  0.00  0.00     0.038 C 
HETATM    8  O           1     -21.296  -2.484 -11.702  0.00  0.00    -0.271 OA
BRANCH   5   9
HETATM    9  C           1     -20.202  -4.828  -9.057  0.00  0.00     0.196 C 
HETATM   10  O           1     -19.969  -5.408  -7.975  0.00  0.00    -0.646 OA
HETATM   11  O           1     -19.615  -5.190 -10.100  0.00  0.00    -0.646 OA
ENDBRANCH   5   9
ENDBRANCH   1   2
BRANCH   1  12
HETATM   12  N           1     -24.525  -2.955 -11.993  0.00  0.00    -0.067 N 
HETATM   13  H           1     -24.363  -1.932 -11.848  0.00  0.00     0.275 HD
HETATM   14  H           1     -25.247  -3.092 -12.735  0.00  0.00     0.275 HD
HETATM   15  H           1     -24.857  -3.385 -11.100  0.00  0.00     0.275 HD
ENDBRANCH   1  12
BRANCH   1  16
HETATM   16  C           1     -22.839  -3.092 -13.790  0.00  0.00     0.044 C 
BRANCH  16  17
HETATM   17  C           1     -23.741  -1.930 -14.181  0.00  0.00     0.030 C 
BRANCH  17  18
HETATM   18  C           1     -23.134  -1.191 -15.367  0.00  0.00     0.230 C 
BRANCH  18  19
HETATM   19  N           1     -23.899   0.077 -15.613  0.00  0.00    -0.079 N 
HETATM   20  H           1     -23.303   0.897 -15.358  0.00  0.00     0.274 HD
HETATM   21  H           1     -24.161   0.137 -16.622  0.00  0.00     0.274 HD
HETATM   22  H           1     -24.764   0.079 -15.027  0.00  0.00     0.274 HD
ENDBRANCH  18  19
ENDBRANCH  17  18
ENDBRANCH  16  17
ENDBRANCH   1  16
TORSDOF 7
ENDMDL
MODEL 8
REMARK VINA RESULT:      -5.3     13.937     16.365
REMARK  7 active torsions:
REMARK  status: ('A' for Active; 'I' for Inactive)
REMARK    1  A    between atoms: C_3  and  C_4 
REMARK    2  A    between atoms: C_3  and  N_5 
REMARK    3  A    between atoms: C_4  and  C_18 
REMARK       I    between atoms: N_10  and  C_11 
REMARK    4  A    between atoms: C_11  and  C_19 
REMARK    5  A    between atoms: N_17  and  C_19 
REMARK    6  A    between atoms: C_18  and  C_19 
REMARK    7  A    between atoms: C_20  and  C_21 
ROOT
HETATM    1  C           1     -20.838  -4.920  -6.958  0.00  0.00     0.275 C 
ENDROOT
BRANCH   1   2
HETATM    2  C           1     -21.764  -5.649  -6.016  0.00  0.00     0.251 C 
HETATM    3  N           1     -21.284  -6.658  -5.226  0.00  0.00    -0.336 N 
HETATM    4  C           1     -19.914  -7.161  -5.162  0.00  0.00     0.127 C 
HETATM    5  C           1     -22.027  -7.466  -4.264  0.00  0.00     0.188 C 
HETATM    6  C           1     -20.085  -8.667  -5.053  0.00  0.00     0.022 C 
HETATM    7  C           1     -21.478  -8.868  -4.468  0.00  0.00     0.038 C 
HETATM    8  O           1     -22.932  -5.341  -5.958  0.00  0.00    -0.271 OA
BRANCH   5   9
HETATM    9  C           1     -21.777  -6.990  -2.854  0.00  0.00     0.196 C 
HETATM   10  O           1     -22.086  -5.825  -2.523  0.00  0.00    -0.646 OA
HETATM   11  O           1     -21.261  -7.762  -2.017  0.00  0.00    -0.646 OA
ENDBRANCH   5   9
ENDBRANCH   1   2
BRANCH   1  12
HETATM   12  N           1     -20.340  -5.873  -8.004  0.00  0.00    -0.067 N 
HETATM   13  H           1     -20.207  -6.818  -7.578  0.00  0.00     0.275 HD
HETATM   14  H           1     -21.037  -5.934  -8.779  0.00  0.00     0.275 HD
HETATM   15  H           1     -19.428  -5.529  -8.382  0.00  0.00     0.275 HD
ENDBRANCH   1  12
BRANCH   1  16
HETATM   16  C           1     -21.590  -3.778  -7.628  0.00  0.00     0.044 C 
BRANCH  16  17
HETATM   17  C           1     -21.723  -4.062  -9.118  0.00  0.00     0.030 C 
BRANCH  17  18
HETATM   18  C           1     -23.179  -4.358  -9.452  0.00  0.00     0.230 C 
BRANCH  18  19
HETATM   19  N           1     -24.059  -3.861  -8.342  0.00  0.00    -0.079 N 
HETATM   20  H           1     -23.580  -3.075  -7.845  0.00  0.00     0.274 HD
HETATM   21  H           1     -24.964  -3.521  -8.739  0.00  0.00     0.274 HD
HETATM   22  H           1     -24.243  -4.639  -7.670  0.00  0.00     0.274 HD
ENDBRANCH  18  19
ENDBRANCH  17  18
ENDBRANCH  16  17
ENDBRANCH   1  16
TORSDOF 7
ENDMDL
MODEL 9
REMARK VINA RESULT:      -5.3     13.907     16.191
REMARK  7 active torsions:
REMARK  status: ('A' for Active; 'I' for Inactive)
REMARK    1  A    between atoms: C_3  and  C_4 
REMARK    2  A    between atoms: C_3  and  N_5 
REMARK    3  A    between atoms: C_4  and  C_18 
REMARK       I    between atoms: N_10  and  C_11 
REMARK    4  A    between atoms: C_11  and  C_19 
REMARK    5  A    between atoms: N_17  and  C_19 
REMARK    6  A    between atoms: C_18  and  C_19 
REMARK    7  A    between atoms: C_20  and  C_21 
ROOT
HETATM    1  C           1     -21.585  -5.072  -7.180  0.00  0.00     0.275 C 
ENDROOT
BRANCH   1   2
HETATM    2  C           1     -20.742  -6.161  -6.564  0.00  0.00     0.251 C 
HETATM    3  N           1     -21.142  -6.762  -5.401  0.00  0.00    -0.336 N 
HETATM    4  C           1     -22.346  -6.481  -4.623  0.00  0.00     0.127 C 
HETATM    5  C           1     -20.459  -7.823  -4.667  0.00  0.00     0.188 C 
HETATM    6  C           1     -21.870  -6.542  -3.182  0.00  0.00     0.022 C 
HETATM    7  C           1     -20.625  -7.422  -3.212  0.00  0.00     0.038 C 
HETATM    8  O           1     -19.713  -6.503  -7.097  0.00  0.00    -0.271 OA
BRANCH   5   9
HETATM    9  C           1     -21.104  -9.161  -4.933  0.00  0.00     0.196 C 
HETATM   10  O           1     -21.627  -9.801  -3.995  0.00  0.00    -0.646 OA
HETATM   11  O           1     -21.116  -9.630  -6.092  0.00  0.00    -0.646 OA
ENDBRANCH   5   9
ENDBRANCH   1   2
BRANCH   1  12
HETATM   12  N           1     -21.018  -3.733  -6.813  0.00  0.00    -0.067 N 
HETATM   13  H           1     -21.397  -3.438  -5.884  0.00  0.00     0.275 HD
HETATM   14  H           1     -19.977  -3.799  -6.761  0.00  0.00     0.275 HD
HETATM   15  H           1     -21.287  -3.030  -7.538  0.00  0.00     0.275 HD
ENDBRANCH   1  12
BRANCH   1  16
HETATM   16  C           1     -21.583  -5.225  -8.696  0.00  0.00     0.044 C 
BRANCH  16  17
HETATM   17  C           1     -22.011  -3.913  -9.340  0.00  0.00     0.030 C 
BRANCH  17  18
HETATM   18  C           1     -23.432  -4.047  -9.872  0.00  0.00     0.230 C 
BRANCH  18  19
HETATM   19  N           1     -24.397  -3.477  -8.874  0.00  0.00    -0.079 N 
HETATM   20  H           1     -25.335  -3.365  -9.322  0.00  0.00     0.274 HD
HETATM   21  H           1     -24.477  -4.123  -8.057  0.00  0.00     0.274 HD
HETATM   22  H           1     -24.051  -2.546  -8.550  0.00  0.00     0.274 HD
ENDBRANCH  18  19
ENDBRANCH  17  18
ENDBRANCH  16  17
ENDBRANCH   1  16
TORSDOF 7
ENDMDL
