MODEL 1
REMARK VINA RESULT:      -6.4      0.000      0.000
REMARK  6 active torsions:
REMARK  status: ('A' for Active; 'I' for Inactive)
REMARK    1  A    between atoms: C_2  and  C_16 
REMARK    2  A    between atoms: N_5  and  C_16 
REMARK       I    between atoms: N_5  and  C_6 
REMARK    3  A    between atoms: C_6  and  C_7 
REMARK    4  A    between atoms: C_7  and  C_8 
REMARK    5  A    between atoms: C_7  and  N_12 
REMARK    6  A    between atoms: C_8  and  C_9 
REMARK       I    between atoms: C_9  and  N_10 
ROOT
HETATM    1  C           1     -34.255  -2.645 -11.748  0.00  0.00     0.283 C 
ENDROOT
BRANCH   1   2
HETATM    2  C           1     -35.198  -1.808 -12.577  0.00  0.00     0.249 C 
HETATM    3  N           1     -34.759  -1.232 -13.739  0.00  0.00    -0.345 N 
HETATM    4  H           1     -33.803  -1.366 -14.041  0.00  0.00     0.163 HD
HETATM    5  O           1     -36.340  -1.648 -12.218  0.00  0.00    -0.271 OA
BRANCH   3   6
HETATM    6  C           1     -35.666  -0.428 -14.537  0.00  0.00     0.181 C 
HETATM    7  C           1     -35.182   1.016 -14.554  0.00  0.00     0.043 C 
BRANCH   6   8
HETATM    8  C           1     -35.702  -0.963 -15.947  0.00  0.00     0.196 C 
HETATM    9  O           1     -35.095  -2.018 -16.232  0.00  0.00    -0.646 OA
HETATM   10  O           1     -36.340  -0.351 -16.832  0.00  0.00    -0.646 OA
ENDBRANCH   6   8
ENDBRANCH   3   6
ENDBRANCH   1   2
BRANCH   1  11
HETATM   11  C           1     -35.009  -3.833 -11.164  0.00  0.00     0.145 C 
BRANCH  11  12
HETATM   12  C           1     -34.648  -5.084 -11.927  0.00  0.00     0.217 C 
HETATM   13  N           1     -33.723  -5.953 -11.416  0.00  0.00    -0.370 N 
HETATM   14  H           1     -33.481  -6.792 -11.928  0.00  0.00     0.159 HD
HETATM   15  H           1     -33.279  -5.757 -10.528  0.00  0.00     0.159 HD
HETATM   16  O           1     -35.178  -5.319 -12.987  0.00  0.00    -0.274 OA
ENDBRANCH  11  12
ENDBRANCH   1  11
BRANCH   1  17
HETATM   17  N           1     -33.697  -1.812 -10.633  0.00  0.00    -0.066 N 
HETATM   18  H           1     -34.439  -1.171 -10.271  0.00  0.00     0.275 HD
HETATM   19  H           1     -33.368  -2.436  -9.862  0.00  0.00     0.275 HD
HETATM   20  H           1     -32.894  -1.246 -10.990  0.00  0.00     0.275 HD
ENDBRANCH   1  17
TORSDOF 6
ENDMDL
MODEL 2
REMARK VINA RESULT:      -6.2     12.409     13.972
REMARK  6 active torsions:
REMARK  status: ('A' for Active; 'I' for Inactive)
REMARK    1  A    between atoms: C_2  and  C_16 
REMARK    2  A    between atoms: N_5  and  C_16 
REMARK       I    between atoms: N_5  and  C_6 
REMARK    3  A    between atoms: C_6  and  C_7 
REMARK    4  A    between atoms: C_7  and  C_8 
REMARK    5  A    between atoms: C_7  and  N_12 
REMARK    6  A    between atoms: C_8  and  C_9 
REMARK       I    between atoms: C_9  and  N_10 
ROOT
HETATM    1  C           1     -22.554  -3.059 -11.859  0.00  0.00     0.283 C 
ENDROOT
BRANCH   1   2
HETATM    2  C           1     -22.546  -3.992 -10.673  0.00  0.00     0.249 C 
HETATM    3  N           1     -21.497  -3.971  -9.793  0.00  0.00    -0.345 N 
HETATM    4  H           1     -20.727  -3.331  -9.939  0.00  0.00     0.163 HD
HETATM    5  O           1     -23.465  -4.755 -10.498  0.00  0.00    -0.271 OA
BRANCH   3   6
HETATM    6  C           1     -21.489  -4.867  -8.653  0.00  0.00     0.181 C 
HETATM    7  C           1     -20.053  -5.255  -8.323  0.00  0.00     0.043 C 
BRANCH   6   8
HETATM    8  C           1     -22.109  -4.174  -7.465  0.00  0.00     0.196 C 
HETATM    9  O           1     -21.470  -3.291  -6.853  0.00  0.00    -0.646 OA
HETATM   10  O           1     -23.262  -4.482  -7.093  0.00  0.00    -0.646 OA
ENDBRANCH   6   8
ENDBRANCH   3   6
ENDBRANCH   1   2
BRANCH   1  11
HETATM   11  C           1     -23.975  -2.924 -12.389  0.00  0.00     0.145 C 
BRANCH  11  12
HETATM   12  C           1     -23.936  -2.502 -13.837  0.00  0.00     0.217 C 
HETATM   13  N           1     -24.026  -1.176 -14.166  0.00  0.00    -0.370 N 
HETATM   14  H           1     -23.999  -0.894 -15.138  0.00  0.00     0.159 HD
HETATM   15  H           1     -24.120  -0.479 -13.439  0.00  0.00     0.159 HD
HETATM   16  O           1     -23.823  -3.334 -14.706  0.00  0.00    -0.274 OA
ENDBRANCH  11  12
ENDBRANCH   1  11
BRANCH   1  17
HETATM   17  N           1     -21.670  -3.613 -12.936  0.00  0.00    -0.066 N 
HETATM   18  H           1     -22.149  -3.526 -13.861  0.00  0.00     0.275 HD
HETATM   19  H           1     -20.771  -3.080 -12.957  0.00  0.00     0.275 HD
HETATM   20  H           1     -21.472  -4.621 -12.740  0.00  0.00     0.275 HD
ENDBRANCH   1  17
TORSDOF 6
ENDMDL
MODEL 3
REMARK VINA RESULT:      -6.1     13.334     14.959
REMARK  6 active torsions:
REMARK  status: ('A' for Active; 'I' for Inactive)
REMARK    1  A    between atoms: C_2  and  C_16 
REMARK    2  A    between atoms: N_5  and  C_16 
REMARK       I    between atoms: N_5  and  C_6 
REMARK    3  A    between atoms: C_6  and  C_7 
REMARK    4  A    between atoms: C_7  and  C_8 
REMARK    5  A    between atoms: C_7  and  N_12 
REMARK    6  A    between atoms: C_8  and  C_9 
REMARK       I    between atoms: C_9  and  N_10 
ROOT
HETATM    1  C           1     -22.038  -3.755 -11.036  0.00  0.00     0.283 C 
ENDROOT
BRANCH   1   2
HETATM    2  C           1     -20.966  -4.433 -10.219  0.00  0.00     0.249 C 
HETATM    3  N           1     -21.143  -4.615  -8.873  0.00  0.00    -0.345 N 
HETATM    4  H           1     -21.992  -4.294  -8.427  0.00  0.00     0.163 HD
HETATM    5  O           1     -19.952  -4.817 -10.751  0.00  0.00    -0.271 OA
BRANCH   3   6
HETATM    6  C           1     -20.113  -5.267  -8.088  0.00  0.00     0.181 C 
HETATM    7  C           1     -19.133  -4.222  -7.569  0.00  0.00     0.043 C 
BRANCH   6   8
HETATM    8  C           1     -20.748  -5.984  -6.923  0.00  0.00     0.196 C 
HETATM    9  O           1     -20.217  -7.016  -6.458  0.00  0.00    -0.646 OA
HETATM   10  O           1     -21.807  -5.546  -6.422  0.00  0.00    -0.646 OA
ENDBRANCH   6   8
ENDBRANCH   3   6
ENDBRANCH   1   2
BRANCH   1  11
HETATM   11  C           1     -23.344  -4.527 -10.901  0.00  0.00     0.145 C 
BRANCH  11  12
HETATM   12  C           1     -24.401  -3.630 -10.304  0.00  0.00     0.217 C 
HETATM   13  N           1     -24.437  -3.420  -8.952  0.00  0.00    -0.370 N 
HETATM   14  H           1     -25.146  -2.820  -8.553  0.00  0.00     0.159 HD
HETATM   15  H           1     -23.756  -3.867  -8.352  0.00  0.00     0.159 HD
HETATM   16  O           1     -25.215  -3.097 -11.020  0.00  0.00    -0.274 OA
ENDBRANCH  11  12
ENDBRANCH   1  11
BRANCH   1  17
HETATM   17  N           1     -21.623  -3.724 -12.477  0.00  0.00    -0.066 N 
HETATM   18  H           1     -22.018  -2.873 -12.936  0.00  0.00     0.275 HD
HETATM   19  H           1     -20.580  -3.702 -12.538  0.00  0.00     0.275 HD
HETATM   20  H           1     -21.982  -4.578 -12.961  0.00  0.00     0.275 HD
ENDBRANCH   1  17
TORSDOF 6
ENDMDL
MODEL 4
REMARK VINA RESULT:      -6.1      1.899      2.187
REMARK  6 active torsions:
REMARK  status: ('A' for Active; 'I' for Inactive)
REMARK    1  A    between atoms: C_2  and  C_16 
REMARK    2  A    between atoms: N_5  and  C_16 
REMARK       I    between atoms: N_5  and  C_6 
REMARK    3  A    between atoms: C_6  and  C_7 
REMARK    4  A    between atoms: C_7  and  C_8 
REMARK    5  A    between atoms: C_7  and  N_12 
REMARK    6  A    between atoms: C_8  and  C_9 
REMARK       I    between atoms: C_9  and  N_10 
ROOT
HETATM    1  C           1     -34.376  -3.776 -12.875  0.00  0.00     0.283 C 
ENDROOT
BRANCH   1   2
HETATM    2  C           1     -35.042  -2.440 -12.664  0.00  0.00     0.249 C 
HETATM    3  N           1     -34.896  -1.447 -13.596  0.00  0.00    -0.345 N 
HETATM    4  H           1     -34.340  -1.610 -14.425  0.00  0.00     0.163 HD
HETATM    5  O           1     -35.706  -2.245 -11.674  0.00  0.00    -0.271 OA
BRANCH   3   6
HETATM    6  C           1     -35.537  -0.162 -13.393  0.00  0.00     0.181 C 
HETATM    7  C           1     -34.597   0.950 -13.840  0.00  0.00     0.043 C 
BRANCH   6   8
HETATM    8  C           1     -36.808  -0.102 -14.203  0.00  0.00     0.196 C 
HETATM    9  O           1     -36.838   0.541 -15.274  0.00  0.00    -0.646 OA
HETATM   10  O           1     -37.833  -0.697 -13.803  0.00  0.00    -0.646 OA
ENDBRANCH   6   8
ENDBRANCH   3   6
ENDBRANCH   1   2
BRANCH   1  11
HETATM   11  C           1     -33.237  -3.940 -11.876  0.00  0.00     0.145 C 
BRANCH  11  12
HETATM   12  C           1     -33.486  -5.159 -11.022  0.00  0.00     0.217 C 
HETATM   13  N           1     -32.868  -6.342 -11.322  0.00  0.00    -0.370 N 
HETATM   14  H           1     -33.036  -7.160 -10.749  0.00  0.00     0.159 HD
HETATM   15  H           1     -32.245  -6.402 -12.116  0.00  0.00     0.159 HD
HETATM   16  O           1     -34.231  -5.089 -10.073  0.00  0.00    -0.274 OA
ENDBRANCH  11  12
ENDBRANCH   1  11
BRANCH   1  17
HETATM   17  N           1     -33.830  -3.847 -14.270  0.00  0.00    -0.066 N 
HETATM   18  H           1     -32.789  -3.940 -14.234  0.00  0.00     0.275 HD
HETATM   19  H           1     -34.237  -4.674 -14.762  0.00  0.00     0.275 HD
HETATM   20  H           1     -34.082  -2.975 -14.788  0.00  0.00     0.275 HD
ENDBRANCH   1  17
TORSDOF 6
ENDMDL
MODEL 5
REMARK VINA RESULT:      -6.1     12.584     14.267
REMARK  6 active torsions:
REMARK  status: ('A' for Active; 'I' for Inactive)
REMARK    1  A    between atoms: C_2  and  C_16 
REMARK    2  A    between atoms: N_5  and  C_16 
REMARK       I    between atoms: N_5  and  C_6 
REMARK    3  A    between atoms: C_6  and  C_7 
REMARK    4  A    between atoms: C_7  and  C_8 
REMARK    5  A    between atoms: C_7  and  N_12 
REMARK    6  A    between atoms: C_8  and  C_9 
REMARK       I    between atoms: C_9  and  N_10 
ROOT
HETATM    1  C           1     -23.734  -4.400 -10.641  0.00  0.00     0.283 C 
ENDROOT
BRANCH   1   2
HETATM    2  C           1     -22.469  -4.543  -9.832  0.00  0.00     0.249 C 
HETATM    3  N           1     -22.539  -4.727  -8.477  0.00  0.00    -0.345 N 
HETATM    4  H           1     -23.440  -4.767  -8.018  0.00  0.00     0.163 HD
HETATM    5  O           1     -21.393  -4.496 -10.380  0.00  0.00    -0.271 OA
BRANCH   3   6
HETATM    6  C           1     -21.322  -4.865  -7.700  0.00  0.00     0.181 C 
HETATM    7  C           1     -20.972  -3.527  -7.064  0.00  0.00     0.043 C 
BRANCH   6   8
HETATM    8  C           1     -21.531  -5.897  -6.619  0.00  0.00     0.196 C 
HETATM    9  O           1     -20.923  -6.988  -6.669  0.00  0.00    -0.646 OA
HETATM   10  O           1     -22.314  -5.661  -5.673  0.00  0.00    -0.646 OA
ENDBRANCH   6   8
ENDBRANCH   3   6
ENDBRANCH   1   2
BRANCH   1  11
HETATM   11  C           1     -23.767  -3.025 -11.295  0.00  0.00     0.145 C 
BRANCH  11  12
HETATM   12  C           1     -23.503  -3.163 -12.774  0.00  0.00     0.217 C 
HETATM   13  N           1     -22.239  -3.441 -13.221  0.00  0.00    -0.370 N 
HETATM   14  H           1     -22.063  -3.533 -14.213  0.00  0.00     0.159 HD
HETATM   15  H           1     -21.481  -3.552 -12.560  0.00  0.00     0.159 HD
HETATM   16  O           1     -24.407  -3.030 -13.564  0.00  0.00    -0.274 OA
ENDBRANCH  11  12
ENDBRANCH   1  11
BRANCH   1  17
HETATM   17  N           1     -24.923  -4.551  -9.738  0.00  0.00    -0.066 N 
HETATM   18  H           1     -25.498  -5.366 -10.051  0.00  0.00     0.275 HD
HETATM   19  H           1     -24.597  -4.710  -8.758  0.00  0.00     0.275 HD
HETATM   20  H           1     -25.503  -3.683  -9.777  0.00  0.00     0.275 HD
ENDBRANCH   1  17
TORSDOF 6
ENDMDL
MODEL 6
REMARK VINA RESULT:      -5.8     13.253     15.101
REMARK  6 active torsions:
REMARK  status: ('A' for Active; 'I' for Inactive)
REMARK    1  A    between atoms: C_2  and  C_16 
REMARK    2  A    between atoms: N_5  and  C_16 
REMARK       I    between atoms: N_5  and  C_6 
REMARK    3  A    between atoms: C_6  and  C_7 
REMARK    4  A    between atoms: C_7  and  C_8 
REMARK    5  A    between atoms: C_7  and  N_12 
REMARK    6  A    between atoms: C_8  and  C_9 
REMARK       I    between atoms: C_9  and  N_10 
ROOT
HETATM    1  C           1     -23.033  -4.348  -9.352  0.00  0.00     0.283 C 
ENDROOT
BRANCH   1   2
HETATM    2  C           1     -21.778  -4.813  -8.654  0.00  0.00     0.249 C 
HETATM    3  N           1     -21.838  -5.251  -7.358  0.00  0.00    -0.345 N 
HETATM    4  H           1     -22.723  -5.262  -6.868  0.00  0.00     0.163 HD
HETATM    5  O           1     -20.722  -4.801  -9.239  0.00  0.00    -0.271 OA
BRANCH   3   6
HETATM    6  C           1     -20.632  -5.699  -6.688  0.00  0.00     0.181 C 
HETATM    7  C           1     -20.147  -4.612  -5.738  0.00  0.00     0.043 C 
BRANCH   6   8
HETATM    8  C           1     -20.929  -6.955  -5.906  0.00  0.00     0.196 C 
HETATM    9  O           1     -22.016  -7.071  -5.298  0.00  0.00    -0.646 OA
HETATM   10  O           1     -20.089  -7.880  -5.866  0.00  0.00    -0.646 OA
ENDBRANCH   6   8
ENDBRANCH   3   6
ENDBRANCH   1   2
BRANCH   1  11
HETATM   11  C           1     -22.674  -3.303 -10.399  0.00  0.00     0.145 C 
BRANCH  11  12
HETATM   12  C           1     -23.861  -3.062 -11.299  0.00  0.00     0.217 C 
HETATM   13  N           1     -23.678  -2.515 -12.541  0.00  0.00    -0.370 N 
HETATM   14  H           1     -24.475  -2.354 -13.144  0.00  0.00     0.159 HD
HETATM   15  H           1     -22.748  -2.271 -12.855  0.00  0.00     0.159 HD
HETATM   16  O           1     -24.972  -3.353 -10.925  0.00  0.00    -0.274 OA
ENDBRANCH  11  12
ENDBRANCH   1  11
BRANCH   1  17
HETATM   17  N           1     -23.969  -3.747  -8.346  0.00  0.00    -0.066 N 
HETATM   18  H           1     -23.473  -3.627  -7.434  0.00  0.00     0.275 HD
HETATM   19  H           1     -24.298  -2.816  -8.689  0.00  0.00     0.275 HD
HETATM   20  H           1     -24.791  -4.379  -8.213  0.00  0.00     0.275 HD
ENDBRANCH   1  17
TORSDOF 6
ENDMDL
MODEL 7
REMARK VINA RESULT:      -5.7     12.615     14.128
REMARK  6 active torsions:
REMARK  status: ('A' for Active; 'I' for Inactive)
REMARK    1  A    between atoms: C_2  and  C_16 
REMARK    2  A    between atoms: N_5  and  C_16 
REMARK       I    between atoms: N_5  and  C_6 
REMARK    3  A    between atoms: C_6  and  C_7 
REMARK    4  A    between atoms: C_7  and  C_8 
REMARK    5  A    between atoms: C_7  and  N_12 
REMARK    6  A    between atoms: C_8  and  C_9 
REMARK       I    between atoms: C_9  and  N_10 
ROOT
HETATM    1  C           1     -24.187  -4.640 -10.043  0.00  0.00     0.283 C 
ENDROOT
BRANCH   1   2
HETATM    2  C           1     -23.100  -4.114  -9.138  0.00  0.00     0.249 C 
HETATM    3  N           1     -22.274  -4.987  -8.482  0.00  0.00    -0.345 N 
HETATM    4  H           1     -22.394  -5.985  -8.603  0.00  0.00     0.163 HD
HETATM    5  O           1     -22.957  -2.924  -8.994  0.00  0.00    -0.271 OA
BRANCH   3   6
HETATM    6  C           1     -21.229  -4.483  -7.612  0.00  0.00     0.181 C 
HETATM    7  C           1     -21.187  -5.312  -6.335  0.00  0.00     0.043 C 
BRANCH   6   8
HETATM    8  C           1     -19.899  -4.578  -8.318  0.00  0.00     0.196 C 
HETATM    9  O           1     -18.840  -4.367  -7.689  0.00  0.00    -0.646 OA
HETATM   10  O           1     -19.857  -4.867  -9.534  0.00  0.00    -0.646 OA
ENDBRANCH   6   8
ENDBRANCH   3   6
ENDBRANCH   1   2
BRANCH   1  11
HETATM   11  C           1     -23.690  -4.647 -11.483  0.00  0.00     0.145 C 
BRANCH  11  12
HETATM   12  C           1     -24.049  -3.340 -12.147  0.00  0.00     0.217 C 
HETATM   13  N           1     -23.151  -2.307 -12.154  0.00  0.00    -0.370 N 
HETATM   14  H           1     -23.393  -1.431 -12.599  0.00  0.00     0.159 HD
HETATM   15  H           1     -22.247  -2.418 -11.713  0.00  0.00     0.159 HD
HETATM   16  O           1     -25.128  -3.207 -12.674  0.00  0.00    -0.274 OA
ENDBRANCH  11  12
ENDBRANCH   1  11
BRANCH   1  17
HETATM   17  N           1     -25.395  -3.757  -9.937  0.00  0.00    -0.066 N 
HETATM   18  H           1     -25.582  -3.307 -10.861  0.00  0.00     0.275 HD
HETATM   19  H           1     -26.222  -4.331  -9.655  0.00  0.00     0.275 HD
HETATM   20  H           1     -25.224  -3.017  -9.219  0.00  0.00     0.275 HD
ENDBRANCH   1  17
TORSDOF 6
ENDMDL
MODEL 8
REMARK VINA RESULT:      -5.6      7.053      8.725
REMARK  6 active torsions:
REMARK  status: ('A' for Active; 'I' for Inactive)
REMARK    1  A    between atoms: C_2  and  C_16 
REMARK    2  A    between atoms: N_5  and  C_16 
REMARK       I    between atoms: N_5  and  C_6 
REMARK    3  A    between atoms: C_6  and  C_7 
REMARK    4  A    between atoms: C_7  and  C_8 
REMARK    5  A    between atoms: C_7  and  N_12 
REMARK    6  A    between atoms: C_8  and  C_9 
REMARK       I    between atoms: C_9  and  N_10 
ROOT
HETATM    1  C           1     -31.987  -5.972 -17.609  0.00  0.00     0.283 C 
ENDROOT
BRANCH   1   2
HETATM    2  C           1     -30.677  -6.716 -17.685  0.00  0.00     0.249 C 
HETATM    3  N           1     -29.538  -6.150 -17.177  0.00  0.00    -0.345 N 
HETATM    4  H           1     -29.575  -5.232 -16.753  0.00  0.00     0.163 HD
HETATM    5  O           1     -30.632  -7.812 -18.191  0.00  0.00    -0.271 OA
BRANCH   3   6
HETATM    6  C           1     -28.278  -6.865 -17.249  0.00  0.00     0.181 C 
HETATM    7  C           1     -27.409  -6.252 -18.339  0.00  0.00     0.043 C 
BRANCH   6   8
HETATM    8  C           1     -27.568  -6.765 -15.922  0.00  0.00     0.196 C 
HETATM    9  O           1     -27.859  -7.553 -14.996  0.00  0.00    -0.646 OA
HETATM   10  O           1     -26.688  -5.894 -15.748  0.00  0.00    -0.646 OA
ENDBRANCH   6   8
ENDBRANCH   3   6
ENDBRANCH   1   2
BRANCH   1  11
HETATM   11  C           1     -31.877  -4.852 -16.583  0.00  0.00     0.145 C 
BRANCH  11  12
HETATM   12  C           1     -32.131  -3.525 -17.255  0.00  0.00     0.217 C 
HETATM   13  N           1     -33.407  -3.041 -17.355  0.00  0.00    -0.370 N 
HETATM   14  H           1     -33.576  -2.151 -17.806  0.00  0.00     0.159 HD
HETATM   15  H           1     -34.181  -3.573 -16.980  0.00  0.00     0.159 HD
HETATM   16  O           1     -31.206  -2.889 -17.703  0.00  0.00    -0.274 OA
ENDBRANCH  11  12
ENDBRANCH   1  11
BRANCH   1  17
HETATM   17  N           1     -33.076  -6.919 -17.200  0.00  0.00    -0.066 N 
HETATM   18  H           1     -33.210  -6.871 -16.165  0.00  0.00     0.275 HD
HETATM   19  H           1     -33.966  -6.655 -17.680  0.00  0.00     0.275 HD
HETATM   20  H           1     -32.811  -7.893 -17.471  0.00  0.00     0.275 HD
ENDBRANCH   1  17
TORSDOF 6
ENDMDL
MODEL 9
REMARK VINA RESULT:      -5.6     13.325     14.301
REMARK  6 active torsions:
REMARK  status: ('A' for Active; 'I' for Inactive)
REMARK    1  A    between atoms: C_2  and  C_16 
REMARK    2  A    between atoms: N_5  and  C_16 
REMARK       I    between atoms: N_5  and  C_6 
REMARK    3  A    between atoms: C_6  and  C_7 
REMARK    4  A    between atoms: C_7  and  C_8 
REMARK    5  A    between atoms: C_7  and  N_12 
REMARK    6  A    between atoms: C_8  and  C_9 
REMARK       I    between atoms: C_9  and  N_10 
ROOT
HETATM    1  C           1     -21.988  -4.015  -7.144  0.00  0.00     0.283 C 
ENDROOT
BRANCH   1   2
HETATM    2  C           1     -21.688  -4.373  -8.579  0.00  0.00     0.249 C 
HETATM    3  N           1     -22.582  -4.054  -9.566  0.00  0.00    -0.345 N 
HETATM    4  H           1     -23.445  -3.580  -9.332  0.00  0.00     0.163 HD
HETATM    5  O           1     -20.658  -4.939  -8.858  0.00  0.00    -0.271 OA
BRANCH   3   6
HETATM    6  C           1     -22.294  -4.398 -10.945  0.00  0.00     0.181 C 
HETATM    7  C           1     -23.560  -4.916 -11.614  0.00  0.00     0.043 C 
BRANCH   6   8
HETATM    8  C           1     -21.804  -3.172 -11.675  0.00  0.00     0.196 C 
HETATM    9  O           1     -22.558  -2.577 -12.474  0.00  0.00    -0.646 OA
HETATM   10  O           1     -20.642  -2.751 -11.481  0.00  0.00    -0.646 OA
ENDBRANCH   6   8
ENDBRANCH   3   6
ENDBRANCH   1   2
BRANCH   1  11
HETATM   11  C           1     -20.948  -4.654  -6.233  0.00  0.00     0.145 C 
BRANCH  11  12
HETATM   12  C           1     -21.451  -5.994  -5.755  0.00  0.00     0.217 C 
HETATM   13  N           1     -21.114  -7.133  -6.435  0.00  0.00    -0.370 N 
HETATM   14  H           1     -21.452  -8.032  -6.114  0.00  0.00     0.159 HD
HETATM   15  H           1     -20.530  -7.078  -7.258  0.00  0.00     0.159 HD
HETATM   16  O           1     -22.150  -6.061  -4.772  0.00  0.00    -0.274 OA
ENDBRANCH  11  12
ENDBRANCH   1  11
BRANCH   1  17
HETATM   17  N           1     -23.352  -4.522  -6.778  0.00  0.00    -0.066 N 
HETATM   18  H           1     -23.947  -4.574  -7.636  0.00  0.00     0.275 HD
HETATM   19  H           1     -23.267  -5.474  -6.354  0.00  0.00     0.275 HD
HETATM   20  H           1     -23.792  -3.872  -6.089  0.00  0.00     0.275 HD
ENDBRANCH   1  17
TORSDOF 6
ENDMDL
