MODEL 1
REMARK VINA RESULT:      -6.6      0.000      0.000
REMARK  9 active torsions:
REMARK  status: ('A' for Active; 'I' for Inactive)
REMARK    1  A    between atoms: N_2  and  C_19 
REMARK       I    between atoms: N_2  and  C_3 
REMARK    2  A    between atoms: C_3  and  C_10 
REMARK    3  A    between atoms: N_7  and  C_10 
REMARK    4  A    between atoms: Se_8  and  C_9 
REMARK    5  A    between atoms: C_9  and  C_10 
REMARK    6  A    between atoms: O_11  and  C_12 
REMARK    7  A    between atoms: C_15  and  C_18 
REMARK    8  A    between atoms: C_18  and  C_19 
REMARK    9  A    between atoms: C_19  and  C_20 
ROOT
HETATM    1  C           1     -21.021  -5.227  -6.614  0.00  0.00     0.189 C 
ENDROOT
BRANCH   1   2
HETATM    2  N           1     -20.988  -5.177  -5.165  0.00  0.00    -0.344 N 
HETATM    3  C           1     -21.312  -6.287  -4.434  0.00  0.00     0.249 C 
HETATM    4  O           1     -21.626  -7.310  -4.995  0.00  0.00    -0.271 OA
HETATM    5  H           1     -20.725  -4.320  -4.695  0.00  0.00     0.163 HD
BRANCH   3   6
HETATM    6  C           1     -21.277  -6.235  -2.926  0.00  0.00     0.274 C 
BRANCH   6   7
HETATM    7  N           1     -22.632  -5.849  -2.409  0.00  0.00    -0.067 N 
HETATM    8  H           1     -23.053  -5.129  -3.039  0.00  0.00     0.275 HD
HETATM    9  H           1     -23.249  -6.692  -2.384  0.00  0.00     0.275 HD
HETATM   10  H           1     -22.537  -5.457  -1.445  0.00  0.00     0.275 HD
ENDBRANCH   6   7
BRANCH   6  11
HETATM   11  C           1     -20.896  -7.603  -2.378  0.00  0.00     0.045 C 
BRANCH  11  12
HETATM   12 Se           1     -21.864  -7.932  -0.719  0.00  0.00     0.000 Se
HETATM   13  H           1     -20.697  -8.485  -0.012  0.00  0.00     0.000 HD
ENDBRANCH  11  12
ENDBRANCH   6  11
ENDBRANCH   3   6
ENDBRANCH   1   2
BRANCH   1  14
HETATM   14  C           1     -21.503  -3.889  -7.157  0.00  0.00     0.074 C 
BRANCH  14  15
HETATM   15  C           1     -22.064  -4.079  -8.532  0.00  0.00    -0.056 A 
HETATM   16  C           1     -21.218  -4.064  -9.640  0.00  0.00     0.010 A 
HETATM   17  C           1     -21.741  -4.242 -10.920  0.00  0.00     0.037 A 
HETATM   18  C           1     -23.112  -4.435 -11.093  0.00  0.00     0.065 A 
HETATM   19  C           1     -23.958  -4.452  -9.985  0.00  0.00     0.037 A 
HETATM   20  C           1     -23.435  -4.274  -8.704  0.00  0.00     0.010 A 
BRANCH  18  21
HETATM   21  O           1     -23.620  -4.608 -12.337  0.00  0.00    -0.361 OA
HETATM   22  H           1     -24.563  -4.829 -12.249  0.00  0.00     0.217 HD
ENDBRANCH  18  21
ENDBRANCH  14  15
ENDBRANCH   1  14
BRANCH   1  23
HETATM   23  C           1     -19.636  -5.514  -7.139  0.00  0.00     0.197 C 
HETATM   24  O           1     -18.816  -4.582  -7.279  0.00  0.00    -0.646 OA
HETATM   25  O           1     -19.309  -6.684  -7.433  0.00  0.00    -0.646 OA
ENDBRANCH   1  23
TORSDOF 9
ENDMDL
MODEL 2
REMARK VINA RESULT:      -6.2      1.244      1.750
REMARK  9 active torsions:
REMARK  status: ('A' for Active; 'I' for Inactive)
REMARK    1  A    between atoms: N_2  and  C_19 
REMARK       I    between atoms: N_2  and  C_3 
REMARK    2  A    between atoms: C_3  and  C_10 
REMARK    3  A    between atoms: N_7  and  C_10 
REMARK    4  A    between atoms: Se_8  and  C_9 
REMARK    5  A    between atoms: C_9  and  C_10 
REMARK    6  A    between atoms: O_11  and  C_12 
REMARK    7  A    between atoms: C_15  and  C_18 
REMARK    8  A    between atoms: C_18  and  C_19 
REMARK    9  A    between atoms: C_19  and  C_20 
ROOT
HETATM    1  C           1     -21.131  -5.003  -7.149  0.00  0.00     0.189 C 
ENDROOT
BRANCH   1   2
HETATM    2  N           1     -21.682  -5.501  -5.903  0.00  0.00    -0.344 N 
HETATM    3  C           1     -21.507  -6.813  -5.554  0.00  0.00     0.249 C 
HETATM    4  O           1     -20.893  -7.556  -6.282  0.00  0.00    -0.271 OA
HETATM    5  H           1     -22.196  -4.879  -5.293  0.00  0.00     0.163 HD
BRANCH   3   6
HETATM    6  C           1     -22.081  -7.331  -4.257  0.00  0.00     0.274 C 
BRANCH   6   7
HETATM    7  N           1     -21.652  -8.755  -4.057  0.00  0.00    -0.067 N 
HETATM    8  H           1     -22.232  -9.381  -4.660  0.00  0.00     0.275 HD
HETATM    9  H           1     -20.646  -8.856  -4.317  0.00  0.00     0.275 HD
HETATM   10  H           1     -21.783  -9.019  -3.054  0.00  0.00     0.275 HD
ENDBRANCH   6   7
BRANCH   6  11
HETATM   11  C           1     -21.574  -6.482  -3.100  0.00  0.00     0.045 C 
BRANCH  11  12
HETATM   12 Se           1     -21.931  -7.396  -1.417  0.00  0.00     0.000 Se
HETATM   13  H           1     -20.707  -6.908  -0.758  0.00  0.00     0.000 HD
ENDBRANCH  11  12
ENDBRANCH   6  11
ENDBRANCH   3   6
ENDBRANCH   1   2
BRANCH   1  14
HETATM   14  C           1     -21.911  -3.774  -7.593  0.00  0.00     0.074 C 
BRANCH  14  15
HETATM   15  C           1     -22.412  -3.976  -8.988  0.00  0.00    -0.056 A 
HETATM   16  C           1     -23.779  -3.903  -9.257  0.00  0.00     0.010 A 
HETATM   17  C           1     -24.245  -4.091 -10.558  0.00  0.00     0.037 A 
HETATM   18  C           1     -23.345  -4.352 -11.591  0.00  0.00     0.065 A 
HETATM   19  C           1     -21.978  -4.424 -11.323  0.00  0.00     0.037 A 
HETATM   20  C           1     -21.511  -4.236 -10.021  0.00  0.00     0.010 A 
BRANCH  18  21
HETATM   21  O           1     -23.798  -4.534 -12.855  0.00  0.00    -0.361 OA
HETATM   22  H           1     -24.210  -5.414 -12.903  0.00  0.00     0.217 HD
ENDBRANCH  18  21
ENDBRANCH  14  15
ENDBRANCH   1  14
BRANCH   1  23
HETATM   23  C           1     -19.682  -4.633  -6.945  0.00  0.00     0.197 C 
HETATM   24  O           1     -19.233  -4.482  -5.789  0.00  0.00    -0.646 OA
HETATM   25  O           1     -18.931  -4.479  -7.932  0.00  0.00    -0.646 OA
ENDBRANCH   1  23
TORSDOF 9
ENDMDL
MODEL 3
REMARK VINA RESULT:      -6.1      3.593      6.907
REMARK  9 active torsions:
REMARK  status: ('A' for Active; 'I' for Inactive)
REMARK    1  A    between atoms: N_2  and  C_19 
REMARK       I    between atoms: N_2  and  C_3 
REMARK    2  A    between atoms: C_3  and  C_10 
REMARK    3  A    between atoms: N_7  and  C_10 
REMARK    4  A    between atoms: Se_8  and  C_9 
REMARK    5  A    between atoms: C_9  and  C_10 
REMARK    6  A    between atoms: O_11  and  C_12 
REMARK    7  A    between atoms: C_15  and  C_18 
REMARK    8  A    between atoms: C_18  and  C_19 
REMARK    9  A    between atoms: C_19  and  C_20 
ROOT
HETATM    1  C           1     -21.181  -5.345  -6.415  0.00  0.00     0.189 C 
ENDROOT
BRANCH   1   2
HETATM    2  N           1     -21.733  -5.065  -7.727  0.00  0.00    -0.344 N 
HETATM    3  C           1     -23.019  -4.611  -7.845  0.00  0.00     0.249 C 
HETATM    4  O           1     -23.694  -4.442  -6.858  0.00  0.00    -0.271 OA
HETATM    5  H           1     -21.167  -5.206  -8.554  0.00  0.00     0.163 HD
BRANCH   3   6
HETATM    6  C           1     -23.593  -4.320  -9.211  0.00  0.00     0.274 C 
BRANCH   6   7
HETATM    7  N           1     -24.608  -3.220  -9.100  0.00  0.00    -0.067 N 
HETATM    8  H           1     -25.302  -3.307  -9.877  0.00  0.00     0.275 HD
HETATM    9  H           1     -25.102  -3.293  -8.182  0.00  0.00     0.275 HD
HETATM   10  H           1     -24.126  -2.295  -9.165  0.00  0.00     0.275 HD
ENDBRANCH   6   7
BRANCH   6  11
HETATM   11  C           1     -22.477  -3.888 -10.151  0.00  0.00     0.045 C 
BRANCH  11  12
HETATM   12 Se           1     -23.245  -2.998 -11.706  0.00  0.00     0.000 Se
HETATM   13  H           1     -24.034  -2.040 -10.914  0.00  0.00     0.000 HD
ENDBRANCH  11  12
ENDBRANCH   6  11
ENDBRANCH   3   6
ENDBRANCH   1   2
BRANCH   1  14
HETATM   14  C           1     -21.092  -6.851  -6.213  0.00  0.00     0.074 C 
BRANCH  14  15
HETATM   15  C           1     -21.069  -7.159  -4.749  0.00  0.00    -0.056 A 
HETATM   16  C           1     -21.861  -6.424  -3.867  0.00  0.00     0.010 A 
HETATM   17  C           1     -21.839  -6.712  -2.503  0.00  0.00     0.037 A 
HETATM   18  C           1     -21.025  -7.735  -2.019  0.00  0.00     0.065 A 
HETATM   19  C           1     -20.233  -8.471  -2.900  0.00  0.00     0.037 A 
HETATM   20  C           1     -20.254  -8.184  -4.265  0.00  0.00     0.010 A 
BRANCH  18  21
HETATM   21  O           1     -21.004  -8.015  -0.694  0.00  0.00    -0.361 OA
HETATM   22  H           1     -20.396  -7.390  -0.264  0.00  0.00     0.217 HD
ENDBRANCH  18  21
ENDBRANCH  14  15
ENDBRANCH   1  14
BRANCH   1  23
HETATM   23  C           1     -19.802  -4.740  -6.311  0.00  0.00     0.197 C 
HETATM   24  O           1     -19.390  -4.310  -5.212  0.00  0.00    -0.646 OA
HETATM   25  O           1     -19.073  -4.669  -7.323  0.00  0.00    -0.646 OA
ENDBRANCH   1  23
TORSDOF 9
ENDMDL
MODEL 4
REMARK VINA RESULT:      -6.0      3.758      7.389
REMARK  9 active torsions:
REMARK  status: ('A' for Active; 'I' for Inactive)
REMARK    1  A    between atoms: N_2  and  C_19 
REMARK       I    between atoms: N_2  and  C_3 
REMARK    2  A    between atoms: C_3  and  C_10 
REMARK    3  A    between atoms: N_7  and  C_10 
REMARK    4  A    between atoms: Se_8  and  C_9 
REMARK    5  A    between atoms: C_9  and  C_10 
REMARK    6  A    between atoms: O_11  and  C_12 
REMARK    7  A    between atoms: C_15  and  C_18 
REMARK    8  A    between atoms: C_18  and  C_19 
REMARK    9  A    between atoms: C_19  and  C_20 
ROOT
HETATM    1  C           1     -20.393  -7.784  -4.887  0.00  0.00     0.189 C 
ENDROOT
BRANCH   1   2
HETATM    2  N           1     -20.765  -7.192  -6.158  0.00  0.00    -0.344 N 
HETATM    3  C           1     -20.988  -5.845  -6.246  0.00  0.00     0.249 C 
HETATM    4  O           1     -20.874  -5.148  -5.267  0.00  0.00    -0.271 OA
HETATM    5  H           1     -20.860  -7.777  -6.979  0.00  0.00     0.163 HD
BRANCH   3   6
HETATM    6  C           1     -21.375  -5.230  -7.569  0.00  0.00     0.274 C 
BRANCH   6   7
HETATM    7  N           1     -22.374  -4.135  -7.336  0.00  0.00    -0.067 N 
HETATM    8  H           1     -23.116  -4.474  -6.684  0.00  0.00     0.275 HD
HETATM    9  H           1     -21.894  -3.308  -6.917  0.00  0.00     0.275 HD
HETATM   10  H           1     -22.809  -3.862  -8.247  0.00  0.00     0.275 HD
ENDBRANCH   6   7
BRANCH   6  11
HETATM   11  C           1     -20.139  -4.653  -8.244  0.00  0.00     0.045 C 
BRANCH  11  12
HETATM   12 Se           1     -20.528  -4.297 -10.120  0.00  0.00     0.000 Se
HETATM   13  H           1     -19.500  -5.221 -10.629  0.00  0.00     0.000 HD
ENDBRANCH  11  12
ENDBRANCH   6  11
ENDBRANCH   3   6
ENDBRANCH   1   2
BRANCH   1  14
HETATM   14  C           1     -21.543  -8.636  -4.368  0.00  0.00     0.074 C 
BRANCH  14  15
HETATM   15  C           1     -21.715  -8.403  -2.899  0.00  0.00    -0.056 A 
HETATM   16  C           1     -21.875  -7.107  -2.411  0.00  0.00     0.010 A 
HETATM   17  C           1     -22.036  -6.891  -1.043  0.00  0.00     0.037 A 
HETATM   18  C           1     -22.036  -7.972  -0.161  0.00  0.00     0.065 A 
HETATM   19  C           1     -21.876  -9.269  -0.649  0.00  0.00     0.037 A 
HETATM   20  C           1     -21.715  -9.485  -2.018  0.00  0.00     0.010 A 
BRANCH  18  21
HETATM   21  O           1     -22.192  -7.762   1.168  0.00  0.00    -0.361 OA
HETATM   22  H           1     -22.903  -7.109   1.288  0.00  0.00     0.217 HD
ENDBRANCH  18  21
ENDBRANCH  14  15
ENDBRANCH   1  14
BRANCH   1  23
HETATM   23  C           1     -19.170  -8.648  -5.074  0.00  0.00     0.197 C 
HETATM   24  O           1     -18.614  -9.167  -4.083  0.00  0.00    -0.646 OA
HETATM   25  O           1     -18.714  -8.846  -6.221  0.00  0.00    -0.646 OA
ENDBRANCH   1  23
TORSDOF 9
ENDMDL
MODEL 5
REMARK VINA RESULT:      -5.9     11.672     13.784
REMARK  9 active torsions:
REMARK  status: ('A' for Active; 'I' for Inactive)
REMARK    1  A    between atoms: N_2  and  C_19 
REMARK       I    between atoms: N_2  and  C_3 
REMARK    2  A    between atoms: C_3  and  C_10 
REMARK    3  A    between atoms: N_7  and  C_10 
REMARK    4  A    between atoms: Se_8  and  C_9 
REMARK    5  A    between atoms: C_9  and  C_10 
REMARK    6  A    between atoms: O_11  and  C_12 
REMARK    7  A    between atoms: C_15  and  C_18 
REMARK    8  A    between atoms: C_18  and  C_19 
REMARK    9  A    between atoms: C_19  and  C_20 
ROOT
HETATM    1  C           1     -27.529  -6.940 -17.112  0.00  0.00     0.189 C 
ENDROOT
BRANCH   1   2
HETATM    2  N           1     -28.801  -6.242 -17.142  0.00  0.00    -0.344 N 
HETATM    3  C           1     -29.916  -6.874 -17.620  0.00  0.00     0.249 C 
HETATM    4  O           1     -29.844  -8.013 -18.016  0.00  0.00    -0.271 OA
HETATM    5  H           1     -28.862  -5.289 -16.808  0.00  0.00     0.163 HD
BRANCH   3   6
HETATM    6  C           1     -31.240  -6.148 -17.651  0.00  0.00     0.274 C 
BRANCH   6   7
HETATM    7  N           1     -32.333  -7.087 -17.233  0.00  0.00    -0.067 N 
HETATM    8  H           1     -32.761  -6.749 -16.342  0.00  0.00     0.275 HD
HETATM    9  H           1     -33.065  -7.123 -17.978  0.00  0.00     0.275 HD
HETATM   10  H           1     -31.934  -8.042 -17.089  0.00  0.00     0.275 HD
ENDBRANCH   6   7
BRANCH   6  11
HETATM   11  C           1     -31.194  -4.965 -16.694  0.00  0.00     0.045 C 
BRANCH  11  12
HETATM   12 Se           1     -32.537  -3.653 -17.218  0.00  0.00     0.000 Se
HETATM   13  H           1     -32.313  -3.828 -18.662  0.00  0.00     0.000 HD
ENDBRANCH  11  12
ENDBRANCH   6  11
ENDBRANCH   3   6
ENDBRANCH   1   2
BRANCH   1  14
HETATM   14  C           1     -26.454  -6.061 -17.735  0.00  0.00     0.074 C 
BRANCH  14  15
HETATM   15  C           1     -25.911  -6.728 -18.960  0.00  0.00    -0.056 A 
HETATM   16  C           1     -26.755  -7.014 -20.033  0.00  0.00     0.010 A 
HETATM   17  C           1     -26.248  -7.635 -21.174  0.00  0.00     0.037 A 
HETATM   18  C           1     -24.896  -7.971 -21.243  0.00  0.00     0.065 A 
HETATM   19  C           1     -24.051  -7.684 -20.171  0.00  0.00     0.037 A 
HETATM   20  C           1     -24.558  -7.063 -19.030  0.00  0.00     0.010 A 
BRANCH  18  21
HETATM   21  O           1     -24.404  -8.574 -22.352  0.00  0.00    -0.361 OA
HETATM   22  H           1     -23.543  -8.170 -22.557  0.00  0.00     0.217 HD
ENDBRANCH  18  21
ENDBRANCH  14  15
ENDBRANCH   1  14
BRANCH   1  23
HETATM   23  C           1     -27.160  -7.250 -15.682  0.00  0.00     0.197 C 
HETATM   24  O           1     -25.960  -7.253 -15.333  0.00  0.00    -0.646 OA
HETATM   25  O           1     -28.054  -7.503 -14.846  0.00  0.00    -0.646 OA
ENDBRANCH   1  23
TORSDOF 9
ENDMDL
MODEL 6
REMARK VINA RESULT:      -5.9      2.118      2.956
REMARK  9 active torsions:
REMARK  status: ('A' for Active; 'I' for Inactive)
REMARK    1  A    between atoms: N_2  and  C_19 
REMARK       I    between atoms: N_2  and  C_3 
REMARK    2  A    between atoms: C_3  and  C_10 
REMARK    3  A    between atoms: N_7  and  C_10 
REMARK    4  A    between atoms: Se_8  and  C_9 
REMARK    5  A    between atoms: C_9  and  C_10 
REMARK    6  A    between atoms: O_11  and  C_12 
REMARK    7  A    between atoms: C_15  and  C_18 
REMARK    8  A    between atoms: C_18  and  C_19 
REMARK    9  A    between atoms: C_19  and  C_20 
ROOT
HETATM    1  C           1     -21.245  -6.829  -4.509  0.00  0.00     0.189 C 
ENDROOT
BRANCH   1   2
HETATM    2  N           1     -21.064  -7.291  -3.145  0.00  0.00    -0.344 N 
HETATM    3  C           1     -21.889  -6.834  -2.154  0.00  0.00     0.249 C 
HETATM    4  O           1     -22.769  -6.048  -2.412  0.00  0.00    -0.271 OA
HETATM    5  H           1     -20.328  -7.950  -2.929  0.00  0.00     0.163 HD
BRANCH   3   6
HETATM    6  C           1     -21.701  -7.315  -0.735  0.00  0.00     0.274 C 
BRANCH   6   7
HETATM    7  N           1     -23.043  -7.531  -0.100  0.00  0.00    -0.067 N 
HETATM    8  H           1     -23.004  -8.373   0.518  0.00  0.00     0.275 HD
HETATM    9  H           1     -23.299  -6.693   0.469  0.00  0.00     0.275 HD
HETATM   10  H           1     -23.760  -7.680  -0.846  0.00  0.00     0.275 HD
ENDBRANCH   6   7
BRANCH   6  11
HETATM   11  C           1     -20.924  -8.623  -0.739  0.00  0.00     0.045 C 
BRANCH  11  12
HETATM   12 Se           1     -22.169 -10.118  -0.860  0.00  0.00     0.000 Se
HETATM   13  H           1     -21.464 -10.766  -1.978  0.00  0.00     0.000 HD
ENDBRANCH  11  12
ENDBRANCH   6  11
ENDBRANCH   3   6
ENDBRANCH   1   2
BRANCH   1  14
HETATM   14  C           1     -20.505  -5.513  -4.701  0.00  0.00     0.074 C 
BRANCH  14  15
HETATM   15  C           1     -20.676  -5.044  -6.112  0.00  0.00    -0.056 A 
HETATM   16  C           1     -19.557  -4.760  -6.894  0.00  0.00     0.010 A 
HETATM   17  C           1     -19.717  -4.324  -8.209  0.00  0.00     0.037 A 
HETATM   18  C           1     -20.996  -4.171  -8.743  0.00  0.00     0.065 A 
HETATM   19  C           1     -22.115  -4.456  -7.961  0.00  0.00     0.037 A 
HETATM   20  C           1     -21.956  -4.893  -6.646  0.00  0.00     0.010 A 
BRANCH  18  21
HETATM   21  O           1     -21.151  -3.748 -10.020  0.00  0.00    -0.361 OA
HETATM   22  H           1     -20.838  -2.829 -10.072  0.00  0.00     0.217 HD
ENDBRANCH  18  21
ENDBRANCH  14  15
ENDBRANCH   1  14
BRANCH   1  23
HETATM   23  C           1     -20.696  -7.860  -5.465  0.00  0.00     0.197 C 
HETATM   24  O           1     -19.470  -8.096  -5.492  0.00  0.00    -0.646 OA
HETATM   25  O           1     -21.469  -8.477  -6.229  0.00  0.00    -0.646 OA
ENDBRANCH   1  23
TORSDOF 9
ENDMDL
MODEL 7
REMARK VINA RESULT:      -5.7      3.268      4.592
REMARK  9 active torsions:
REMARK  status: ('A' for Active; 'I' for Inactive)
REMARK    1  A    between atoms: N_2  and  C_19 
REMARK       I    between atoms: N_2  and  C_3 
REMARK    2  A    between atoms: C_3  and  C_10 
REMARK    3  A    between atoms: N_7  and  C_10 
REMARK    4  A    between atoms: Se_8  and  C_9 
REMARK    5  A    between atoms: C_9  and  C_10 
REMARK    6  A    between atoms: O_11  and  C_12 
REMARK    7  A    between atoms: C_15  and  C_18 
REMARK    8  A    between atoms: C_18  and  C_19 
REMARK    9  A    between atoms: C_19  and  C_20 
ROOT
HETATM    1  C           1     -21.331  -7.104  -4.147  0.00  0.00     0.189 C 
ENDROOT
BRANCH   1   2
HETATM    2  N           1     -21.462  -8.529  -4.389  0.00  0.00    -0.344 N 
HETATM    3  C           1     -20.375  -9.257  -4.787  0.00  0.00     0.249 C 
HETATM    4  O           1     -19.306  -8.716  -4.937  0.00  0.00    -0.271 OA
HETATM    5  H           1     -22.358  -8.982  -4.263  0.00  0.00     0.163 HD
BRANCH   3   6
HETATM    6  C           1     -20.511 -10.740  -5.039  0.00  0.00     0.274 C 
BRANCH   6   7
HETATM    7  N           1     -21.127 -10.962  -6.388  0.00  0.00    -0.067 N 
HETATM    8  H           1     -21.438 -10.046  -6.784  0.00  0.00     0.275 HD
HETATM    9  H           1     -20.422 -11.396  -7.026  0.00  0.00     0.275 HD
HETATM   10  H           1     -21.950 -11.598  -6.293  0.00  0.00     0.275 HD
ENDBRANCH   6   7
BRANCH   6  11
HETATM   11  C           1     -19.136 -11.391  -4.995  0.00  0.00     0.045 C 
BRANCH  11  12
HETATM   12 Se           1     -18.589 -11.878  -6.801  0.00  0.00     0.000 Se
HETATM   13  H           1     -19.486 -10.912  -7.458  0.00  0.00     0.000 HD
ENDBRANCH  11  12
ENDBRANCH   6  11
ENDBRANCH   3   6
ENDBRANCH   1   2
BRANCH   1  14
HETATM   14  C           1     -22.377  -6.354  -4.960  0.00  0.00     0.074 C 
BRANCH  14  15
HETATM   15  C           1     -21.710  -5.635  -6.091  0.00  0.00    -0.056 A 
HETATM   16  C           1     -20.337  -5.771  -6.293  0.00  0.00     0.010 A 
HETATM   17  C           1     -19.716  -5.102  -7.347  0.00  0.00     0.037 A 
HETATM   18  C           1     -20.468  -4.294  -8.200  0.00  0.00     0.065 A 
HETATM   19  C           1     -21.842  -4.158  -7.999  0.00  0.00     0.037 A 
HETATM   20  C           1     -22.463  -4.828  -6.945  0.00  0.00     0.010 A 
BRANCH  18  21
HETATM   21  O           1     -19.865  -3.644  -9.224  0.00  0.00    -0.361 OA
HETATM   22  H           1     -19.679  -4.293  -9.924  0.00  0.00     0.217 HD
ENDBRANCH  18  21
ENDBRANCH  14  15
ENDBRANCH   1  14
BRANCH   1  23
HETATM   23  C           1     -21.538  -6.823  -2.679  0.00  0.00     0.197 C 
HETATM   24  O           1     -22.372  -5.966  -2.319  0.00  0.00    -0.646 OA
HETATM   25  O           1     -20.875  -7.448  -1.823  0.00  0.00    -0.646 OA
ENDBRANCH   1  23
TORSDOF 9
ENDMDL
MODEL 8
REMARK VINA RESULT:      -5.6      6.137      8.935
REMARK  9 active torsions:
REMARK  status: ('A' for Active; 'I' for Inactive)
REMARK    1  A    between atoms: N_2  and  C_19 
REMARK       I    between atoms: N_2  and  C_3 
REMARK    2  A    between atoms: C_3  and  C_10 
REMARK    3  A    between atoms: N_7  and  C_10 
REMARK    4  A    between atoms: Se_8  and  C_9 
REMARK    5  A    between atoms: C_9  and  C_10 
REMARK    6  A    between atoms: O_11  and  C_12 
REMARK    7  A    between atoms: C_15  and  C_18 
REMARK    8  A    between atoms: C_18  and  C_19 
REMARK    9  A    between atoms: C_19  and  C_20 
ROOT
HETATM    1  C           1     -21.687  -8.129  -1.894  0.00  0.00     0.189 C 
ENDROOT
BRANCH   1   2
HETATM    2  N           1     -20.463  -8.448  -2.604  0.00  0.00    -0.344 N 
HETATM    3  C           1     -20.477  -9.377  -3.609  0.00  0.00     0.249 C 
HETATM    4  O           1     -21.509  -9.930  -3.907  0.00  0.00    -0.271 OA
HETATM    5  H           1     -19.598  -7.985  -2.354  0.00  0.00     0.163 HD
BRANCH   3   6
HETATM    6  C           1     -19.203  -9.709  -4.347  0.00  0.00     0.274 C 
BRANCH   6   7
HETATM    7  N           1     -19.118  -8.879  -5.594  0.00  0.00    -0.067 N 
HETATM    8  H           1     -18.153  -8.940  -5.988  0.00  0.00     0.275 HD
HETATM    9  H           1     -19.804  -9.234  -6.297  0.00  0.00     0.275 HD
HETATM   10  H           1     -19.338  -7.883  -5.363  0.00  0.00     0.275 HD
ENDBRANCH   6   7
BRANCH   6  11
HETATM   11  C           1     -18.006  -9.412  -3.456  0.00  0.00     0.045 C 
BRANCH  11  12
HETATM   12 Se           1     -16.376 -10.029  -4.330  0.00  0.00     0.000 Se
HETATM   13  H           1     -16.883 -11.390  -4.573  0.00  0.00     0.000 HD
ENDBRANCH  11  12
ENDBRANCH   6  11
ENDBRANCH   3   6
ENDBRANCH   1   2
BRANCH   1  14
HETATM   14  C           1     -21.502  -8.414  -0.410  0.00  0.00     0.074 C 
BRANCH  14  15
HETATM   15  C           1     -22.023  -9.782  -0.095  0.00  0.00    -0.056 A 
HETATM   16  C           1     -23.365 -10.087  -0.319  0.00  0.00     0.010 A 
HETATM   17  C           1     -23.849 -11.361  -0.026  0.00  0.00     0.037 A 
HETATM   18  C           1     -22.992 -12.332   0.492  0.00  0.00     0.065 A 
HETATM   19  C           1     -21.649 -12.027   0.716  0.00  0.00     0.037 A 
HETATM   20  C           1     -21.164 -10.752   0.423  0.00  0.00     0.010 A 
BRANCH  18  21
HETATM   21  O           1     -23.462 -13.569   0.777  0.00  0.00    -0.361 OA
HETATM   22  H           1     -23.038 -13.871   1.598  0.00  0.00     0.217 HD
ENDBRANCH  18  21
ENDBRANCH  14  15
ENDBRANCH   1  14
BRANCH   1  23
HETATM   23  C           1     -22.014  -6.668  -2.089  0.00  0.00     0.197 C 
HETATM   24  O           1     -21.898  -6.148  -3.219  0.00  0.00    -0.646 OA
HETATM   25  O           1     -22.401  -5.980  -1.120  0.00  0.00    -0.646 OA
ENDBRANCH   1  23
TORSDOF 9
ENDMDL
MODEL 9
REMARK VINA RESULT:      -5.5      4.278      7.310
REMARK  9 active torsions:
REMARK  status: ('A' for Active; 'I' for Inactive)
REMARK    1  A    between atoms: N_2  and  C_19 
REMARK       I    between atoms: N_2  and  C_3 
REMARK    2  A    between atoms: C_3  and  C_10 
REMARK    3  A    between atoms: N_7  and  C_10 
REMARK    4  A    between atoms: Se_8  and  C_9 
REMARK    5  A    between atoms: C_9  and  C_10 
REMARK    6  A    between atoms: O_11  and  C_12 
REMARK    7  A    between atoms: C_15  and  C_18 
REMARK    8  A    between atoms: C_18  and  C_19 
REMARK    9  A    between atoms: C_19  and  C_20 
ROOT
HETATM    1  C           1     -21.641  -5.028  -8.323  0.00  0.00     0.189 C 
ENDROOT
BRANCH   1   2
HETATM    2  N           1     -21.313  -4.280  -9.522  0.00  0.00    -0.344 N 
HETATM    3  C           1     -22.302  -3.930 -10.401  0.00  0.00     0.249 C 
HETATM    4  O           1     -23.447  -4.244 -10.180  0.00  0.00    -0.271 OA
HETATM    5  H           1     -20.354  -4.016  -9.707  0.00  0.00     0.163 HD
BRANCH   3   6
HETATM    6  C           1     -21.961  -3.151 -11.648  0.00  0.00     0.274 C 
BRANCH   6   7
HETATM    7  N           1     -21.215  -4.037 -12.602  0.00  0.00    -0.067 N 
HETATM    8  H           1     -21.894  -4.514 -13.237  0.00  0.00     0.275 HD
HETATM    9  H           1     -20.554  -3.460 -13.170  0.00  0.00     0.275 HD
HETATM   10  H           1     -20.679  -4.754 -12.063  0.00  0.00     0.275 HD
ENDBRANCH   6   7
BRANCH   6  11
HETATM   11  C           1     -23.242  -2.660 -12.308  0.00  0.00     0.045 C 
BRANCH  11  12
HETATM   12 Se           1     -23.041  -2.721 -14.245  0.00  0.00     0.000 Se
HETATM   13  H           1     -21.686  -2.143 -14.239  0.00  0.00     0.000 HD
ENDBRANCH  11  12
ENDBRANCH   6  11
ENDBRANCH   3   6
ENDBRANCH   1   2
BRANCH   1  14
HETATM   14  C           1     -20.363  -5.570  -7.698  0.00  0.00     0.074 C 
BRANCH  14  15
HETATM   15  C           1     -20.668  -6.139  -6.348  0.00  0.00    -0.056 A 
HETATM   16  C           1     -21.187  -7.428  -6.234  0.00  0.00     0.010 A 
HETATM   17  C           1     -21.471  -7.957  -4.976  0.00  0.00     0.037 A 
HETATM   18  C           1     -21.236  -7.198  -3.830  0.00  0.00     0.065 A 
HETATM   19  C           1     -20.715  -5.909  -3.943  0.00  0.00     0.037 A 
HETATM   20  C           1     -20.432  -5.379  -5.202  0.00  0.00     0.010 A 
BRANCH  18  21
HETATM   21  O           1     -21.511  -7.713  -2.607  0.00  0.00    -0.361 OA
HETATM   22  H           1     -21.571  -6.975  -1.977  0.00  0.00     0.217 HD
ENDBRANCH  18  21
ENDBRANCH  14  15
ENDBRANCH   1  14
BRANCH   1  23
HETATM   23  C           1     -22.338  -4.121  -7.339  0.00  0.00     0.197 C 
HETATM   24  O           1     -21.830  -3.020  -7.037  0.00  0.00    -0.646 OA
HETATM   25  O           1     -23.423  -4.471  -6.826  0.00  0.00    -0.646 OA
ENDBRANCH   1  23
TORSDOF 9
ENDMDL
