MODEL 1
REMARK VINA RESULT:      -6.3      0.000      0.000
REMARK  6 active torsions:
REMARK  status: ('A' for Active; 'I' for Inactive)
REMARK    1  A    between atoms: C_4  and  C_13 
REMARK    2  A    between atoms: C_6  and  C_15 
REMARK    3  A    between atoms: N_12  and  C_13 
REMARK       I    between atoms: N_12  and  C_16 
REMARK    4  A    between atoms: N_14  and  C_17 
REMARK    5  A    between atoms: C_15  and  C_17 
REMARK    6  A    between atoms: C_16  and  C_17 
ROOT
HETATM    1  C           1     -34.369  -1.854 -11.848  0.00  0.00     0.278 C 
ENDROOT
BRANCH   1   2
HETATM    2  N           1     -34.827  -1.571 -10.448  0.00  0.00    -0.066 N 
HETATM    3  H           1     -35.068  -2.470  -9.972  0.00  0.00     0.275 HD
HETATM    4  H           1     -34.062  -1.092  -9.922  0.00  0.00     0.275 HD
HETATM    5  H           1     -35.671  -0.955 -10.474  0.00  0.00     0.275 HD
ENDBRANCH   1   2
BRANCH   1   6
HETATM    6  C           1     -34.254  -3.359 -12.050  0.00  0.00     0.021 C 
HETATM    7  C           1     -32.808  -3.790 -11.844  0.00  0.00     0.012 C 
BRANCH   6   8
HETATM    8  C           1     -35.144  -4.074 -11.042  0.00  0.00     0.002 C 
HETATM    9  C           1     -34.423  -5.307 -10.512  0.00  0.00     0.005 C 
ENDBRANCH   6   8
ENDBRANCH   1   6
BRANCH   1  10
HETATM   10  C           1     -35.369  -1.288 -12.828  0.00  0.00     0.249 C 
HETATM   11  O           1     -36.549  -1.322 -12.572  0.00  0.00    -0.271 OA
HETATM   12  N           1     -34.938  -0.738 -14.005  0.00  0.00    -0.349 N 
HETATM   13  H           1     -33.949  -0.711 -14.218  0.00  0.00     0.163 HD
BRANCH  12  14
HETATM   14  C           1     -35.898  -0.195 -14.946  0.00  0.00     0.235 C 
BRANCH  14  15
HETATM   15  C           1     -35.777  -0.919 -16.263  0.00  0.00     0.191 C 
HETATM   16  O           1     -34.765  -1.611 -16.506  0.00  0.00    -0.647 OA
HETATM   17  O           1     -36.690  -0.828 -17.113  0.00  0.00    -0.647 OA
ENDBRANCH  14  15
ENDBRANCH  12  14
ENDBRANCH   1  10
TORSDOF 6
ENDMDL
MODEL 2
REMARK VINA RESULT:      -6.2     11.521     12.734
REMARK  6 active torsions:
REMARK  status: ('A' for Active; 'I' for Inactive)
REMARK    1  A    between atoms: C_4  and  C_13 
REMARK    2  A    between atoms: C_6  and  C_15 
REMARK    3  A    between atoms: N_12  and  C_13 
REMARK       I    between atoms: N_12  and  C_16 
REMARK    4  A    between atoms: N_14  and  C_17 
REMARK    5  A    between atoms: C_15  and  C_17 
REMARK    6  A    between atoms: C_16  and  C_17 
ROOT
HETATM    1  C           1     -22.998  -3.514  -9.602  0.00  0.00     0.278 C 
ENDROOT
BRANCH   1   2
HETATM    2  N           1     -24.139  -3.629  -8.635  0.00  0.00    -0.066 N 
HETATM    3  H           1     -24.903  -4.198  -9.065  0.00  0.00     0.275 HD
HETATM    4  H           1     -23.807  -4.095  -7.760  0.00  0.00     0.275 HD
HETATM    5  H           1     -24.500  -2.676  -8.407  0.00  0.00     0.275 HD
ENDBRANCH   1   2
BRANCH   1   6
HETATM    6  C           1     -21.832  -4.364  -9.115  0.00  0.00     0.021 C 
HETATM    7  C           1     -20.618  -4.117 -10.000  0.00  0.00     0.012 C 
BRANCH   6   8
HETATM    8  C           1     -21.497  -3.988  -7.678  0.00  0.00     0.002 C 
HETATM    9  C           1     -20.051  -4.362  -7.378  0.00  0.00     0.005 C 
ENDBRANCH   6   8
ENDBRANCH   1   6
BRANCH   1  10
HETATM   10  C           1     -23.441  -3.997 -10.962  0.00  0.00     0.249 C 
HETATM   11  O           1     -23.792  -5.144 -11.110  0.00  0.00    -0.271 OA
HETATM   12  N           1     -23.444  -3.137 -12.026  0.00  0.00    -0.349 N 
HETATM   13  H           1     -23.150  -2.177 -11.902  0.00  0.00     0.163 HD
BRANCH  12  14
HETATM   14  C           1     -23.870  -3.601 -13.332  0.00  0.00     0.235 C 
BRANCH  14  15
HETATM   15  C           1     -23.464  -2.596 -14.381  0.00  0.00     0.191 C 
HETATM   16  O           1     -24.055  -1.497 -14.456  0.00  0.00    -0.647 OA
HETATM   17  O           1     -22.536  -2.862 -15.176  0.00  0.00    -0.647 OA
ENDBRANCH  14  15
ENDBRANCH  12  14
ENDBRANCH   1  10
TORSDOF 6
ENDMDL
MODEL 3
REMARK VINA RESULT:      -5.7     10.860     12.188
REMARK  6 active torsions:
REMARK  status: ('A' for Active; 'I' for Inactive)
REMARK    1  A    between atoms: C_4  and  C_13 
REMARK    2  A    between atoms: C_6  and  C_15 
REMARK    3  A    between atoms: N_12  and  C_13 
REMARK       I    between atoms: N_12  and  C_16 
REMARK    4  A    between atoms: N_14  and  C_17 
REMARK    5  A    between atoms: C_15  and  C_17 
REMARK    6  A    between atoms: C_16  and  C_17 
ROOT
HETATM    1  C           1     -25.109  -6.561 -19.003  0.00  0.00     0.278 C 
ENDROOT
BRANCH   1   2
HETATM    2  N           1     -24.306  -7.518 -18.174  0.00  0.00    -0.066 N 
HETATM    3  H           1     -24.863  -8.387 -18.008  0.00  0.00     0.275 HD
HETATM    4  H           1     -23.423  -7.760 -18.679  0.00  0.00     0.275 HD
HETATM    5  H           1     -24.073  -7.075 -17.257  0.00  0.00     0.275 HD
ENDBRANCH   1   2
BRANCH   1   6
HETATM    6  C           1     -25.313  -7.144 -20.395  0.00  0.00     0.021 C 
HETATM    7  C           1     -25.359  -6.015 -21.417  0.00  0.00     0.012 C 
BRANCH   6   8
HETATM    8  C           1     -24.158  -8.080 -20.726  0.00  0.00     0.002 C 
HETATM    9  C           1     -23.870  -8.022 -22.221  0.00  0.00     0.005 C 
ENDBRANCH   6   8
ENDBRANCH   1   6
BRANCH   1  10
HETATM   10  C           1     -26.451  -6.333 -18.350  0.00  0.00     0.249 C 
HETATM   11  O           1     -26.511  -5.811 -17.262  0.00  0.00    -0.271 OA
HETATM   12  N           1     -27.598  -6.717 -18.990  0.00  0.00    -0.349 N 
HETATM   13  H           1     -27.546  -7.155 -19.901  0.00  0.00     0.163 HD
BRANCH  12  14
HETATM   14  C           1     -28.887  -6.499 -18.363  0.00  0.00     0.235 C 
BRANCH  14  15
HETATM   15  C           1     -29.576  -7.823 -18.153  0.00  0.00     0.191 C 
HETATM   16  O           1     -30.058  -8.439 -19.128  0.00  0.00    -0.647 OA
HETATM   17  O           1     -29.667  -8.306 -17.003  0.00  0.00    -0.647 OA
ENDBRANCH  14  15
ENDBRANCH  12  14
ENDBRANCH   1  10
TORSDOF 6
ENDMDL
MODEL 4
REMARK VINA RESULT:      -5.6     11.517     12.910
REMARK  6 active torsions:
REMARK  status: ('A' for Active; 'I' for Inactive)
REMARK    1  A    between atoms: C_4  and  C_13 
REMARK    2  A    between atoms: C_6  and  C_15 
REMARK    3  A    between atoms: N_12  and  C_13 
REMARK       I    between atoms: N_12  and  C_16 
REMARK    4  A    between atoms: N_14  and  C_17 
REMARK    5  A    between atoms: C_15  and  C_17 
REMARK    6  A    between atoms: C_16  and  C_17 
ROOT
HETATM    1  C           1     -21.730  -4.414 -10.506  0.00  0.00     0.278 C 
ENDROOT
BRANCH   1   2
HETATM    2  N           1     -20.266  -4.659 -10.290  0.00  0.00    -0.066 N 
HETATM    3  H           1     -20.078  -4.769  -9.267  0.00  0.00     0.275 HD
HETATM    4  H           1     -19.981  -5.530 -10.793  0.00  0.00     0.275 HD
HETATM    5  H           1     -19.718  -3.849 -10.658  0.00  0.00     0.275 HD
ENDBRANCH   1   2
BRANCH   1   6
HETATM    6  C           1     -22.335  -3.815  -9.243  0.00  0.00     0.021 C 
HETATM    7  C           1     -23.854  -3.861  -9.337  0.00  0.00     0.012 C 
BRANCH   6   8
HETATM    8  C           1     -21.878  -4.617  -8.032  0.00  0.00     0.002 C 
HETATM    9  C           1     -21.208  -3.685  -7.030  0.00  0.00     0.005 C 
ENDBRANCH   6   8
ENDBRANCH   1   6
BRANCH   1  10
HETATM   10  C           1     -21.915  -3.457 -11.658  0.00  0.00     0.249 C 
HETATM   11  O           1     -21.432  -2.350 -11.606  0.00  0.00    -0.271 OA
HETATM   12  N           1     -22.629  -3.842 -12.760  0.00  0.00    -0.349 N 
HETATM   13  H           1     -23.033  -4.769 -12.802  0.00  0.00     0.163 HD
BRANCH  12  14
HETATM   14  C           1     -22.807  -2.923 -13.867  0.00  0.00     0.235 C 
BRANCH  14  15
HETATM   15  C           1     -24.198  -2.342 -13.820  0.00  0.00     0.191 C 
HETATM   16  O           1     -25.040  -2.799 -13.018  0.00  0.00    -0.647 OA
HETATM   17  O           1     -24.509  -1.402 -14.584  0.00  0.00    -0.647 OA
ENDBRANCH  14  15
ENDBRANCH  12  14
ENDBRANCH   1  10
TORSDOF 6
ENDMDL
MODEL 5
REMARK VINA RESULT:      -5.5     12.118     13.566
REMARK  6 active torsions:
REMARK  status: ('A' for Active; 'I' for Inactive)
REMARK    1  A    between atoms: C_4  and  C_13 
REMARK    2  A    between atoms: C_6  and  C_15 
REMARK    3  A    between atoms: N_12  and  C_13 
REMARK       I    between atoms: N_12  and  C_16 
REMARK    4  A    between atoms: N_14  and  C_17 
REMARK    5  A    between atoms: C_15  and  C_17 
REMARK    6  A    between atoms: C_16  and  C_17 
ROOT
HETATM    1  C           1     -21.849  -3.871  -8.292  0.00  0.00     0.278 C 
ENDROOT
BRANCH   1   2
HETATM    2  N           1     -23.270  -4.050  -7.847  0.00  0.00    -0.066 N 
HETATM    3  H           1     -23.822  -3.196  -8.090  0.00  0.00     0.275 HD
HETATM    4  H           1     -23.684  -4.881  -8.328  0.00  0.00     0.275 HD
HETATM    5  H           1     -23.296  -4.198  -6.813  0.00  0.00     0.275 HD
ENDBRANCH   1   2
BRANCH   1   6
HETATM    6  C           1     -20.985  -4.967  -7.685  0.00  0.00     0.021 C 
HETATM    7  C           1     -19.597  -4.415  -7.389  0.00  0.00     0.012 C 
BRANCH   6   8
HETATM    8  C           1     -21.623  -5.455  -6.390  0.00  0.00     0.002 C 
HETATM    9  C           1     -21.091  -6.842  -6.053  0.00  0.00     0.005 C 
ENDBRANCH   6   8
ENDBRANCH   1   6
BRANCH   1  10
HETATM   10  C           1     -21.781  -3.950  -9.798  0.00  0.00     0.249 C 
HETATM   11  O           1     -20.925  -4.618 -10.329  0.00  0.00    -0.271 OA
HETATM   12  N           1     -22.688  -3.267 -10.562  0.00  0.00    -0.349 N 
HETATM   13  H           1     -23.405  -2.708 -10.117  0.00  0.00     0.163 HD
BRANCH  12  14
HETATM   14  C           1     -22.623  -3.343 -12.008  0.00  0.00     0.235 C 
BRANCH  14  15
HETATM   15  C           1     -24.005  -3.168 -12.585  0.00  0.00     0.191 C 
HETATM   16  O           1     -24.992  -3.070 -11.825  0.00  0.00    -0.647 OA
HETATM   17  O           1     -24.163  -3.121 -13.825  0.00  0.00    -0.647 OA
ENDBRANCH  14  15
ENDBRANCH  12  14
ENDBRANCH   1  10
TORSDOF 6
ENDMDL
MODEL 6
REMARK VINA RESULT:      -5.4     13.467     15.438
REMARK  6 active torsions:
REMARK  status: ('A' for Active; 'I' for Inactive)
REMARK    1  A    between atoms: C_4  and  C_13 
REMARK    2  A    between atoms: C_6  and  C_15 
REMARK    3  A    between atoms: N_12  and  C_13 
REMARK       I    between atoms: N_12  and  C_16 
REMARK    4  A    between atoms: N_14  and  C_17 
REMARK    5  A    between atoms: C_15  and  C_17 
REMARK    6  A    between atoms: C_16  and  C_17 
ROOT
HETATM    1  C           1     -22.643  -4.476  -8.895  0.00  0.00     0.278 C 
ENDROOT
BRANCH   1   2
HETATM    2  N           1     -23.946  -3.766  -8.675  0.00  0.00    -0.066 N 
HETATM    3  H           1     -24.170  -3.758  -7.654  0.00  0.00     0.275 HD
HETATM    4  H           1     -23.870  -2.784  -9.023  0.00  0.00     0.275 HD
HETATM    5  H           1     -24.705  -4.262  -9.194  0.00  0.00     0.275 HD
ENDBRANCH   1   2
BRANCH   1   6
HETATM    6  C           1     -21.875  -3.790 -10.016  0.00  0.00     0.021 C 
HETATM    7  C           1     -20.484  -4.401 -10.127  0.00  0.00     0.012 C 
BRANCH   6   8
HETATM    8  C           1     -22.619  -3.983 -11.331  0.00  0.00     0.002 C 
HETATM    9  C           1     -22.744  -2.643 -12.046  0.00  0.00     0.005 C 
ENDBRANCH   6   8
ENDBRANCH   1   6
BRANCH   1  10
HETATM   10  C           1     -21.827  -4.433  -7.625  0.00  0.00     0.249 C 
HETATM   11  O           1     -21.497  -3.370  -7.156  0.00  0.00    -0.271 OA
HETATM   12  N           1     -21.462  -5.599  -7.007  0.00  0.00    -0.349 N 
HETATM   13  H           1     -21.739  -6.488  -7.401  0.00  0.00     0.163 HD
BRANCH  12  14
HETATM   14  C           1     -20.678  -5.558  -5.788  0.00  0.00     0.235 C 
BRANCH  14  15
HETATM   15  C           1     -21.540  -5.971  -4.621  0.00  0.00     0.191 C 
HETATM   16  O           1     -22.728  -6.310  -4.810  0.00  0.00    -0.647 OA
HETATM   17  O           1     -21.065  -5.976  -3.464  0.00  0.00    -0.647 OA
ENDBRANCH  14  15
ENDBRANCH  12  14
ENDBRANCH   1  10
TORSDOF 6
ENDMDL
MODEL 7
REMARK VINA RESULT:      -5.2     11.034     12.583
REMARK  6 active torsions:
REMARK  status: ('A' for Active; 'I' for Inactive)
REMARK    1  A    between atoms: C_4  and  C_13 
REMARK    2  A    between atoms: C_6  and  C_15 
REMARK    3  A    between atoms: N_12  and  C_13 
REMARK       I    between atoms: N_12  and  C_16 
REMARK    4  A    between atoms: N_14  and  C_17 
REMARK    5  A    between atoms: C_15  and  C_17 
REMARK    6  A    between atoms: C_16  and  C_17 
ROOT
HETATM    1  C           1     -24.320  -6.777 -18.871  0.00  0.00     0.278 C 
ENDROOT
BRANCH   1   2
HETATM    2  N           1     -22.942  -7.367 -18.907  0.00  0.00    -0.066 N 
HETATM    3  H           1     -23.010  -8.408 -18.975  0.00  0.00     0.275 HD
HETATM    4  H           1     -22.426  -6.996 -19.737  0.00  0.00     0.275 HD
HETATM    5  H           1     -22.428  -7.109 -18.034  0.00  0.00     0.275 HD
ENDBRANCH   1   2
BRANCH   1   6
HETATM    6  C           1     -25.170  -7.408 -19.965  0.00  0.00     0.021 C 
HETATM    7  C           1     -25.896  -6.316 -20.739  0.00  0.00     0.012 C 
BRANCH   6   8
HETATM    8  C           1     -24.273  -8.191 -20.915  0.00  0.00     0.002 C 
HETATM    9  C           1     -24.299  -7.538 -22.292  0.00  0.00     0.005 C 
ENDBRANCH   6   8
ENDBRANCH   1   6
BRANCH   1  10
HETATM   10  C           1     -24.948  -7.048 -17.525  0.00  0.00     0.249 C 
HETATM   11  O           1     -24.375  -7.744 -16.721  0.00  0.00    -0.271 OA
HETATM   12  N           1     -26.166  -6.504 -17.216  0.00  0.00    -0.349 N 
HETATM   13  H           1     -26.645  -5.921 -17.890  0.00  0.00     0.163 HD
BRANCH  12  14
HETATM   14  C           1     -26.769  -6.764 -15.924  0.00  0.00     0.235 C 
BRANCH  14  15
HETATM   15  C           1     -28.266  -6.617 -16.028  0.00  0.00     0.191 C 
HETATM   16  O           1     -28.913  -7.345 -16.812  0.00  0.00    -0.647 OA
HETATM   17  O           1     -28.862  -5.768 -15.330  0.00  0.00    -0.647 OA
ENDBRANCH  14  15
ENDBRANCH  12  14
ENDBRANCH   1  10
TORSDOF 6
ENDMDL
MODEL 8
REMARK VINA RESULT:      -5.0     10.983     12.501
REMARK  6 active torsions:
REMARK  status: ('A' for Active; 'I' for Inactive)
REMARK    1  A    between atoms: C_4  and  C_13 
REMARK    2  A    between atoms: C_6  and  C_15 
REMARK    3  A    between atoms: N_12  and  C_13 
REMARK       I    between atoms: N_12  and  C_16 
REMARK    4  A    between atoms: N_14  and  C_17 
REMARK    5  A    between atoms: C_15  and  C_17 
REMARK    6  A    between atoms: C_16  and  C_17 
ROOT
HETATM    1  C           1     -25.038  -6.659 -19.363  0.00  0.00     0.278 C 
ENDROOT
BRANCH   1   2
HETATM    2  N           1     -24.267  -7.456 -18.354  0.00  0.00    -0.066 N 
HETATM    3  H           1     -23.534  -6.851 -17.919  0.00  0.00     0.275 HD
HETATM    4  H           1     -24.918  -7.802 -17.613  0.00  0.00     0.275 HD
HETATM    5  H           1     -23.812  -8.269 -18.825  0.00  0.00     0.275 HD
ENDBRANCH   1   2
BRANCH   1   6
HETATM    6  C           1     -24.939  -7.333 -20.725  0.00  0.00     0.021 C 
HETATM    7  C           1     -24.856  -6.271 -21.813  0.00  0.00     0.012 C 
BRANCH   6   8
HETATM    8  C           1     -23.690  -8.202 -20.769  0.00  0.00     0.002 C 
HETATM    9  C           1     -23.178  -8.284 -22.202  0.00  0.00     0.005 C 
ENDBRANCH   6   8
ENDBRANCH   1   6
BRANCH   1  10
HETATM   10  C           1     -26.486  -6.581 -18.943  0.00  0.00     0.249 C 
HETATM   11  O           1     -27.355  -6.515 -19.780  0.00  0.00    -0.271 OA
HETATM   12  N           1     -26.814  -6.587 -17.614  0.00  0.00    -0.349 N 
HETATM   13  H           1     -26.086  -6.643 -16.914  0.00  0.00     0.163 HD
BRANCH  12  14
HETATM   14  C           1     -28.204  -6.513 -17.210  0.00  0.00     0.235 C 
BRANCH  14  15
HETATM   15  C           1     -28.296  -6.571 -15.706  0.00  0.00     0.191 C 
HETATM   16  O           1     -28.924  -5.688 -15.083  0.00  0.00    -0.647 OA
HETATM   17  O           1     -27.744  -7.503 -15.081  0.00  0.00    -0.647 OA
ENDBRANCH  14  15
ENDBRANCH  12  14
ENDBRANCH   1  10
TORSDOF 6
ENDMDL
MODEL 9
REMARK VINA RESULT:      -5.0     15.249     17.055
REMARK  6 active torsions:
REMARK  status: ('A' for Active; 'I' for Inactive)
REMARK    1  A    between atoms: C_4  and  C_13 
REMARK    2  A    between atoms: C_6  and  C_15 
REMARK    3  A    between atoms: N_12  and  C_13 
REMARK       I    between atoms: N_12  and  C_16 
REMARK    4  A    between atoms: N_14  and  C_17 
REMARK    5  A    between atoms: C_15  and  C_17 
REMARK    6  A    between atoms: C_16  and  C_17 
ROOT
HETATM    1  C           1     -20.493  -4.714  -7.048  0.00  0.00     0.278 C 
ENDROOT
BRANCH   1   2
HETATM    2  N           1     -19.017  -4.560  -7.268  0.00  0.00    -0.066 N 
HETATM    3  H           1     -18.557  -4.295  -6.368  0.00  0.00     0.275 HD
HETATM    4  H           1     -18.620  -5.465  -7.610  0.00  0.00     0.275 HD
HETATM    5  H           1     -18.846  -3.814  -7.980  0.00  0.00     0.275 HD
ENDBRANCH   1   2
BRANCH   1   6
HETATM    6  C           1     -21.199  -4.805  -8.394  0.00  0.00     0.021 C 
HETATM    7  C           1     -22.398  -3.866  -8.403  0.00  0.00     0.012 C 
BRANCH   6   8
HETATM    8  C           1     -20.234  -4.405  -9.501  0.00  0.00     0.002 C 
HETATM    9  C           1     -21.007  -4.182 -10.794  0.00  0.00     0.005 C 
ENDBRANCH   6   8
ENDBRANCH   1   6
BRANCH   1  10
HETATM   10  C           1     -20.754  -5.971  -6.254  0.00  0.00     0.249 C 
HETATM   11  O           1     -20.538  -7.052  -6.749  0.00  0.00    -0.271 OA
HETATM   12  N           1     -21.236  -5.886  -4.976  0.00  0.00    -0.349 N 
HETATM   13  H           1     -21.417  -4.980  -4.564  0.00  0.00     0.163 HD
BRANCH  12  14
HETATM   14  C           1     -21.488  -7.093  -4.214  0.00  0.00     0.235 C 
BRANCH  14  15
HETATM   15  C           1     -21.624  -6.747  -2.752  0.00  0.00     0.191 C 
HETATM   16  O           1     -22.470  -5.902  -2.386  0.00  0.00    -0.647 OA
HETATM   17  O           1     -20.892  -7.304  -1.906  0.00  0.00    -0.647 OA
ENDBRANCH  14  15
ENDBRANCH  12  14
ENDBRANCH   1  10
TORSDOF 6
ENDMDL
