MODEL 1
REMARK VINA RESULT:      -6.2      0.000      0.000
REMARK  8 active torsions:
REMARK  status: ('A' for Active; 'I' for Inactive)
REMARK    1  A    between atoms: N_3  and  C_19 
REMARK    2  A    between atoms: C_4  and  C_11 
REMARK    3  A    between atoms: C_4  and  S_17 
REMARK    4  A    between atoms: C_5  and  C_6 
REMARK    5  A    between atoms: C_6  and  C_15 
REMARK    6  A    between atoms: C_6  and  N_18 
REMARK    7  A    between atoms: C_11  and  C_19 
REMARK       I    between atoms: C_14  and  N_18 
REMARK    8  A    between atoms: C_14  and  C_19 
ROOT
HETATM    1  H           1     -22.151  -5.870  -9.331  0.00  0.00     0.163 HD
HETATM    2  O           1     -21.622  -3.621  -7.209  0.00  0.00    -0.271 OA
HETATM    3  C           1     -21.647  -4.735  -7.676  0.00  0.00     0.249 C 
HETATM    4  N           1     -22.130  -4.937  -8.940  0.00  0.00    -0.344 N 
ENDROOT
BRANCH   3   5
HETATM    5  C           1     -21.144  -5.904  -6.864  0.00  0.00     0.275 C 
BRANCH   5   6
HETATM    6  N           1     -19.720  -6.195  -7.236  0.00  0.00    -0.066 N 
HETATM    7  H           1     -19.136  -5.345  -7.067  0.00  0.00     0.275 HD
HETATM    8  H           1     -19.669  -6.457  -8.246  0.00  0.00     0.275 HD
HETATM    9  H           1     -19.362  -6.985  -6.652  0.00  0.00     0.275 HD
ENDBRANCH   5   6
BRANCH   5  10
HETATM   10  C           1     -21.223  -5.565  -5.382  0.00  0.00     0.053 C 
BRANCH  10  11
HETATM   11  C           1     -22.133  -6.565  -4.680  0.00  0.00     0.076 C 
BRANCH  11  12
HETATM   12  S           1     -21.290  -7.228  -3.216  0.00  0.00    -0.173 SA
HETATM   13  C           1     -22.169  -6.207  -2.000  0.00  0.00     0.089 C 
ENDBRANCH  11  12
ENDBRANCH  10  11
ENDBRANCH   5  10
ENDBRANCH   3   5
BRANCH   4  14
HETATM   14  C           1     -22.612  -3.814  -9.720  0.00  0.00     0.189 C 
BRANCH  14  15
HETATM   15  C           1     -24.120  -3.853  -9.778  0.00  0.00     0.197 C 
HETATM   16  O           1     -24.784  -2.839  -9.470  0.00  0.00    -0.646 OA
HETATM   17  O           1     -24.705  -4.898 -10.134  0.00  0.00    -0.646 OA
ENDBRANCH  14  15
BRANCH  14  18
HETATM   18  C           1     -22.047  -3.896 -11.132  0.00  0.00     0.010 C 
HETATM   19  C           1     -22.484  -2.671 -11.925  0.00  0.00     0.012 C 
HETATM   20  C           1     -20.526  -3.944 -11.068  0.00  0.00     0.012 C 
ENDBRANCH  14  18
ENDBRANCH   4  14
TORSDOF 8
ENDMDL
MODEL 2
REMARK VINA RESULT:      -5.1      3.374      6.806
REMARK  8 active torsions:
REMARK  status: ('A' for Active; 'I' for Inactive)
REMARK    1  A    between atoms: N_3  and  C_19 
REMARK    2  A    between atoms: C_4  and  C_11 
REMARK    3  A    between atoms: C_4  and  S_17 
REMARK    4  A    between atoms: C_5  and  C_6 
REMARK    5  A    between atoms: C_6  and  C_15 
REMARK    6  A    between atoms: C_6  and  N_18 
REMARK    7  A    between atoms: C_11  and  C_19 
REMARK       I    between atoms: C_14  and  N_18 
REMARK    8  A    between atoms: C_14  and  C_19 
ROOT
HETATM    1  H           1     -19.764  -6.761  -4.735  0.00  0.00     0.163 HD
HETATM    2  O           1     -22.630  -5.813  -5.589  0.00  0.00    -0.271 OA
HETATM    3  C           1     -21.423  -5.872  -5.593  0.00  0.00     0.249 C 
HETATM    4  N           1     -20.775  -6.713  -4.731  0.00  0.00    -0.344 N 
ENDROOT
BRANCH   3   5
HETATM    5  C           1     -20.631  -5.016  -6.552  0.00  0.00     0.275 C 
BRANCH   5   6
HETATM    6  N           1     -20.069  -5.877  -7.643  0.00  0.00    -0.066 N 
HETATM    7  H           1     -20.034  -5.332  -8.534  0.00  0.00     0.275 HD
HETATM    8  H           1     -20.678  -6.717  -7.774  0.00  0.00     0.275 HD
HETATM    9  H           1     -19.104  -6.183  -7.384  0.00  0.00     0.275 HD
ENDBRANCH   5   6
BRANCH   5  10
HETATM   10  C           1     -21.541  -3.957  -7.159  0.00  0.00     0.053 C 
BRANCH  10  11
HETATM   11  C           1     -21.828  -4.307  -8.614  0.00  0.00     0.076 C 
BRANCH  11  12
HETATM   12  S           1     -23.581  -4.005  -8.975  0.00  0.00    -0.173 SA
HETATM   13  C           1     -23.616  -4.898 -10.555  0.00  0.00     0.089 C 
ENDBRANCH  11  12
ENDBRANCH  10  11
ENDBRANCH   5  10
ENDBRANCH   3   5
BRANCH   4  14
HETATM   14  C           1     -21.536  -7.535  -3.810  0.00  0.00     0.189 C 
BRANCH  14  15
HETATM   15  C           1     -21.573  -6.870  -2.456  0.00  0.00     0.197 C 
HETATM   16  O           1     -20.868  -7.313  -1.523  0.00  0.00    -0.646 OA
HETATM   17  O           1     -22.308  -5.878  -2.266  0.00  0.00    -0.646 OA
ENDBRANCH  14  15
BRANCH  14  18
HETATM   18  C           1     -20.877  -8.902  -3.687  0.00  0.00     0.010 C 
HETATM   19  C           1     -21.850  -9.978  -4.153  0.00  0.00     0.012 C 
HETATM   20  C           1     -19.624  -8.941  -4.553  0.00  0.00     0.012 C 
ENDBRANCH  14  18
ENDBRANCH   4  14
TORSDOF 8
ENDMDL
MODEL 3
REMARK VINA RESULT:      -5.1     10.794     12.474
REMARK  8 active torsions:
REMARK  status: ('A' for Active; 'I' for Inactive)
REMARK    1  A    between atoms: N_3  and  C_19 
REMARK    2  A    between atoms: C_4  and  C_11 
REMARK    3  A    between atoms: C_4  and  S_17 
REMARK    4  A    between atoms: C_5  and  C_6 
REMARK    5  A    between atoms: C_6  and  C_15 
REMARK    6  A    between atoms: C_6  and  N_18 
REMARK    7  A    between atoms: C_11  and  C_19 
REMARK       I    between atoms: C_14  and  N_18 
REMARK    8  A    between atoms: C_14  and  C_19 
ROOT
HETATM    1  H           1     -27.428  -7.590 -18.373  0.00  0.00     0.163 HD
HETATM    2  O           1     -26.160  -5.454 -16.457  0.00  0.00    -0.271 OA
HETATM    3  C           1     -26.206  -6.283 -17.334  0.00  0.00     0.249 C 
HETATM    4  N           1     -27.391  -6.896 -17.638  0.00  0.00    -0.344 N 
ENDROOT
BRANCH   3   5
HETATM    5  C           1     -24.953  -6.643 -18.096  0.00  0.00     0.275 C 
BRANCH   5   6
HETATM    6  N           1     -24.235  -7.749 -17.383  0.00  0.00    -0.066 N 
HETATM    7  H           1     -23.370  -7.370 -16.936  0.00  0.00     0.275 HD
HETATM    8  H           1     -23.975  -8.495 -18.066  0.00  0.00     0.275 HD
HETATM    9  H           1     -24.859  -8.152 -16.647  0.00  0.00     0.275 HD
ENDBRANCH   5   6
BRANCH   5  10
HETATM   10  C           1     -25.326  -7.103 -19.499  0.00  0.00     0.053 C 
BRANCH  10  11
HETATM   11  C           1     -24.102  -7.702 -20.180  0.00  0.00     0.076 C 
BRANCH  11  12
HETATM   12  S           1     -24.390  -7.800 -21.969  0.00  0.00    -0.173 SA
HETATM   13  C           1     -22.783  -8.532 -22.389  0.00  0.00     0.089 C 
ENDBRANCH  11  12
ENDBRANCH  10  11
ENDBRANCH   5  10
ENDBRANCH   3   5
BRANCH   4  14
HETATM   14  C           1     -28.594  -6.550 -16.906  0.00  0.00     0.189 C 
BRANCH  14  15
HETATM   15  C           1     -28.385  -6.825 -15.437  0.00  0.00     0.197 C 
HETATM   16  O           1     -27.772  -7.854 -15.075  0.00  0.00    -0.646 OA
HETATM   17  O           1     -28.824  -6.026 -14.582  0.00  0.00    -0.646 OA
ENDBRANCH  14  15
BRANCH  14  18
HETATM   18  C           1     -29.759  -7.387 -17.419  0.00  0.00     0.010 C 
HETATM   19  C           1     -31.039  -6.563 -17.361  0.00  0.00     0.012 C 
HETATM   20  C           1     -29.488  -7.804 -18.858  0.00  0.00     0.012 C 
ENDBRANCH  14  18
ENDBRANCH   4  14
TORSDOF 8
ENDMDL
MODEL 4
REMARK VINA RESULT:      -4.9      2.275      2.952
REMARK  8 active torsions:
REMARK  status: ('A' for Active; 'I' for Inactive)
REMARK    1  A    between atoms: N_3  and  C_19 
REMARK    2  A    between atoms: C_4  and  C_11 
REMARK    3  A    between atoms: C_4  and  S_17 
REMARK    4  A    between atoms: C_5  and  C_6 
REMARK    5  A    between atoms: C_6  and  C_15 
REMARK    6  A    between atoms: C_6  and  N_18 
REMARK    7  A    between atoms: C_11  and  C_19 
REMARK       I    between atoms: C_14  and  N_18 
REMARK    8  A    between atoms: C_14  and  C_19 
ROOT
HETATM    1  H           1     -22.524  -3.287  -9.167  0.00  0.00     0.163 HD
HETATM    2  O           1     -19.976  -5.010  -9.786  0.00  0.00    -0.271 OA
HETATM    3  C           1     -20.722  -4.303  -9.150  0.00  0.00     0.249 C 
HETATM    4  N           1     -21.900  -3.879  -9.700  0.00  0.00    -0.344 N 
ENDROOT
BRANCH   3   5
HETATM    5  C           1     -20.352  -3.889  -7.746  0.00  0.00     0.275 C 
BRANCH   5   6
HETATM    6  N           1     -21.548  -3.284  -7.072  0.00  0.00    -0.066 N 
HETATM    7  H           1     -21.756  -3.813  -6.195  0.00  0.00     0.275 HD
HETATM    8  H           1     -22.372  -3.334  -7.713  0.00  0.00     0.275 HD
HETATM    9  H           1     -21.348  -2.286  -6.838  0.00  0.00     0.275 HD
ENDBRANCH   5   6
BRANCH   5  10
HETATM   10  C           1     -19.889  -5.108  -6.960  0.00  0.00     0.053 C 
BRANCH  10  11
HETATM   11  C           1     -20.396  -5.012  -5.528  0.00  0.00     0.076 C 
BRANCH  11  12
HETATM   12  S           1     -21.405  -6.471  -5.143  0.00  0.00    -0.173 SA
HETATM   13  C           1     -21.449  -6.215  -3.347  0.00  0.00     0.089 C 
ENDBRANCH  11  12
ENDBRANCH  10  11
ENDBRANCH   5  10
ENDBRANCH   3   5
BRANCH   4  14
HETATM   14  C           1     -22.255  -4.278 -11.048  0.00  0.00     0.189 C 
BRANCH  14  15
HETATM   15  C           1     -21.913  -3.166 -12.008  0.00  0.00     0.197 C 
HETATM   16  O           1     -22.293  -3.227 -13.198  0.00  0.00    -0.646 OA
HETATM   17  O           1     -21.251  -2.181 -11.614  0.00  0.00    -0.646 OA
ENDBRANCH  14  15
BRANCH  14  18
HETATM   18  C           1     -23.750  -4.566 -11.116  0.00  0.00     0.010 C 
HETATM   19  C           1     -24.127  -5.549 -10.015  0.00  0.00     0.012 C 
HETATM   20  C           1     -24.524  -3.268 -10.925  0.00  0.00     0.012 C 
ENDBRANCH  14  18
ENDBRANCH   4  14
TORSDOF 8
ENDMDL
MODEL 5
REMARK VINA RESULT:      -4.9      5.077      8.496
REMARK  8 active torsions:
REMARK  status: ('A' for Active; 'I' for Inactive)
REMARK    1  A    between atoms: N_3  and  C_19 
REMARK    2  A    between atoms: C_4  and  C_11 
REMARK    3  A    between atoms: C_4  and  S_17 
REMARK    4  A    between atoms: C_5  and  C_6 
REMARK    5  A    between atoms: C_6  and  C_15 
REMARK    6  A    between atoms: C_6  and  N_18 
REMARK    7  A    between atoms: C_11  and  C_19 
REMARK       I    between atoms: C_14  and  N_18 
REMARK    8  A    between atoms: C_14  and  C_19 
ROOT
HETATM    1  H           1     -22.457  -8.323  -3.036  0.00  0.00     0.163 HD
HETATM    2  O           1     -19.417  -8.996  -2.653  0.00  0.00    -0.271 OA
HETATM    3  C           1     -20.414  -8.597  -3.208  0.00  0.00     0.249 C 
HETATM    4  N           1     -21.624  -8.656  -2.570  0.00  0.00    -0.344 N 
ENDROOT
BRANCH   3   5
HETATM    5  C           1     -20.324  -8.035  -4.606  0.00  0.00     0.275 C 
BRANCH   5   6
HETATM    6  N           1     -20.666  -9.106  -5.598  0.00  0.00    -0.066 N 
HETATM    7  H           1     -21.652  -9.415  -5.451  0.00  0.00     0.275 HD
HETATM    8  H           1     -20.023  -9.920  -5.469  0.00  0.00     0.275 HD
HETATM    9  H           1     -20.560  -8.729  -6.567  0.00  0.00     0.275 HD
ENDBRANCH   5   6
BRANCH   5  10
HETATM   10  C           1     -21.302  -6.877  -4.752  0.00  0.00     0.053 C 
BRANCH  10  11
HETATM   11  C           1     -21.190  -6.291  -6.153  0.00  0.00     0.076 C 
BRANCH  11  12
HETATM   12  S           1     -20.185  -4.780  -6.100  0.00  0.00    -0.173 SA
HETATM   13  C           1     -21.256  -3.791  -7.181  0.00  0.00     0.089 C 
ENDBRANCH  11  12
ENDBRANCH  10  11
ENDBRANCH   5  10
ENDBRANCH   3   5
BRANCH   4  14
HETATM   14  C           1     -21.709  -9.197  -1.228  0.00  0.00     0.189 C 
BRANCH  14  15
HETATM   15  C           1     -22.484 -10.491  -1.256  0.00  0.00     0.197 C 
HETATM   16  O           1     -21.963 -11.522  -1.736  0.00  0.00    -0.646 OA
HETATM   17  O           1     -23.647 -10.534  -0.799  0.00  0.00    -0.646 OA
ENDBRANCH  14  15
BRANCH  14  18
HETATM   18  C           1     -22.421  -8.198  -0.323  0.00  0.00     0.010 C 
HETATM   19  C           1     -21.737  -8.170   1.037  0.00  0.00     0.012 C 
HETATM   20  C           1     -22.360  -6.812  -0.952  0.00  0.00     0.012 C 
ENDBRANCH  14  18
ENDBRANCH   4  14
TORSDOF 8
ENDMDL
MODEL 6
REMARK VINA RESULT:      -4.7     11.117     13.305
REMARK  8 active torsions:
REMARK  status: ('A' for Active; 'I' for Inactive)
REMARK    1  A    between atoms: N_3  and  C_19 
REMARK    2  A    between atoms: C_4  and  C_11 
REMARK    3  A    between atoms: C_4  and  S_17 
REMARK    4  A    between atoms: C_5  and  C_6 
REMARK    5  A    between atoms: C_6  and  C_15 
REMARK    6  A    between atoms: C_6  and  N_18 
REMARK    7  A    between atoms: C_11  and  C_19 
REMARK       I    between atoms: C_14  and  N_18 
REMARK    8  A    between atoms: C_14  and  C_19 
ROOT
HETATM    1  H           1     -27.932  -8.002 -17.644  0.00  0.00     0.163 HD
HETATM    2  O           1     -27.967  -5.302 -19.241  0.00  0.00    -0.271 OA
HETATM    3  C           1     -27.664  -6.441 -18.975  0.00  0.00     0.249 C 
HETATM    4  N           1     -28.187  -7.049 -17.867  0.00  0.00    -0.344 N 
ENDROOT
BRANCH   3   5
HETATM    5  C           1     -26.706  -7.193 -19.867  0.00  0.00     0.275 C 
BRANCH   5   6
HETATM    6  N           1     -27.467  -8.187 -20.692  0.00  0.00    -0.066 N 
HETATM    7  H           1     -27.118  -8.161 -21.677  0.00  0.00     0.275 HD
HETATM    8  H           1     -28.484  -7.948 -20.677  0.00  0.00     0.275 HD
HETATM    9  H           1     -27.328  -9.146 -20.299  0.00  0.00     0.275 HD
ENDBRANCH   5   6
BRANCH   5  10
HETATM   10  C           1     -25.990  -6.213 -20.786  0.00  0.00     0.053 C 
BRANCH  10  11
HETATM   11  C           1     -24.893  -6.942 -21.552  0.00  0.00     0.076 C 
BRANCH  11  12
HETATM   12  S           1     -23.887  -7.912 -20.393  0.00  0.00    -0.173 SA
HETATM   13  C           1     -22.703  -8.526 -21.624  0.00  0.00     0.089 C 
ENDBRANCH  11  12
ENDBRANCH  10  11
ENDBRANCH   5  10
ENDBRANCH   3   5
BRANCH   4  14
HETATM   14  C           1     -29.108  -6.326 -17.011  0.00  0.00     0.189 C 
BRANCH  14  15
HETATM   15  C           1     -28.657  -6.444 -15.576  0.00  0.00     0.197 C 
HETATM   16  O           1     -28.962  -5.556 -14.750  0.00  0.00    -0.646 OA
HETATM   17  O           1     -27.980  -7.429 -15.212  0.00  0.00    -0.646 OA
ENDBRANCH  14  15
BRANCH  14  18
HETATM   18  C           1     -30.505  -6.917 -17.155  0.00  0.00     0.010 C 
HETATM   19  C           1     -31.531  -5.791 -17.181  0.00  0.00     0.012 C 
HETATM   20  C           1     -30.588  -7.711 -18.452  0.00  0.00     0.012 C 
ENDBRANCH  14  18
ENDBRANCH   4  14
TORSDOF 8
ENDMDL
MODEL 7
REMARK VINA RESULT:      -4.6      5.195      9.067
REMARK  8 active torsions:
REMARK  status: ('A' for Active; 'I' for Inactive)
REMARK    1  A    between atoms: N_3  and  C_19 
REMARK    2  A    between atoms: C_4  and  C_11 
REMARK    3  A    between atoms: C_4  and  S_17 
REMARK    4  A    between atoms: C_5  and  C_6 
REMARK    5  A    between atoms: C_6  and  C_15 
REMARK    6  A    between atoms: C_6  and  N_18 
REMARK    7  A    between atoms: C_11  and  C_19 
REMARK       I    between atoms: C_14  and  N_18 
REMARK    8  A    between atoms: C_14  and  C_19 
ROOT
HETATM    1  H           1     -20.829  -9.818  -2.256  0.00  0.00     0.163 HD
HETATM    2  O           1     -22.087  -6.961  -1.943  0.00  0.00    -0.271 OA
HETATM    3  C           1     -21.402  -7.837  -2.417  0.00  0.00     0.249 C 
HETATM    4  N           1     -21.404  -9.086  -1.859  0.00  0.00    -0.344 N 
ENDROOT
BRANCH   3   5
HETATM    5  C           1     -20.543  -7.550  -3.625  0.00  0.00     0.275 C 
BRANCH   5   6
HETATM    6  N           1     -19.693  -8.748  -3.929  0.00  0.00    -0.066 N 
HETATM    7  H           1     -20.230  -9.618  -3.714  0.00  0.00     0.275 HD
HETATM    8  H           1     -18.827  -8.719  -3.344  0.00  0.00     0.275 HD
HETATM    9  H           1     -19.431  -8.741  -4.941  0.00  0.00     0.275 HD
ENDBRANCH   5   6
BRANCH   5  10
HETATM   10  C           1     -21.434  -7.243  -4.821  0.00  0.00     0.053 C 
BRANCH  10  11
HETATM   11  C           1     -21.255  -5.786  -5.227  0.00  0.00     0.076 C 
BRANCH  11  12
HETATM   12  S           1     -21.236  -5.659  -7.037  0.00  0.00    -0.173 SA
HETATM   13  C           1     -21.125  -3.849  -7.109  0.00  0.00     0.089 C 
ENDBRANCH  11  12
ENDBRANCH  10  11
ENDBRANCH   5  10
ENDBRANCH   3   5
BRANCH   4  14
HETATM   14  C           1     -22.229  -9.361  -0.699  0.00  0.00     0.189 C 
BRANCH  14  15
HETATM   15  C           1     -21.384  -9.283   0.548  0.00  0.00     0.197 C 
HETATM   16  O           1     -20.679 -10.259   0.888  0.00  0.00    -0.646 OA
HETATM   17  O           1     -21.387  -8.244   1.243  0.00  0.00    -0.646 OA
ENDBRANCH  14  15
BRANCH  14  18
HETATM   18  C           1     -22.828 -10.756  -0.821  0.00  0.00     0.010 C 
HETATM   19  C           1     -24.133 -10.818  -0.038  0.00  0.00     0.012 C 
HETATM   20  C           1     -23.100 -11.065  -2.288  0.00  0.00     0.012 C 
ENDBRANCH  14  18
ENDBRANCH   4  14
TORSDOF 8
ENDMDL
MODEL 8
REMARK VINA RESULT:      -4.6      6.175      9.043
REMARK  8 active torsions:
REMARK  status: ('A' for Active; 'I' for Inactive)
REMARK    1  A    between atoms: N_3  and  C_19 
REMARK    2  A    between atoms: C_4  and  C_11 
REMARK    3  A    between atoms: C_4  and  S_17 
REMARK    4  A    between atoms: C_5  and  C_6 
REMARK    5  A    between atoms: C_6  and  C_15 
REMARK    6  A    between atoms: C_6  and  N_18 
REMARK    7  A    between atoms: C_11  and  C_19 
REMARK       I    between atoms: C_14  and  N_18 
REMARK    8  A    between atoms: C_14  and  C_19 
ROOT
HETATM    1  H           1     -21.713  -8.702  -2.370  0.00  0.00     0.163 HD
HETATM    2  O           1     -19.419 -10.583  -1.351  0.00  0.00    -0.271 OA
HETATM    3  C           1     -19.978  -9.788  -2.068  0.00  0.00     0.249 C 
HETATM    4  N           1     -21.246  -9.367  -1.769  0.00  0.00    -0.344 N 
ENDROOT
BRANCH   3   5
HETATM    5  C           1     -19.278  -9.258  -3.296  0.00  0.00     0.275 C 
BRANCH   5   6
HETATM    6  N           1     -18.218 -10.229  -3.725  0.00  0.00    -0.066 N 
HETATM    7  H           1     -17.505  -9.732  -4.303  0.00  0.00     0.275 HD
HETATM    8  H           1     -18.653 -10.993  -4.289  0.00  0.00     0.275 HD
HETATM    9  H           1     -17.759 -10.638  -2.880  0.00  0.00     0.275 HD
ENDBRANCH   5   6
BRANCH   5  10
HETATM   10  C           1     -20.288  -9.079  -4.421  0.00  0.00     0.053 C 
BRANCH  10  11
HETATM   11  C           1     -20.026  -7.758  -5.133  0.00  0.00     0.076 C 
BRANCH  11  12
HETATM   12  S           1     -21.351  -6.583  -4.737  0.00  0.00    -0.173 SA
HETATM   13  C           1     -20.555  -5.129  -5.477  0.00  0.00     0.089 C 
ENDBRANCH  11  12
ENDBRANCH  10  11
ENDBRANCH   5  10
ENDBRANCH   3   5
BRANCH   4  14
HETATM   14  C           1     -21.918  -9.877  -0.589  0.00  0.00     0.189 C 
BRANCH  14  15
HETATM   15  C           1     -23.175 -10.602  -1.001  0.00  0.00     0.197 C 
HETATM   16  O           1     -24.114 -10.739  -0.186  0.00  0.00    -0.646 OA
HETATM   17  O           1     -23.279 -11.065  -2.157  0.00  0.00    -0.646 OA
ENDBRANCH  14  15
BRANCH  14  18
HETATM   18  C           1     -22.279  -8.716   0.330  0.00  0.00     0.010 C 
HETATM   19  C           1     -21.186  -8.539   1.375  0.00  0.00     0.012 C 
HETATM   20  C           1     -22.409  -7.440  -0.492  0.00  0.00     0.012 C 
ENDBRANCH  14  18
ENDBRANCH   4  14
TORSDOF 8
ENDMDL
MODEL 9
REMARK VINA RESULT:      -4.5      8.140      9.527
REMARK  8 active torsions:
REMARK  status: ('A' for Active; 'I' for Inactive)
REMARK    1  A    between atoms: N_3  and  C_19 
REMARK    2  A    between atoms: C_4  and  C_11 
REMARK    3  A    between atoms: C_4  and  S_17 
REMARK    4  A    between atoms: C_5  and  C_6 
REMARK    5  A    between atoms: C_6  and  C_15 
REMARK    6  A    between atoms: C_6  and  N_18 
REMARK    7  A    between atoms: C_11  and  C_19 
REMARK       I    between atoms: C_14  and  N_18 
REMARK    8  A    between atoms: C_14  and  C_19 
ROOT
HETATM    1  H           1     -21.821  -8.906  -2.356  0.00  0.00     0.163 HD
HETATM    2  O           1     -19.578 -10.762  -1.187  0.00  0.00    -0.271 OA
HETATM    3  C           1     -20.119 -10.017  -1.970  0.00  0.00     0.249 C 
HETATM    4  N           1     -21.368  -9.529  -1.700  0.00  0.00    -0.344 N 
ENDROOT
BRANCH   3   5
HETATM    5  C           1     -19.415  -9.625  -3.247  0.00  0.00     0.275 C 
BRANCH   5   6
HETATM    6  N           1     -20.055  -8.393  -3.812  0.00  0.00    -0.066 N 
HETATM    7  H           1     -19.339  -7.637  -3.898  0.00  0.00     0.275 HD
HETATM    8  H           1     -20.822  -8.075  -3.178  0.00  0.00     0.275 HD
HETATM    9  H           1     -20.450  -8.607  -4.756  0.00  0.00     0.275 HD
ENDBRANCH   5   6
BRANCH   5  10
HETATM   10  C           1     -17.947  -9.346  -2.953  0.00  0.00     0.053 C 
BRANCH  10  11
HETATM   11  C           1     -17.087  -9.926  -4.068  0.00  0.00     0.076 C 
BRANCH  11  12
HETATM   12  S           1     -16.435 -11.540  -3.554  0.00  0.00    -0.173 SA
HETATM   13  C           1     -16.038 -11.060  -1.849  0.00  0.00     0.089 C 
ENDBRANCH  11  12
ENDBRANCH  10  11
ENDBRANCH   5  10
ENDBRANCH   3   5
BRANCH   4  14
HETATM   14  C           1     -22.044  -9.905  -0.474  0.00  0.00     0.189 C 
BRANCH  14  15
HETATM   15  C           1     -23.342 -10.598  -0.807  0.00  0.00     0.197 C 
HETATM   16  O           1     -23.510 -11.100  -1.940  0.00  0.00    -0.646 OA
HETATM   17  O           1     -24.250 -10.671   0.049  0.00  0.00    -0.646 OA
ENDBRANCH  14  15
BRANCH  14  18
HETATM   18  C           1     -22.331  -8.657   0.351  0.00  0.00     0.010 C 
HETATM   19  C           1     -21.223  -8.461   1.377  0.00  0.00     0.012 C 
HETATM   20  C           1     -22.392  -7.445  -0.569  0.00  0.00     0.012 C 
ENDBRANCH  14  18
ENDBRANCH   4  14
TORSDOF 8
ENDMDL
