MODEL 1
REMARK VINA RESULT:      -6.0      0.000      0.000
REMARK  8 active torsions:
REMARK  status: ('A' for Active; 'I' for Inactive)
REMARK    1  A    between atoms: N_2  and  C_7 
REMARK       I    between atoms: N_2  and  C_3 
REMARK    2  A    between atoms: C_3  and  C_14 
REMARK    3  A    between atoms: Se_4  and  C_5 
REMARK    4  A    between atoms: C_5  and  C_7 
REMARK    5  A    between atoms: C_7  and  C_20 
REMARK    6  A    between atoms: N_11  and  C_14 
REMARK    7  A    between atoms: C_14  and  C_19 
REMARK    8  A    between atoms: C_17  and  C_19 
ROOT
HETATM    1  N           1     -35.443  -0.987 -12.569  0.00  0.00    -0.345 N 
HETATM    2  C           1     -34.713  -2.137 -12.710  0.00  0.00     0.249 C 
HETATM    3  O           1     -34.690  -2.710 -13.772  0.00  0.00    -0.271 OA
HETATM    4  H           1     -35.462  -0.505 -11.679  0.00  0.00     0.163 HD
ENDROOT
BRANCH   2   5
HETATM    5  C           1     -33.937  -2.686 -11.538  0.00  0.00     0.275 C 
BRANCH   5   6
HETATM    6  N           1     -33.704  -1.593 -10.538  0.00  0.00    -0.066 N 
HETATM    7  H           1     -34.585  -1.047 -10.406  0.00  0.00     0.275 HD
HETATM    8  H           1     -33.413  -2.011  -9.626  0.00  0.00     0.275 HD
HETATM    9  H           1     -32.949  -0.959 -10.885  0.00  0.00     0.275 HD
ENDBRANCH   5   6
BRANCH   5  10
HETATM   10  C           1     -34.730  -3.810 -10.885  0.00  0.00     0.046 C 
BRANCH  10  11
HETATM   11  C           1     -33.796  -4.967 -10.559  0.00  0.00    -0.020 C 
HETATM   12  C           1     -32.738  -5.087 -11.648  0.00  0.00     0.009 C 
HETATM   13  C           1     -34.596  -6.261 -10.486  0.00  0.00     0.009 C 
ENDBRANCH  10  11
ENDBRANCH   5  10
ENDBRANCH   2   5
BRANCH   1  14
HETATM   14  C           1     -36.190  -0.459 -13.694  0.00  0.00     0.185 C 
BRANCH  14  15
HETATM   15  C           1     -37.574  -0.027 -13.227  0.00  0.00     0.039 C 
BRANCH  15  16
HETATM   16 Se           1     -37.674  -0.157 -11.285  0.00  0.00     0.000 Se
HETATM   17  H           1     -38.932   0.599 -11.183  0.00  0.00     0.000 HD
ENDBRANCH  15  16
ENDBRANCH  14  15
BRANCH  14  18
HETATM   18  C           1     -35.458   0.729 -14.268  0.00  0.00     0.196 C 
HETATM   19  O           1     -34.577   1.306 -13.595  0.00  0.00    -0.646 OA
HETATM   20  O           1     -35.733   1.138 -15.417  0.00  0.00    -0.646 OA
ENDBRANCH  14  18
ENDBRANCH   1  14
TORSDOF 8
ENDMDL
MODEL 2
REMARK VINA RESULT:      -5.7     12.748     14.349
REMARK  8 active torsions:
REMARK  status: ('A' for Active; 'I' for Inactive)
REMARK    1  A    between atoms: N_2  and  C_7 
REMARK       I    between atoms: N_2  and  C_3 
REMARK    2  A    between atoms: C_3  and  C_14 
REMARK    3  A    between atoms: Se_4  and  C_5 
REMARK    4  A    between atoms: C_5  and  C_7 
REMARK    5  A    between atoms: C_7  and  C_20 
REMARK    6  A    between atoms: N_11  and  C_14 
REMARK    7  A    between atoms: C_14  and  C_19 
REMARK    8  A    between atoms: C_17  and  C_19 
ROOT
HETATM    1  N           1     -22.286  -4.741  -8.867  0.00  0.00    -0.345 N 
HETATM    2  C           1     -21.704  -4.601  -7.635  0.00  0.00     0.249 C 
HETATM    3  O           1     -21.661  -3.516  -7.108  0.00  0.00    -0.271 OA
HETATM    4  H           1     -22.323  -5.651  -9.309  0.00  0.00     0.163 HD
ENDROOT
BRANCH   2   5
HETATM    5  C           1     -21.118  -5.804  -6.937  0.00  0.00     0.275 C 
BRANCH   5   6
HETATM    6  N           1     -19.797  -6.148  -7.559  0.00  0.00    -0.066 N 
HETATM    7  H           1     -19.906  -6.996  -8.161  0.00  0.00     0.275 HD
HETATM    8  H           1     -19.467  -5.346  -8.143  0.00  0.00     0.275 HD
HETATM    9  H           1     -19.099  -6.341  -6.807  0.00  0.00     0.275 HD
ENDBRANCH   5   6
BRANCH   5  10
HETATM   10  C           1     -20.916  -5.487  -5.462  0.00  0.00     0.046 C 
BRANCH  10  11
HETATM   11  C           1     -21.804  -6.394  -4.621  0.00  0.00    -0.020 C 
HETATM   12  C           1     -21.474  -6.199  -3.146  0.00  0.00     0.009 C 
HETATM   13  C           1     -21.558  -7.846  -5.007  0.00  0.00     0.009 C 
ENDBRANCH  10  11
ENDBRANCH   5  10
ENDBRANCH   2   5
BRANCH   1  14
HETATM   14  C           1     -22.849  -3.586  -9.538  0.00  0.00     0.185 C 
BRANCH  14  15
HETATM   15  C           1     -22.230  -3.453 -10.924  0.00  0.00     0.039 C 
BRANCH  15  16
HETATM   16 Se           1     -20.435  -4.212 -10.909  0.00  0.00     0.000 Se
HETATM   17  H           1     -20.465  -4.608 -12.326  0.00  0.00     0.000 HD
ENDBRANCH  15  16
ENDBRANCH  14  15
BRANCH  14  18
HETATM   18  C           1     -24.342  -3.760  -9.668  0.00  0.00     0.196 C 
HETATM   19  O           1     -24.821  -4.886  -9.919  0.00  0.00    -0.646 OA
HETATM   20  O           1     -25.102  -2.776  -9.525  0.00  0.00    -0.646 OA
ENDBRANCH  14  18
ENDBRANCH   1  14
TORSDOF 8
ENDMDL
MODEL 3
REMARK VINA RESULT:      -5.1      1.644      2.056
REMARK  8 active torsions:
REMARK  status: ('A' for Active; 'I' for Inactive)
REMARK    1  A    between atoms: N_2  and  C_7 
REMARK       I    between atoms: N_2  and  C_3 
REMARK    2  A    between atoms: C_3  and  C_14 
REMARK    3  A    between atoms: Se_4  and  C_5 
REMARK    4  A    between atoms: C_5  and  C_7 
REMARK    5  A    between atoms: C_7  and  C_20 
REMARK    6  A    between atoms: N_11  and  C_14 
REMARK    7  A    between atoms: C_14  and  C_19 
REMARK    8  A    between atoms: C_17  and  C_19 
ROOT
HETATM    1  N           1     -34.484  -2.312 -12.978  0.00  0.00    -0.345 N 
HETATM    2  C           1     -34.767  -3.284 -12.057  0.00  0.00     0.249 C 
HETATM    3  O           1     -35.810  -3.255 -11.450  0.00  0.00    -0.271 OA
HETATM    4  H           1     -33.609  -2.336 -13.488  0.00  0.00     0.163 HD
ENDROOT
BRANCH   2   5
HETATM    5  C           1     -33.775  -4.392 -11.801  0.00  0.00     0.275 C 
BRANCH   5   6
HETATM    6  N           1     -32.392  -3.818 -11.729  0.00  0.00    -0.066 N 
HETATM    7  H           1     -32.444  -2.823 -11.413  0.00  0.00     0.275 HD
HETATM    8  H           1     -31.820  -4.370 -11.051  0.00  0.00     0.275 HD
HETATM    9  H           1     -31.948  -3.861 -12.674  0.00  0.00     0.275 HD
ENDBRANCH   5   6
BRANCH   5  10
HETATM   10  C           1     -34.108  -5.078 -10.482  0.00  0.00     0.046 C 
BRANCH  10  11
HETATM   11  C           1     -34.295  -6.570 -10.718  0.00  0.00    -0.020 C 
HETATM   12  C           1     -35.191  -6.783 -11.931  0.00  0.00     0.009 C 
HETATM   13  C           1     -34.942  -7.202  -9.493  0.00  0.00     0.009 C 
ENDBRANCH  10  11
ENDBRANCH   5  10
ENDBRANCH   2   5
BRANCH   1  14
HETATM   14  C           1     -35.436  -1.246 -13.225  0.00  0.00     0.185 C 
BRANCH  14  15
HETATM   15  C           1     -35.235  -0.139 -12.198  0.00  0.00     0.039 C 
BRANCH  15  16
HETATM   16 Se           1     -36.867   0.084 -11.155  0.00  0.00     0.000 Se
HETATM   17  H           1     -37.761  -0.321 -12.252  0.00  0.00     0.000 HD
ENDBRANCH  15  16
ENDBRANCH  14  15
BRANCH  14  18
HETATM   18  C           1     -35.221  -0.692 -14.612  0.00  0.00     0.196 C 
HETATM   19  O           1     -35.470  -1.398 -15.613  0.00  0.00    -0.646 OA
HETATM   20  O           1     -34.792   0.473 -14.761  0.00  0.00    -0.646 OA
ENDBRANCH  14  18
ENDBRANCH   1  14
TORSDOF 8
ENDMDL
MODEL 4
REMARK VINA RESULT:      -5.0     12.702     14.281
REMARK  8 active torsions:
REMARK  status: ('A' for Active; 'I' for Inactive)
REMARK    1  A    between atoms: N_2  and  C_7 
REMARK       I    between atoms: N_2  and  C_3 
REMARK    2  A    between atoms: C_3  and  C_14 
REMARK    3  A    between atoms: Se_4  and  C_5 
REMARK    4  A    between atoms: C_5  and  C_7 
REMARK    5  A    between atoms: C_7  and  C_20 
REMARK    6  A    between atoms: N_11  and  C_14 
REMARK    7  A    between atoms: C_14  and  C_19 
REMARK    8  A    between atoms: C_17  and  C_19 
ROOT
HETATM    1  N           1     -21.914  -4.056  -9.747  0.00  0.00    -0.345 N 
HETATM    2  C           1     -20.660  -4.358  -9.285  0.00  0.00     0.249 C 
HETATM    3  O           1     -19.877  -4.934 -10.000  0.00  0.00    -0.271 OA
HETATM    4  H           1     -22.571  -3.572  -9.148  0.00  0.00     0.163 HD
ENDROOT
BRANCH   2   5
HETATM    5  C           1     -20.259  -3.968  -7.883  0.00  0.00     0.275 C 
BRANCH   5   6
HETATM    6  N           1     -21.418  -3.308  -7.198  0.00  0.00    -0.066 N 
HETATM    7  H           1     -21.220  -2.289  -7.080  0.00  0.00     0.275 HD
HETATM    8  H           1     -22.281  -3.431  -7.774  0.00  0.00     0.275 HD
HETATM    9  H           1     -21.562  -3.746  -6.260  0.00  0.00     0.275 HD
ENDBRANCH   5   6
BRANCH   5  10
HETATM   10  C           1     -19.852  -5.213  -7.106  0.00  0.00     0.046 C 
BRANCH  10  11
HETATM   11  C           1     -20.883  -5.494  -6.022  0.00  0.00    -0.020 C 
HETATM   12  C           1     -20.312  -5.097  -4.666  0.00  0.00     0.009 C 
HETATM   13  C           1     -21.221  -6.979  -6.014  0.00  0.00     0.009 C 
ENDBRANCH  10  11
ENDBRANCH   5  10
ENDBRANCH   2   5
BRANCH   1  14
HETATM   14  C           1     -22.300  -4.430 -11.093  0.00  0.00     0.185 C 
BRANCH  14  15
HETATM   15  C           1     -23.775  -4.811 -11.110  0.00  0.00     0.039 C 
BRANCH  15  16
HETATM   16 Se           1     -24.768  -3.615  -9.935  0.00  0.00     0.000 Se
HETATM   17  H           1     -26.083  -4.177 -10.281  0.00  0.00     0.000 HD
ENDBRANCH  15  16
ENDBRANCH  14  15
BRANCH  14  18
HETATM   18  C           1     -22.070  -3.265 -12.024  0.00  0.00     0.196 C 
HETATM   19  O           1     -22.543  -3.285 -13.180  0.00  0.00    -0.646 OA
HETATM   20  O           1     -21.404  -2.279 -11.638  0.00  0.00    -0.646 OA
ENDBRANCH  14  18
ENDBRANCH   1  14
TORSDOF 8
ENDMDL
MODEL 5
REMARK VINA RESULT:      -4.9     14.662     16.829
REMARK  8 active torsions:
REMARK  status: ('A' for Active; 'I' for Inactive)
REMARK    1  A    between atoms: N_2  and  C_7 
REMARK       I    between atoms: N_2  and  C_3 
REMARK    2  A    between atoms: C_3  and  C_14 
REMARK    3  A    between atoms: Se_4  and  C_5 
REMARK    4  A    between atoms: C_5  and  C_7 
REMARK    5  A    between atoms: C_7  and  C_20 
REMARK    6  A    between atoms: N_11  and  C_14 
REMARK    7  A    between atoms: C_14  and  C_19 
REMARK    8  A    between atoms: C_17  and  C_19 
ROOT
HETATM    1  N           1     -20.992  -6.478  -4.976  0.00  0.00    -0.345 N 
HETATM    2  C           1     -21.620  -5.598  -5.816  0.00  0.00     0.249 C 
HETATM    3  O           1     -22.826  -5.536  -5.832  0.00  0.00    -0.271 OA
HETATM    4  H           1     -19.981  -6.530  -4.962  0.00  0.00     0.163 HD
ENDROOT
BRANCH   2   5
HETATM    5  C           1     -20.806  -4.706  -6.721  0.00  0.00     0.275 C 
BRANCH   5   6
HETATM    6  N           1     -19.390  -4.657  -6.230  0.00  0.00    -0.066 N 
HETATM    7  H           1     -18.791  -5.266  -6.831  0.00  0.00     0.275 HD
HETATM    8  H           1     -19.040  -3.673  -6.272  0.00  0.00     0.275 HD
HETATM    9  H           1     -19.352  -4.996  -5.242  0.00  0.00     0.275 HD
ENDBRANCH   5   6
BRANCH   5  10
HETATM   10  C           1     -20.832  -5.261  -8.139  0.00  0.00     0.046 C 
BRANCH  10  11
HETATM   11  C           1     -21.153  -4.140  -9.117  0.00  0.00    -0.020 C 
HETATM   12  C           1     -22.656  -4.099  -9.364  0.00  0.00     0.009 C 
HETATM   13  C           1     -20.431  -4.392 -10.434  0.00  0.00     0.009 C 
ENDBRANCH  10  11
ENDBRANCH   5  10
ENDBRANCH   2   5
BRANCH   1  14
HETATM   14  C           1     -21.773  -7.335  -4.106  0.00  0.00     0.185 C 
BRANCH  14  15
HETATM   15  C           1     -21.244  -8.761  -4.191  0.00  0.00     0.039 C 
BRANCH  15  16
HETATM   16 Se           1     -19.463  -8.747  -4.984  0.00  0.00     0.000 Se
HETATM   17  H           1     -19.926  -8.277  -6.299  0.00  0.00     0.000 HD
ENDBRANCH  15  16
ENDBRANCH  14  15
BRANCH  14  18
HETATM   18  C           1     -21.665  -6.841  -2.685  0.00  0.00     0.196 C 
HETATM   19  O           1     -20.848  -7.368  -1.900  0.00  0.00    -0.646 OA
HETATM   20  O           1     -22.393  -5.903  -2.291  0.00  0.00    -0.646 OA
ENDBRANCH  14  18
ENDBRANCH   1  14
TORSDOF 8
ENDMDL
MODEL 6
REMARK VINA RESULT:      -4.9     15.497     16.814
REMARK  8 active torsions:
REMARK  status: ('A' for Active; 'I' for Inactive)
REMARK    1  A    between atoms: N_2  and  C_7 
REMARK       I    between atoms: N_2  and  C_3 
REMARK    2  A    between atoms: C_3  and  C_14 
REMARK    3  A    between atoms: Se_4  and  C_5 
REMARK    4  A    between atoms: C_5  and  C_7 
REMARK    5  A    between atoms: C_7  and  C_20 
REMARK    6  A    between atoms: N_11  and  C_14 
REMARK    7  A    between atoms: C_14  and  C_19 
REMARK    8  A    between atoms: C_17  and  C_19 
ROOT
HETATM    1  N           1     -20.978  -5.294  -5.003  0.00  0.00    -0.345 N 
HETATM    2  C           1     -21.386  -6.359  -4.246  0.00  0.00     0.249 C 
HETATM    3  O           1     -21.877  -7.325  -4.778  0.00  0.00    -0.271 OA
HETATM    4  H           1     -20.565  -4.485  -4.558  0.00  0.00     0.163 HD
ENDROOT
BRANCH   2   5
HETATM    5  C           1     -21.221  -6.326  -2.746  0.00  0.00     0.275 C 
BRANCH   5   6
HETATM    6  N           1     -22.527  -5.959  -2.108  0.00  0.00    -0.066 N 
HETATM    7  H           1     -23.310  -6.186  -2.762  0.00  0.00     0.275 HD
HETATM    8  H           1     -22.645  -6.498  -1.221  0.00  0.00     0.275 HD
HETATM    9  H           1     -22.535  -4.935  -1.896  0.00  0.00     0.275 HD
ENDBRANCH   5   6
BRANCH   5  10
HETATM   10  C           1     -20.783  -7.699  -2.253  0.00  0.00     0.046 C 
BRANCH  10  11
HETATM   11  C           1     -21.834  -8.255  -1.301  0.00  0.00    -0.020 C 
HETATM   12  C           1     -21.286  -8.247   0.120  0.00  0.00     0.009 C 
HETATM   13  C           1     -22.179  -9.682  -1.703  0.00  0.00     0.009 C 
ENDBRANCH  10  11
ENDBRANCH   5  10
ENDBRANCH   2   5
BRANCH   1  14
HETATM   14  C           1     -21.136  -5.326  -6.444  0.00  0.00     0.185 C 
BRANCH  14  15
HETATM   15  C           1     -21.628  -3.968  -6.930  0.00  0.00     0.039 C 
BRANCH  15  16
HETATM   16 Se           1     -22.666  -4.199  -8.564  0.00  0.00     0.000 Se
HETATM   17  H           1     -23.879  -3.568  -8.021  0.00  0.00     0.000 HD
ENDBRANCH  15  16
ENDBRANCH  14  15
BRANCH  14  18
HETATM   18  C           1     -19.809  -5.640  -7.088  0.00  0.00     0.196 C 
HETATM   19  O           1     -19.404  -6.821  -7.142  0.00  0.00    -0.646 OA
HETATM   20  O           1     -19.112  -4.719  -7.569  0.00  0.00    -0.646 OA
ENDBRANCH  14  18
ENDBRANCH   1  14
TORSDOF 8
ENDMDL
MODEL 7
REMARK VINA RESULT:      -4.7     16.721     18.309
REMARK  8 active torsions:
REMARK  status: ('A' for Active; 'I' for Inactive)
REMARK    1  A    between atoms: N_2  and  C_7 
REMARK       I    between atoms: N_2  and  C_3 
REMARK    2  A    between atoms: C_3  and  C_14 
REMARK    3  A    between atoms: Se_4  and  C_5 
REMARK    4  A    between atoms: C_5  and  C_7 
REMARK    5  A    between atoms: C_7  and  C_20 
REMARK    6  A    between atoms: N_11  and  C_14 
REMARK    7  A    between atoms: C_14  and  C_19 
REMARK    8  A    between atoms: C_17  and  C_19 
ROOT
HETATM    1  N           1     -20.956  -7.937  -2.525  0.00  0.00    -0.345 N 
HETATM    2  C           1     -21.076  -8.322  -3.834  0.00  0.00     0.249 C 
HETATM    3  O           1     -21.843  -9.205  -4.134  0.00  0.00    -0.271 OA
HETATM    4  H           1     -20.314  -7.196  -2.273  0.00  0.00     0.163 HD
ENDROOT
BRANCH   2   5
HETATM    5  C           1     -20.251  -7.642  -4.899  0.00  0.00     0.275 C 
BRANCH   5   6
HETATM    6  N           1     -19.410  -8.663  -5.606  0.00  0.00    -0.066 N 
HETATM    7  H           1     -19.773  -9.620  -5.395  0.00  0.00     0.275 HD
HETATM    8  H           1     -19.449  -8.494  -6.636  0.00  0.00     0.275 HD
HETATM    9  H           1     -18.421  -8.585  -5.279  0.00  0.00     0.275 HD
ENDBRANCH   5   6
BRANCH   5  10
HETATM   10  C           1     -21.176  -6.965  -5.902  0.00  0.00     0.046 C 
BRANCH  10  11
HETATM   11  C           1     -20.412  -5.874  -6.641  0.00  0.00    -0.020 C 
HETATM   12  C           1     -20.118  -4.725  -5.684  0.00  0.00     0.009 C 
HETATM   13  C           1     -21.252  -5.363  -7.803  0.00  0.00     0.009 C 
ENDBRANCH  10  11
ENDBRANCH   5  10
ENDBRANCH   2   5
BRANCH   1  14
HETATM   14  C           1     -21.748  -8.589  -1.501  0.00  0.00     0.185 C 
BRANCH  14  15
HETATM   15  C           1     -20.841  -9.448  -0.629  0.00  0.00     0.039 C 
BRANCH  15  16
HETATM   16 Se           1     -21.197 -11.332  -0.980  0.00  0.00     0.000 Se
HETATM   17  H           1     -22.517 -11.324  -0.329  0.00  0.00     0.000 HD
ENDBRANCH  15  16
ENDBRANCH  14  15
BRANCH  14  18
HETATM   18  C           1     -22.424  -7.544  -0.648  0.00  0.00     0.196 C 
HETATM   19  O           1     -22.504  -6.364  -1.051  0.00  0.00    -0.646 OA
HETATM   20  O           1     -22.905  -7.859   0.463  0.00  0.00    -0.646 OA
ENDBRANCH  14  18
ENDBRANCH   1  14
TORSDOF 8
ENDMDL
MODEL 8
REMARK VINA RESULT:      -4.6     15.191     16.801
REMARK  8 active torsions:
REMARK  status: ('A' for Active; 'I' for Inactive)
REMARK    1  A    between atoms: N_2  and  C_7 
REMARK       I    between atoms: N_2  and  C_3 
REMARK    2  A    between atoms: C_3  and  C_14 
REMARK    3  A    between atoms: Se_4  and  C_5 
REMARK    4  A    between atoms: C_5  and  C_7 
REMARK    5  A    between atoms: C_7  and  C_20 
REMARK    6  A    between atoms: N_11  and  C_14 
REMARK    7  A    between atoms: C_14  and  C_19 
REMARK    8  A    between atoms: C_17  and  C_19 
ROOT
HETATM    1  N           1     -21.694  -6.500  -5.283  0.00  0.00    -0.345 N 
HETATM    2  C           1     -21.275  -7.795  -5.135  0.00  0.00     0.249 C 
HETATM    3  O           1     -20.599  -8.312  -5.991  0.00  0.00    -0.271 OA
HETATM    4  H           1     -22.259  -6.066  -4.565  0.00  0.00     0.163 HD
ENDROOT
BRANCH   2   5
HETATM    5  C           1     -21.658  -8.575  -3.901  0.00  0.00     0.275 C 
BRANCH   5   6
HETATM    6  N           1     -21.317 -10.022  -4.099  0.00  0.00    -0.066 N 
HETATM    7  H           1     -20.356 -10.207  -3.732  0.00  0.00     0.275 HD
HETATM    8  H           1     -22.007 -10.616  -3.586  0.00  0.00     0.275 HD
HETATM    9  H           1     -21.352 -10.250  -5.118  0.00  0.00     0.275 HD
ENDBRANCH   5   6
BRANCH   5  10
HETATM   10  C           1     -20.893  -8.034  -2.700  0.00  0.00     0.046 C 
BRANCH  10  11
HETATM   11  C           1     -21.867  -7.738  -1.568  0.00  0.00    -0.020 C 
HETATM   12  C           1     -22.185  -6.248  -1.551  0.00  0.00     0.009 C 
HETATM   13  C           1     -21.240  -8.138  -0.240  0.00  0.00     0.009 C 
ENDBRANCH  10  11
ENDBRANCH   5  10
ENDBRANCH   2   5
BRANCH   1  14
HETATM   14  C           1     -21.326  -5.750  -6.468  0.00  0.00     0.185 C 
BRANCH  14  15
HETATM   15  C           1     -22.474  -4.828  -6.861  0.00  0.00     0.039 C 
BRANCH  15  16
HETATM   16 Se           1     -22.325  -4.374  -8.751  0.00  0.00     0.000 Se
HETATM   17  H           1     -23.778  -4.299  -8.967  0.00  0.00     0.000 HD
ENDBRANCH  15  16
ENDBRANCH  14  15
BRANCH  14  18
HETATM   18  C           1     -20.095  -4.926  -6.179  0.00  0.00     0.196 C 
HETATM   19  O           1     -19.964  -4.366  -5.070  0.00  0.00    -0.646 OA
HETATM   20  O           1     -19.206  -4.803  -7.049  0.00  0.00    -0.646 OA
ENDBRANCH  14  18
ENDBRANCH   1  14
TORSDOF 8
ENDMDL
MODEL 9
REMARK VINA RESULT:      -4.6     16.988     18.528
REMARK  8 active torsions:
REMARK  status: ('A' for Active; 'I' for Inactive)
REMARK    1  A    between atoms: N_2  and  C_7 
REMARK       I    between atoms: N_2  and  C_3 
REMARK    2  A    between atoms: C_3  and  C_14 
REMARK    3  A    between atoms: Se_4  and  C_5 
REMARK    4  A    between atoms: C_5  and  C_7 
REMARK    5  A    between atoms: C_7  and  C_20 
REMARK    6  A    between atoms: N_11  and  C_14 
REMARK    7  A    between atoms: C_14  and  C_19 
REMARK    8  A    between atoms: C_17  and  C_19 
ROOT
HETATM    1  N           1     -21.433  -8.687  -2.631  0.00  0.00    -0.345 N 
HETATM    2  C           1     -21.129  -8.851  -1.306  0.00  0.00     0.249 C 
HETATM    3  O           1     -20.448  -8.033  -0.738  0.00  0.00    -0.271 OA
HETATM    4  H           1     -22.005  -9.372  -3.108  0.00  0.00     0.163 HD
ENDROOT
BRANCH   2   5
HETATM    5  C           1     -21.647 -10.055  -0.557  0.00  0.00     0.275 C 
BRANCH   5   6
HETATM    6  N           1     -20.831 -10.258   0.685  0.00  0.00    -0.066 N 
HETATM    7  H           1     -21.457 -10.234   1.521  0.00  0.00     0.275 HD
HETATM    8  H           1     -20.348 -11.184   0.637  0.00  0.00     0.275 HD
HETATM    9  H           1     -20.117  -9.499   0.760  0.00  0.00     0.275 HD
ENDBRANCH   5   6
BRANCH   5  10
HETATM   10  C           1     -23.103  -9.828  -0.176  0.00  0.00     0.046 C 
BRANCH  10  11
HETATM   11  C           1     -23.921 -11.059  -0.538  0.00  0.00    -0.020 C 
HETATM   12  C           1     -23.621 -12.177   0.452  0.00  0.00     0.009 C 
HETATM   13  C           1     -23.556 -11.516  -1.944  0.00  0.00     0.009 C 
ENDBRANCH  10  11
ENDBRANCH   5  10
ENDBRANCH   2   5
BRANCH   1  14
HETATM   14  C           1     -20.936  -7.531  -3.352  0.00  0.00     0.185 C 
BRANCH  14  15
HETATM   15  C           1     -20.491  -7.955  -4.745  0.00  0.00     0.039 C 
BRANCH  15  16
HETATM   16 Se           1     -19.020  -9.225  -4.600  0.00  0.00     0.000 Se
HETATM   17  H           1     -19.337  -9.612  -3.216  0.00  0.00     0.000 HD
ENDBRANCH  15  16
ENDBRANCH  14  15
BRANCH  14  18
HETATM   18  C           1     -22.032  -6.501  -3.465  0.00  0.00     0.196 C 
HETATM   19  O           1     -22.524  -6.231  -4.581  0.00  0.00    -0.646 OA
HETATM   20  O           1     -22.449  -5.916  -2.441  0.00  0.00    -0.646 OA
ENDBRANCH  14  18
ENDBRANCH   1  14
TORSDOF 8
ENDMDL
