MODEL 1
REMARK VINA RESULT:      -6.7      0.000      0.000
REMARK  5 active torsions:
REMARK  status: ('A' for Active; 'I' for Inactive)
REMARK    1  A    between atoms: C_4  and  C_13 
REMARK    2  A    between atoms: C_4  and  C_18 
REMARK       I    between atoms: C_7  and  N_15 
REMARK    3  A    between atoms: C_7  and  C_16 
REMARK    4  A    between atoms: C_8  and  C_18 
REMARK    5  A    between atoms: N_15  and  C_18 
ROOT
HETATM    1  H           1     -34.696  -0.826 -11.485  0.00  0.00     0.163 HD
HETATM    2  C           1     -34.224  -2.543 -12.540  0.00  0.00     0.251 C 
HETATM    3  O           1     -34.410  -3.159 -13.562  0.00  0.00    -0.271 OA
HETATM    4  N           1     -34.852  -1.341 -12.341  0.00  0.00    -0.344 N 
ENDROOT
BRANCH   4   5
HETATM    5  C           1     -35.739  -0.810 -13.357  0.00  0.00     0.195 C 
BRANCH   5   6
HETATM    6  C           1     -36.964  -0.198 -12.694  0.00  0.00     0.149 C 
BRANCH   6   7
HETATM    7  C           1     -36.858  -0.356 -11.197  0.00  0.00     0.175 C 
HETATM    8  O           1     -37.275  -1.398 -10.648  0.00  0.00    -0.648 OA
HETATM    9  O           1     -36.355   0.557 -10.506  0.00  0.00    -0.648 OA
ENDBRANCH   6   7
ENDBRANCH   5   6
BRANCH   5  10
HETATM   10  C           1     -35.014   0.249 -14.152  0.00  0.00     0.197 C 
HETATM   11  O           1     -34.702   1.331 -13.609  0.00  0.00    -0.646 OA
HETATM   12  O           1     -34.727   0.045 -15.350  0.00  0.00    -0.646 OA
ENDBRANCH   5  10
ENDBRANCH   4   5
BRANCH   2  13
HETATM   13  C           1     -33.302  -3.096 -11.482  0.00  0.00     0.311 C 
HETATM   14  N           1     -34.049  -3.464 -10.283  0.00  0.00     0.097 N 
HETATM   15  C           1     -34.666  -4.749 -10.602  0.00  0.00     0.271 C 
HETATM   16  H           1     -33.422  -3.577  -9.487  0.00  0.00     0.317 HD
HETATM   17  C           1     -33.581  -5.493 -11.362  0.00  0.00     0.033 C 
HETATM   18  C           1     -32.682  -4.406 -11.937  0.00  0.00     0.047 C 
ENDBRANCH   2  13
TORSDOF 5
ENDMDL
MODEL 2
REMARK VINA RESULT:      -6.2      2.186      5.197
REMARK  5 active torsions:
REMARK  status: ('A' for Active; 'I' for Inactive)
REMARK    1  A    between atoms: C_4  and  C_13 
REMARK    2  A    between atoms: C_4  and  C_18 
REMARK       I    between atoms: C_7  and  N_15 
REMARK    3  A    between atoms: C_7  and  C_16 
REMARK    4  A    between atoms: C_8  and  C_18 
REMARK    5  A    between atoms: N_15  and  C_18 
ROOT
HETATM    1  H           1     -33.887  -1.150 -13.313  0.00  0.00     0.163 HD
HETATM    2  C           1     -35.913  -0.762 -13.488  0.00  0.00     0.251 C 
HETATM    3  O           1     -37.011  -1.019 -13.055  0.00  0.00    -0.271 OA
HETATM    4  N           1     -34.807  -1.365 -12.950  0.00  0.00    -0.344 N 
ENDROOT
BRANCH   4   5
HETATM    5  C           1     -34.955  -2.310 -11.860  0.00  0.00     0.195 C 
BRANCH   5   6
HETATM    6  C           1     -33.994  -3.473 -12.062  0.00  0.00     0.149 C 
BRANCH   6   7
HETATM    7  C           1     -34.425  -4.281 -13.261  0.00  0.00     0.175 C 
HETATM    8  O           1     -35.074  -5.337 -13.102  0.00  0.00    -0.648 OA
HETATM    9  O           1     -34.133  -3.893 -14.413  0.00  0.00    -0.648 OA
ENDBRANCH   6   7
ENDBRANCH   5   6
BRANCH   5  10
HETATM   10  C           1     -34.644  -1.621 -10.554  0.00  0.00     0.197 C 
HETATM   11  O           1     -35.542  -0.995  -9.949  0.00  0.00    -0.646 OA
HETATM   12  O           1     -33.490  -1.676 -10.076  0.00  0.00    -0.646 OA
ENDBRANCH   5  10
ENDBRANCH   4   5
BRANCH   2  13
HETATM   13  C           1     -35.759   0.220 -14.623  0.00  0.00     0.311 C 
HETATM   14  N           1     -34.795  -0.267 -15.605  0.00  0.00     0.097 N 
HETATM   15  C           1     -35.523  -1.259 -16.390  0.00  0.00     0.271 C 
HETATM   16  H           1     -34.486   0.490 -16.215  0.00  0.00     0.317 HD
HETATM   17  C           1     -36.898  -0.638 -16.574  0.00  0.00     0.033 C 
HETATM   18  C           1     -37.051   0.338 -15.414  0.00  0.00     0.047 C 
ENDBRANCH   2  13
TORSDOF 5
ENDMDL
MODEL 3
REMARK VINA RESULT:      -6.2     12.057     13.672
REMARK  5 active torsions:
REMARK  status: ('A' for Active; 'I' for Inactive)
REMARK    1  A    between atoms: C_4  and  C_13 
REMARK    2  A    between atoms: C_4  and  C_18 
REMARK       I    between atoms: C_7  and  N_15 
REMARK    3  A    between atoms: C_7  and  C_16 
REMARK    4  A    between atoms: C_8  and  C_18 
REMARK    5  A    between atoms: N_15  and  C_18 
ROOT
HETATM    1  H           1     -22.300  -3.106  -9.343  0.00  0.00     0.163 HD
HETATM    2  C           1     -20.602  -4.289  -9.319  0.00  0.00     0.251 C 
HETATM    3  O           1     -19.970  -5.126  -9.918  0.00  0.00    -0.271 OA
HETATM    4  N           1     -21.771  -3.807  -9.845  0.00  0.00    -0.344 N 
ENDROOT
BRANCH   4   5
HETATM    5  C           1     -22.250  -4.302 -11.121  0.00  0.00     0.195 C 
BRANCH   5   6
HETATM    6  C           1     -23.655  -4.861 -10.956  0.00  0.00     0.149 C 
BRANCH   6   7
HETATM    7  C           1     -24.410  -4.034  -9.944  0.00  0.00     0.175 C 
HETATM    8  O           1     -25.289  -3.231 -10.324  0.00  0.00    -0.648 OA
HETATM    9  O           1     -24.157  -4.153  -8.725  0.00  0.00    -0.648 OA
ENDBRANCH   6   7
ENDBRANCH   5   6
BRANCH   5  10
HETATM   10  C           1     -22.272  -3.171 -12.121  0.00  0.00     0.197 C 
HETATM   11  O           1     -22.860  -3.316 -13.214  0.00  0.00    -0.646 OA
HETATM   12  O           1     -21.702  -2.091 -11.855  0.00  0.00    -0.646 OA
ENDBRANCH   5  10
ENDBRANCH   4   5
BRANCH   2  13
HETATM   13  C           1     -20.105  -3.775  -7.990  0.00  0.00     0.311 C 
HETATM   14  N           1     -21.205  -3.643  -7.040  0.00  0.00     0.097 N 
HETATM   15  C           1     -21.460  -5.001  -6.566  0.00  0.00     0.271 C 
HETATM   16  H           1     -20.934  -3.054  -6.253  0.00  0.00     0.317 HD
HETATM   17  C           1     -20.071  -5.593  -6.399  0.00  0.00     0.033 C 
HETATM   18  C           1     -19.179  -4.784  -7.333  0.00  0.00     0.047 C 
ENDBRANCH   2  13
TORSDOF 5
ENDMDL
MODEL 4
REMARK VINA RESULT:      -5.9      2.440      4.956
REMARK  5 active torsions:
REMARK  status: ('A' for Active; 'I' for Inactive)
REMARK    1  A    between atoms: C_4  and  C_13 
REMARK    2  A    between atoms: C_4  and  C_18 
REMARK       I    between atoms: C_7  and  N_15 
REMARK    3  A    between atoms: C_7  and  C_16 
REMARK    4  A    between atoms: C_8  and  C_18 
REMARK    5  A    between atoms: N_15  and  C_18 
ROOT
HETATM    1  H           1     -35.166   0.075 -12.149  0.00  0.00     0.163 HD
HETATM    2  C           1     -36.774  -0.180 -13.427  0.00  0.00     0.251 C 
HETATM    3  O           1     -37.889  -0.631 -13.537  0.00  0.00    -0.271 OA
HETATM    4  N           1     -36.100  -0.303 -12.241  0.00  0.00    -0.344 N 
ENDROOT
BRANCH   4   5
HETATM    5  C           1     -36.725  -0.976 -11.119  0.00  0.00     0.195 C 
BRANCH   5   6
HETATM    6  C           1     -35.861  -2.150 -10.684  0.00  0.00     0.149 C 
BRANCH   6   7
HETATM    7  C           1     -34.521  -2.074 -11.374  0.00  0.00     0.175 C 
HETATM    8  O           1     -33.564  -1.495 -10.817  0.00  0.00    -0.648 OA
HETATM    9  O           1     -34.369  -2.589 -12.503  0.00  0.00    -0.648 OA
ENDBRANCH   6   7
ENDBRANCH   5   6
BRANCH   5  10
HETATM   10  C           1     -36.870  -0.006  -9.971  0.00  0.00     0.197 C 
HETATM   11  O           1     -37.668   0.953 -10.062  0.00  0.00    -0.646 OA
HETATM   12  O           1     -36.195  -0.161  -8.931  0.00  0.00    -0.646 OA
ENDBRANCH   5  10
ENDBRANCH   4   5
BRANCH   2  13
HETATM   13  C           1     -36.123   0.519 -14.595  0.00  0.00     0.311 C 
HETATM   14  N           1     -34.888  -0.157 -14.982  0.00  0.00     0.097 N 
HETATM   15  C           1     -35.319  -1.321 -15.751  0.00  0.00     0.271 C 
HETATM   16  H           1     -34.315   0.446 -15.571  0.00  0.00     0.317 HD
HETATM   17  C           1     -36.467  -0.793 -16.594  0.00  0.00     0.033 C 
HETATM   18  C           1     -36.993   0.419 -15.836  0.00  0.00     0.047 C 
ENDBRANCH   2  13
TORSDOF 5
ENDMDL
MODEL 5
REMARK VINA RESULT:      -5.7     12.464     14.372
REMARK  5 active torsions:
REMARK  status: ('A' for Active; 'I' for Inactive)
REMARK    1  A    between atoms: C_4  and  C_13 
REMARK    2  A    between atoms: C_4  and  C_18 
REMARK       I    between atoms: C_7  and  N_15 
REMARK    3  A    between atoms: C_7  and  C_16 
REMARK    4  A    between atoms: C_8  and  C_18 
REMARK    5  A    between atoms: N_15  and  C_18 
ROOT
HETATM    1  H           1     -21.920  -5.294  -9.221  0.00  0.00     0.163 HD
HETATM    2  C           1     -21.368  -3.868 -10.616  0.00  0.00     0.251 C 
HETATM    3  O           1     -20.702  -2.880 -10.811  0.00  0.00    -0.271 OA
HETATM    4  N           1     -21.362  -4.466  -9.384  0.00  0.00    -0.344 N 
ENDROOT
BRANCH   4   5
HETATM    5  C           1     -20.556  -3.912  -8.314  0.00  0.00     0.195 C 
BRANCH   5   6
HETATM    6  C           1     -21.463  -3.446  -7.183  0.00  0.00     0.149 C 
BRANCH   6   7
HETATM    7  C           1     -22.648  -4.373  -7.073  0.00  0.00     0.175 C 
HETATM    8  O           1     -23.602  -4.264  -7.873  0.00  0.00    -0.648 OA
HETATM    9  O           1     -22.676  -5.249  -6.182  0.00  0.00    -0.648 OA
ENDBRANCH   6   7
ENDBRANCH   5   6
BRANCH   5  10
HETATM   10  C           1     -19.611  -4.969  -7.798  0.00  0.00     0.197 C 
HETATM   11  O           1     -18.518  -4.636  -7.291  0.00  0.00    -0.646 OA
HETATM   12  O           1     -19.921  -6.177  -7.879  0.00  0.00    -0.646 OA
ENDBRANCH   5  10
ENDBRANCH   4   5
BRANCH   2  13
HETATM   13  C           1     -22.208  -4.444 -11.730  0.00  0.00     0.311 C 
HETATM   14  N           1     -23.542  -4.789 -11.249  0.00  0.00     0.097 N 
HETATM   15  C           1     -24.262  -3.521 -11.187  0.00  0.00     0.271 C 
HETATM   16  H           1     -24.012  -5.415 -11.903  0.00  0.00     0.317 HD
HETATM   17  C           1     -23.818  -2.791 -12.445  0.00  0.00     0.033 C 
HETATM   18  C           1     -22.470  -3.402 -12.803  0.00  0.00     0.047 C 
ENDBRANCH   2  13
TORSDOF 5
ENDMDL
MODEL 6
REMARK VINA RESULT:      -5.6      1.264      3.106
REMARK  5 active torsions:
REMARK  status: ('A' for Active; 'I' for Inactive)
REMARK    1  A    between atoms: C_4  and  C_13 
REMARK    2  A    between atoms: C_4  and  C_18 
REMARK       I    between atoms: C_7  and  N_15 
REMARK    3  A    between atoms: C_7  and  C_16 
REMARK    4  A    between atoms: C_8  and  C_18 
REMARK    5  A    between atoms: N_15  and  C_18 
ROOT
HETATM    1  H           1     -33.846  -0.738 -11.408  0.00  0.00     0.163 HD
HETATM    2  C           1     -35.310  -2.156 -11.049  0.00  0.00     0.251 C 
HETATM    3  O           1     -36.492  -2.396 -11.108  0.00  0.00    -0.271 OA
HETATM    4  N           1     -34.836  -0.938 -11.458  0.00  0.00    -0.344 N 
ENDROOT
BRANCH   4   5
HETATM    5  C           1     -35.755   0.064 -11.963  0.00  0.00     0.195 C 
BRANCH   5   6
HETATM    6  C           1     -36.430  -0.455 -13.224  0.00  0.00     0.149 C 
BRANCH   6   7
HETATM    7  C           1     -35.415  -0.549 -14.337  0.00  0.00     0.175 C 
HETATM    8  O           1     -34.555   0.347 -14.475  0.00  0.00    -0.648 OA
HETATM    9  O           1     -35.435  -1.523 -15.121  0.00  0.00    -0.648 OA
ENDBRANCH   6   7
ENDBRANCH   5   6
BRANCH   5  10
HETATM   10  C           1     -36.801   0.357 -10.916  0.00  0.00     0.197 C 
HETATM   11  O           1     -36.454   0.694  -9.763  0.00  0.00    -0.646 OA
HETATM   12  O           1     -38.015   0.264 -11.201  0.00  0.00    -0.646 OA
ENDBRANCH   5  10
ENDBRANCH   4   5
BRANCH   2  13
HETATM   13  C           1     -34.354  -3.199 -10.522  0.00  0.00     0.311 C 
HETATM   14  N           1     -34.838  -4.544 -10.819  0.00  0.00     0.097 N 
HETATM   15  C           1     -34.507  -4.763 -12.224  0.00  0.00     0.271 C 
HETATM   16  H           1     -34.357  -5.236 -10.245  0.00  0.00     0.317 HD
HETATM   17  C           1     -33.123  -4.151 -12.370  0.00  0.00     0.033 C 
HETATM   18  C           1     -33.022  -3.126 -11.248  0.00  0.00     0.047 C 
ENDBRANCH   2  13
TORSDOF 5
ENDMDL
MODEL 7
REMARK VINA RESULT:      -5.6      2.095      5.058
REMARK  5 active torsions:
REMARK  status: ('A' for Active; 'I' for Inactive)
REMARK    1  A    between atoms: C_4  and  C_13 
REMARK    2  A    between atoms: C_4  and  C_18 
REMARK       I    between atoms: C_7  and  N_15 
REMARK    3  A    between atoms: C_7  and  C_16 
REMARK    4  A    between atoms: C_8  and  C_18 
REMARK    5  A    between atoms: N_15  and  C_18 
ROOT
HETATM    1  H           1     -35.575   0.124 -12.733  0.00  0.00     0.163 HD
HETATM    2  C           1     -35.120  -1.295 -14.170  0.00  0.00     0.251 C 
HETATM    3  O           1     -34.879  -2.462 -14.367  0.00  0.00    -0.271 OA
HETATM    4  N           1     -35.374  -0.854 -12.898  0.00  0.00    -0.344 N 
ENDROOT
BRANCH   4   5
HETATM    5  C           1     -35.353  -1.788 -11.790  0.00  0.00     0.195 C 
BRANCH   5   6
HETATM    6  C           1     -33.946  -1.864 -11.214  0.00  0.00     0.149 C 
BRANCH   6   7
HETATM    7  C           1     -33.499  -3.303 -11.164  0.00  0.00     0.175 C 
HETATM    8  O           1     -33.925  -4.059 -10.265  0.00  0.00    -0.648 OA
HETATM    9  O           1     -32.701  -3.740 -12.023  0.00  0.00    -0.648 OA
ENDBRANCH   6   7
ENDBRANCH   5   6
BRANCH   5  10
HETATM   10  C           1     -36.310  -1.319 -10.721  0.00  0.00     0.197 C 
HETATM   11  O           1     -35.868  -0.860  -9.645  0.00  0.00    -0.646 OA
HETATM   12  O           1     -37.543  -1.389 -10.911  0.00  0.00    -0.646 OA
ENDBRANCH   5  10
ENDBRANCH   4   5
BRANCH   2  13
HETATM   13  C           1     -35.140  -0.322 -15.324  0.00  0.00     0.311 C 
HETATM   14  N           1     -35.793  -0.913 -16.489  0.00  0.00     0.097 N 
HETATM   15  C           1     -37.223  -0.814 -16.211  0.00  0.00     0.271 C 
HETATM   16  H           1     -35.573  -0.384 -17.332  0.00  0.00     0.317 HD
HETATM   17  C           1     -37.375   0.559 -15.578  0.00  0.00     0.033 C 
HETATM   18  C           1     -36.004   0.883 -14.998  0.00  0.00     0.047 C 
ENDBRANCH   2  13
TORSDOF 5
ENDMDL
MODEL 8
REMARK VINA RESULT:      -5.2     12.572     14.514
REMARK  5 active torsions:
REMARK  status: ('A' for Active; 'I' for Inactive)
REMARK    1  A    between atoms: C_4  and  C_13 
REMARK    2  A    between atoms: C_4  and  C_18 
REMARK       I    between atoms: C_7  and  N_15 
REMARK    3  A    between atoms: C_7  and  C_16 
REMARK    4  A    between atoms: C_8  and  C_18 
REMARK    5  A    between atoms: N_15  and  C_18 
ROOT
HETATM    1  H           1     -21.328  -5.600  -9.548  0.00  0.00     0.163 HD
HETATM    2  C           1     -23.077  -4.555  -9.185  0.00  0.00     0.251 C 
HETATM    3  O           1     -23.697  -3.916  -8.369  0.00  0.00    -0.271 OA
HETATM    4  N           1     -21.847  -5.065  -8.864  0.00  0.00    -0.344 N 
ENDROOT
BRANCH   4   5
HETATM    5  C           1     -21.290  -4.838  -7.545  0.00  0.00     0.195 C 
BRANCH   5   6
HETATM    6  C           1     -21.224  -6.156  -6.787  0.00  0.00     0.149 C 
BRANCH   6   7
HETATM    7  C           1     -21.802  -5.973  -5.405  0.00  0.00     0.175 C 
HETATM    8  O           1     -23.034  -6.076  -5.225  0.00  0.00    -0.648 OA
HETATM    9  O           1     -21.048  -5.718  -4.441  0.00  0.00    -0.648 OA
ENDBRANCH   6   7
ENDBRANCH   5   6
BRANCH   5  10
HETATM   10  C           1     -19.901  -4.264  -7.679  0.00  0.00     0.197 C 
HETATM   11  O           1     -19.642  -3.470  -8.610  0.00  0.00    -0.646 OA
HETATM   12  O           1     -19.011  -4.581  -6.861  0.00  0.00    -0.646 OA
ENDBRANCH   5  10
ENDBRANCH   4   5
BRANCH   2  13
HETATM   13  C           1     -23.658  -4.792 -10.558  0.00  0.00     0.311 C 
HETATM   14  N           1     -24.417  -3.629 -11.008  0.00  0.00     0.097 N 
HETATM   15  C           1     -23.411  -2.671 -11.457  0.00  0.00     0.271 C 
HETATM   16  H           1     -25.025  -3.875 -11.789  0.00  0.00     0.317 HD
HETATM   17  C           1     -22.390  -3.531 -12.182  0.00  0.00     0.033 C 
HETATM   18  C           1     -22.555  -4.926 -11.594  0.00  0.00     0.047 C 
ENDBRANCH   2  13
TORSDOF 5
ENDMDL
MODEL 9
REMARK VINA RESULT:      -5.1     15.127     17.308
REMARK  5 active torsions:
REMARK  status: ('A' for Active; 'I' for Inactive)
REMARK    1  A    between atoms: C_4  and  C_13 
REMARK    2  A    between atoms: C_4  and  C_18 
REMARK       I    between atoms: C_7  and  N_15 
REMARK    3  A    between atoms: C_7  and  C_16 
REMARK    4  A    between atoms: C_8  and  C_18 
REMARK    5  A    between atoms: N_15  and  C_18 
ROOT
HETATM    1  H           1     -19.818  -6.358  -4.385  0.00  0.00     0.163 HD
HETATM    2  C           1     -21.365  -5.500  -5.460  0.00  0.00     0.251 C 
HETATM    3  O           1     -22.548  -5.541  -5.696  0.00  0.00    -0.271 OA
HETATM    4  N           1     -20.809  -6.393  -4.583  0.00  0.00    -0.344 N 
ENDROOT
BRANCH   4   5
HETATM    5  C           1     -21.643  -7.390  -3.939  0.00  0.00     0.195 C 
BRANCH   5   6
HETATM    6  C           1     -21.103  -8.779  -4.243  0.00  0.00     0.149 C 
BRANCH   6   7
HETATM    7  C           1     -19.690  -8.668  -4.762  0.00  0.00     0.175 C 
HETATM    8  O           1     -18.725  -8.825  -3.984  0.00  0.00    -0.648 OA
HETATM    9  O           1     -19.485  -8.420  -5.970  0.00  0.00    -0.648 OA
ENDBRANCH   6   7
ENDBRANCH   5   6
BRANCH   5  10
HETATM   10  C           1     -21.635  -7.162  -2.447  0.00  0.00     0.197 C 
HETATM   11  O           1     -22.235  -6.177  -1.963  0.00  0.00    -0.646 OA
HETATM   12  O           1     -21.030  -7.956  -1.696  0.00  0.00    -0.646 OA
ENDBRANCH   5  10
ENDBRANCH   4   5
BRANCH   2  13
HETATM   13  C           1     -20.497  -4.463  -6.131  0.00  0.00     0.311 C 
HETATM   14  N           1     -19.452  -5.099  -6.929  0.00  0.00     0.097 N 
HETATM   15  C           1     -20.120  -5.523  -8.156  0.00  0.00     0.271 C 
HETATM   16  H           1     -18.715  -4.432  -7.156  0.00  0.00     0.317 HD
HETATM   17  C           1     -21.051  -4.367  -8.480  0.00  0.00     0.033 C 
HETATM   18  C           1     -21.295  -3.668  -7.149  0.00  0.00     0.047 C 
ENDBRANCH   2  13
TORSDOF 5
ENDMDL
