MODEL 1
REMARK VINA RESULT:      -7.6      0.000      0.000
REMARK  12 active torsions:
REMARK  status: ('A' for Active; 'I' for Inactive)
REMARK       I    between atoms: N_1  and  C_2 
REMARK       I    between atoms: C_2  and  N_3 
REMARK    1  A    between atoms: N_4  and  C_5 
REMARK    2  A    between atoms: C_5  and  C_6 
REMARK    3  A    between atoms: C_6  and  C_7 
REMARK    4  A    between atoms: C_7  and  C_8 
REMARK    5  A    between atoms: C_8  and  C_9 
REMARK    6  A    between atoms: C_8  and  N_12 
REMARK       I    between atoms: N_12  and  C_13 
REMARK    7  A    between atoms: C_13  and  C_14 
REMARK    8  A    between atoms: C_14  and  C_15 
REMARK    9  A    between atoms: C_14  and  N_21 
REMARK   10  A    between atoms: C_15  and  O_16 
REMARK   11  A    between atoms: O_16  and  P_17 
REMARK   12  A    between atoms: P_17  and  O_18 
ROOT
HETATM    1  C           1     -34.132  -3.824 -13.029  0.00  0.00     0.185 C 
ENDROOT
BRANCH   1   2
HETATM    2  C           1     -33.100  -3.952 -11.916  0.00  0.00     0.038 C 
BRANCH   2   3
HETATM    3  C           1     -33.744  -4.605 -10.699  0.00  0.00     0.023 C 
BRANCH   3   4
HETATM    4  C           1     -34.596  -5.785 -11.146  0.00  0.00     0.138 C 
BRANCH   4   5
HETATM    5  N           1     -33.818  -7.026 -11.023  0.00  0.00    -0.227 N 
HETATM    6  C           1     -34.183  -7.924 -10.208  0.00  0.00     0.665 C 
HETATM    7  N           1     -33.495  -9.021 -10.100  0.00  0.00    -0.235 N 
HETATM    8  N           1     -35.218  -7.752  -9.499  0.00  0.00    -0.235 N 
HETATM    9  H           1     -32.641  -9.164 -10.685  0.00  0.00     0.174 HD
HETATM   10  H           1     -33.796  -9.762  -9.427  0.00  0.00     0.174 HD
HETATM   11  H           1     -35.773  -6.865  -9.587  0.00  0.00     0.174 HD
HETATM   12  H           1     -35.520  -8.496  -8.823  0.00  0.00     0.174 HD
HETATM   13  H           1     -32.961  -7.169 -11.611  0.00  0.00     0.177 HD
ENDBRANCH   4   5
ENDBRANCH   3   4
ENDBRANCH   2   3
ENDBRANCH   1   2
BRANCH   1  14
HETATM   14  C           1     -34.904  -2.540 -12.855  0.00  0.00     0.196 C 
HETATM   15  O           1     -35.808  -2.465 -11.994  0.00  0.00    -0.646 OA
HETATM   16  O           1     -34.640  -1.549 -13.570  0.00  0.00    -0.646 OA
ENDBRANCH   1  14
BRANCH   1  17
HETATM   17  N           1     -33.456  -3.810 -14.313  0.00  0.00    -0.345 N 
HETATM   18  C           1     -33.995  -4.482 -15.377  0.00  0.00     0.251 C 
HETATM   19  O           1     -35.034  -5.086 -15.246  0.00  0.00    -0.271 OA
HETATM   20  H           1     -32.587  -3.304 -14.422  0.00  0.00     0.163 HD
BRANCH  18  21
HETATM   21  C           1     -33.293  -4.467 -16.712  0.00  0.00     0.298 C 
BRANCH  21  22
HETATM   22  C           1     -31.824  -4.820 -16.518  0.00  0.00     0.224 C 
BRANCH  22  23
HETATM   23  O           1     -31.532  -6.006 -17.206  0.00  0.00    -0.287 OA
BRANCH  23  24
HETATM   24  P           1     -29.980  -6.451 -17.223  0.00  0.00     0.406 P 
HETATM   25  O           1     -29.297  -5.815 -18.371  0.00  0.00    -0.624 OA
HETATM   26  O           1     -29.891  -7.923 -17.348  0.00  0.00    -0.624 OA
BRANCH  24  27
HETATM   27  O           1     -29.270  -5.983 -15.850  0.00  0.00    -0.300 OA
HETATM   28  H           1     -29.900  -5.423 -15.429  0.00  0.00     0.223 HD
ENDBRANCH  24  27
ENDBRANCH  23  24
ENDBRANCH  22  23
ENDBRANCH  21  22
BRANCH  21  29
HETATM   29  N           1     -33.402  -3.100 -17.319  0.00  0.00    -0.064 N 
HETATM   30  H           1     -33.640  -3.186 -18.333  0.00  0.00     0.275 HD
HETATM   31  H           1     -34.153  -2.561 -16.830  0.00  0.00     0.275 HD
HETATM   32  H           1     -32.491  -2.599 -17.216  0.00  0.00     0.275 HD
ENDBRANCH  21  29
ENDBRANCH  18  21
ENDBRANCH   1  17
TORSDOF 12
ENDMDL
MODEL 2
REMARK VINA RESULT:      -7.5      3.569      5.784
REMARK  12 active torsions:
REMARK  status: ('A' for Active; 'I' for Inactive)
REMARK       I    between atoms: N_1  and  C_2 
REMARK       I    between atoms: C_2  and  N_3 
REMARK    1  A    between atoms: N_4  and  C_5 
REMARK    2  A    between atoms: C_5  and  C_6 
REMARK    3  A    between atoms: C_6  and  C_7 
REMARK    4  A    between atoms: C_7  and  C_8 
REMARK    5  A    between atoms: C_8  and  C_9 
REMARK    6  A    between atoms: C_8  and  N_12 
REMARK       I    between atoms: N_12  and  C_13 
REMARK    7  A    between atoms: C_13  and  C_14 
REMARK    8  A    between atoms: C_14  and  C_15 
REMARK    9  A    between atoms: C_14  and  N_21 
REMARK   10  A    between atoms: C_15  and  O_16 
REMARK   11  A    between atoms: O_16  and  P_17 
REMARK   12  A    between atoms: P_17  and  O_18 
ROOT
HETATM    1  C           1     -33.922  -3.209 -12.761  0.00  0.00     0.185 C 
ENDROOT
BRANCH   1   2
HETATM    2  C           1     -33.185  -4.006 -11.693  0.00  0.00     0.038 C 
BRANCH   2   3
HETATM    3  C           1     -34.072  -4.148 -10.462  0.00  0.00     0.023 C 
BRANCH   3   4
HETATM    4  C           1     -34.879  -5.435 -10.563  0.00  0.00     0.138 C 
BRANCH   4   5
HETATM    5  N           1     -33.968  -6.569 -10.778  0.00  0.00    -0.227 N 
HETATM    6  C           1     -34.198  -7.681 -10.218  0.00  0.00     0.665 C 
HETATM    7  N           1     -33.393  -8.683 -10.408  0.00  0.00    -0.235 N 
HETATM    8  N           1     -35.213  -7.816  -9.472  0.00  0.00    -0.235 N 
HETATM    9  H           1     -32.556  -8.572 -11.023  0.00  0.00     0.174 HD
HETATM   10  H           1     -33.583  -9.602  -9.946  0.00  0.00     0.174 HD
HETATM   11  H           1     -35.864  -7.006  -9.319  0.00  0.00     0.174 HD
HETATM   12  H           1     -35.404  -8.738  -9.008  0.00  0.00     0.174 HD
HETATM   13  H           1     -33.127  -6.457 -11.395  0.00  0.00     0.177 HD
ENDBRANCH   4   5
ENDBRANCH   3   4
ENDBRANCH   2   3
ENDBRANCH   1   2
BRANCH   1  14
HETATM   14  C           1     -34.258  -4.113 -13.922  0.00  0.00     0.196 C 
HETATM   15  O           1     -34.962  -5.130 -13.739  0.00  0.00    -0.646 OA
HETATM   16  O           1     -33.834  -3.844 -15.067  0.00  0.00    -0.646 OA
ENDBRANCH   1  14
BRANCH   1  17
HETATM   17  N           1     -35.146  -2.668 -12.201  0.00  0.00    -0.345 N 
HETATM   18  C           1     -35.245  -1.328 -11.940  0.00  0.00     0.251 C 
HETATM   19  O           1     -34.313  -0.596 -12.176  0.00  0.00    -0.271 OA
HETATM   20  H           1     -35.926  -3.282 -12.003  0.00  0.00     0.163 HD
BRANCH  18  21
HETATM   21  C           1     -36.518  -0.766 -11.357  0.00  0.00     0.298 C 
BRANCH  21  22
HETATM   22  C           1     -37.299  -0.042 -12.446  0.00  0.00     0.224 C 
BRANCH  22  23
HETATM   23  O           1     -37.291  -0.811 -13.618  0.00  0.00    -0.287 OA
BRANCH  23  24
HETATM   24  P           1     -36.649  -0.108 -14.923  0.00  0.00     0.406 P 
HETATM   25  O           1     -37.734   0.380 -15.803  0.00  0.00    -0.624 OA
HETATM   26  O           1     -35.822  -1.092 -15.656  0.00  0.00    -0.624 OA
BRANCH  24  27
HETATM   27  O           1     -35.728   1.137 -14.465  0.00  0.00    -0.300 OA
HETATM   28  H           1     -35.136   1.278 -15.184  0.00  0.00     0.223 HD
ENDBRANCH  24  27
ENDBRANCH  23  24
ENDBRANCH  22  23
ENDBRANCH  21  22
BRANCH  21  29
HETATM   29  N           1     -36.180   0.200 -10.260  0.00  0.00    -0.064 N 
HETATM   30  H           1     -35.756  -0.318  -9.457  0.00  0.00     0.275 HD
HETATM   31  H           1     -35.498   0.907 -10.616  0.00  0.00     0.275 HD
HETATM   32  H           1     -37.050   0.683  -9.941  0.00  0.00     0.275 HD
ENDBRANCH  21  29
ENDBRANCH  18  21
ENDBRANCH   1  17
TORSDOF 12
ENDMDL
MODEL 3
REMARK VINA RESULT:      -7.3      4.106      7.001
REMARK  12 active torsions:
REMARK  status: ('A' for Active; 'I' for Inactive)
REMARK       I    between atoms: N_1  and  C_2 
REMARK       I    between atoms: C_2  and  N_3 
REMARK    1  A    between atoms: N_4  and  C_5 
REMARK    2  A    between atoms: C_5  and  C_6 
REMARK    3  A    between atoms: C_6  and  C_7 
REMARK    4  A    between atoms: C_7  and  C_8 
REMARK    5  A    between atoms: C_8  and  C_9 
REMARK    6  A    between atoms: C_8  and  N_12 
REMARK       I    between atoms: N_12  and  C_13 
REMARK    7  A    between atoms: C_13  and  C_14 
REMARK    8  A    between atoms: C_14  and  C_15 
REMARK    9  A    between atoms: C_14  and  N_21 
REMARK   10  A    between atoms: C_15  and  O_16 
REMARK   11  A    between atoms: O_16  and  P_17 
REMARK   12  A    between atoms: P_17  and  O_18 
ROOT
HETATM    1  C           1     -33.786  -3.245 -12.827  0.00  0.00     0.185 C 
ENDROOT
BRANCH   1   2
HETATM    2  C           1     -33.086  -4.106 -11.785  0.00  0.00     0.038 C 
BRANCH   2   3
HETATM    3  C           1     -33.914  -4.132 -10.507  0.00  0.00     0.023 C 
BRANCH   3   4
HETATM    4  C           1     -34.767  -5.394 -10.479  0.00  0.00     0.138 C 
BRANCH   4   5
HETATM    5  N           1     -33.916  -6.566 -10.730  0.00  0.00    -0.227 N 
HETATM    6  C           1     -34.196  -7.678 -10.194  0.00  0.00     0.665 C 
HETATM    7  N           1     -33.444  -8.714 -10.416  0.00  0.00    -0.235 N 
HETATM    8  N           1     -35.208  -7.780  -9.440  0.00  0.00    -0.235 N 
HETATM    9  H           1     -32.608  -8.630 -11.039  0.00  0.00     0.174 HD
HETATM   10  H           1     -33.674  -9.633  -9.973  0.00  0.00     0.174 HD
HETATM   11  H           1     -35.815  -6.943  -9.260  0.00  0.00     0.174 HD
HETATM   12  H           1     -35.440  -8.702  -8.994  0.00  0.00     0.174 HD
HETATM   13  H           1     -33.077  -6.481 -11.355  0.00  0.00     0.177 HD
ENDBRANCH   4   5
ENDBRANCH   3   4
ENDBRANCH   2   3
ENDBRANCH   1   2
BRANCH   1  14
HETATM   14  C           1     -34.416  -4.131 -13.873  0.00  0.00     0.196 C 
HETATM   15  O           1     -35.051  -5.151 -13.529  0.00  0.00    -0.646 OA
HETATM   16  O           1     -34.304  -3.845 -15.085  0.00  0.00    -0.646 OA
ENDBRANCH   1  14
BRANCH   1  17
HETATM   17  N           1     -34.816  -2.451 -12.184  0.00  0.00    -0.345 N 
HETATM   18  C           1     -35.208  -1.262 -12.737  0.00  0.00     0.251 C 
HETATM   19  O           1     -34.697  -0.873 -13.760  0.00  0.00    -0.271 OA
HETATM   20  H           1     -35.244  -2.777 -11.327  0.00  0.00     0.163 HD
BRANCH  18  21
HETATM   21  C           1     -36.279  -0.437 -12.068  0.00  0.00     0.298 C 
BRANCH  21  22
HETATM   22  C           1     -36.787  -1.168 -10.832  0.00  0.00     0.224 C 
BRANCH  22  23
HETATM   23  O           1     -36.119  -0.688  -9.697  0.00  0.00    -0.287 OA
BRANCH  23  24
HETATM   24  P           1     -36.953   0.333  -8.763  0.00  0.00     0.406 P 
HETATM   25  O           1     -37.736   1.254  -9.617  0.00  0.00    -0.624 OA
HETATM   26  O           1     -36.015   1.113  -7.925  0.00  0.00    -0.624 OA
BRANCH  24  27
HETATM   27  O           1     -37.957  -0.503  -7.813  0.00  0.00    -0.300 OA
HETATM   28  H           1     -37.493  -0.607  -7.001  0.00  0.00     0.223 HD
ENDBRANCH  24  27
ENDBRANCH  23  24
ENDBRANCH  22  23
ENDBRANCH  21  22
BRANCH  21  29
HETATM   29  N           1     -37.416  -0.224 -13.024  0.00  0.00    -0.064 N 
HETATM   30  H           1     -38.000   0.580 -12.699  0.00  0.00     0.275 HD
HETATM   31  H           1     -37.035  -0.014 -13.975  0.00  0.00     0.275 HD
HETATM   32  H           1     -38.003  -1.086 -13.065  0.00  0.00     0.275 HD
ENDBRANCH  21  29
ENDBRANCH  18  21
ENDBRANCH   1  17
TORSDOF 12
ENDMDL
MODEL 4
REMARK VINA RESULT:      -7.2     11.925     14.000
REMARK  12 active torsions:
REMARK  status: ('A' for Active; 'I' for Inactive)
REMARK       I    between atoms: N_1  and  C_2 
REMARK       I    between atoms: C_2  and  N_3 
REMARK    1  A    between atoms: N_4  and  C_5 
REMARK    2  A    between atoms: C_5  and  C_6 
REMARK    3  A    between atoms: C_6  and  C_7 
REMARK    4  A    between atoms: C_7  and  C_8 
REMARK    5  A    between atoms: C_8  and  C_9 
REMARK    6  A    between atoms: C_8  and  N_12 
REMARK       I    between atoms: N_12  and  C_13 
REMARK    7  A    between atoms: C_13  and  C_14 
REMARK    8  A    between atoms: C_14  and  C_15 
REMARK    9  A    between atoms: C_14  and  N_21 
REMARK   10  A    between atoms: C_15  and  O_16 
REMARK   11  A    between atoms: O_16  and  P_17 
REMARK   12  A    between atoms: P_17  and  O_18 
ROOT
HETATM    1  C           1     -22.573  -3.807  -9.791  0.00  0.00     0.185 C 
ENDROOT
BRANCH   1   2
HETATM    2  C           1     -22.026  -3.883 -11.210  0.00  0.00     0.038 C 
BRANCH   2   3
HETATM    3  C           1     -22.376  -2.603 -11.959  0.00  0.00     0.023 C 
BRANCH   3   4
HETATM    4  C           1     -23.155  -2.950 -13.221  0.00  0.00     0.138 C 
BRANCH   4   5
HETATM    5  N           1     -23.968  -1.795 -13.628  0.00  0.00    -0.227 N 
HETATM    6  C           1     -23.767  -1.243 -14.749  0.00  0.00     0.665 C 
HETATM    7  N           1     -24.487  -0.222 -15.109  0.00  0.00    -0.235 N 
HETATM    8  N           1     -22.865  -1.685 -15.520  0.00  0.00    -0.235 N 
HETATM    9  H           1     -25.232   0.143 -14.473  0.00  0.00     0.174 HD
HETATM   10  H           1     -24.321   0.235 -16.035  0.00  0.00     0.174 HD
HETATM   11  H           1     -22.284  -2.510 -15.229  0.00  0.00     0.174 HD
HETATM   12  H           1     -22.698  -1.227 -16.450  0.00  0.00     0.174 HD
HETATM   13  H           1     -24.716  -1.429 -12.989  0.00  0.00     0.177 HD
ENDBRANCH   4   5
ENDBRANCH   3   4
ENDBRANCH   2   3
ENDBRANCH   1   2
BRANCH   1  14
HETATM   14  C           1     -24.080  -3.854  -9.827  0.00  0.00     0.196 C 
HETATM   15  O           1     -24.745  -2.841  -9.519  0.00  0.00    -0.646 OA
HETATM   16  O           1     -24.665  -4.905 -10.168  0.00  0.00    -0.646 OA
ENDBRANCH   1  14
BRANCH   1  17
HETATM   17  N           1     -22.074  -4.931  -9.022  0.00  0.00    -0.345 N 
HETATM   18  C           1     -21.701  -4.755  -7.716  0.00  0.00     0.251 C 
HETATM   19  O           1     -21.788  -3.664  -7.205  0.00  0.00    -0.271 OA
HETATM   20  H           1     -22.001  -5.845  -9.450  0.00  0.00     0.163 HD
BRANCH  18  21
HETATM   21  C           1     -21.182  -5.925  -6.916  0.00  0.00     0.298 C 
BRANCH  21  22
HETATM   22  C           1     -21.103  -5.539  -5.445  0.00  0.00     0.224 C 
BRANCH  22  23
HETATM   23  O           1     -21.881  -6.425  -4.686  0.00  0.00    -0.287 OA
BRANCH  23  24
HETATM   24  P           1     -21.097  -7.678  -4.036  0.00  0.00     0.406 P 
HETATM   25  O           1     -21.909  -8.905  -4.198  0.00  0.00    -0.624 OA
HETATM   26  O           1     -20.868  -7.423  -2.596  0.00  0.00    -0.624 OA
BRANCH  24  27
HETATM   27  O           1     -19.677  -7.871  -4.781  0.00  0.00    -0.300 OA
HETATM   28  H           1     -19.751  -7.372  -5.576  0.00  0.00     0.223 HD
ENDBRANCH  24  27
ENDBRANCH  23  24
ENDBRANCH  22  23
ENDBRANCH  21  22
BRANCH  21  29
HETATM   29  N           1     -19.815  -6.299  -7.408  0.00  0.00    -0.064 N 
HETATM   30  H           1     -19.134  -5.548  -7.151  0.00  0.00     0.275 HD
HETATM   31  H           1     -19.522  -7.200  -6.967  0.00  0.00     0.275 HD
HETATM   32  H           1     -19.837  -6.408  -8.447  0.00  0.00     0.275 HD
ENDBRANCH  21  29
ENDBRANCH  18  21
ENDBRANCH   1  17
TORSDOF 12
ENDMDL
MODEL 5
REMARK VINA RESULT:      -7.1      4.774      6.695
REMARK  12 active torsions:
REMARK  status: ('A' for Active; 'I' for Inactive)
REMARK       I    between atoms: N_1  and  C_2 
REMARK       I    between atoms: C_2  and  N_3 
REMARK    1  A    between atoms: N_4  and  C_5 
REMARK    2  A    between atoms: C_5  and  C_6 
REMARK    3  A    between atoms: C_6  and  C_7 
REMARK    4  A    between atoms: C_7  and  C_8 
REMARK    5  A    between atoms: C_8  and  C_9 
REMARK    6  A    between atoms: C_8  and  N_12 
REMARK       I    between atoms: N_12  and  C_13 
REMARK    7  A    between atoms: C_13  and  C_14 
REMARK    8  A    between atoms: C_14  and  C_15 
REMARK    9  A    between atoms: C_14  and  N_21 
REMARK   10  A    between atoms: C_15  and  O_16 
REMARK   11  A    between atoms: O_16  and  P_17 
REMARK   12  A    between atoms: P_17  and  O_18 
ROOT
HETATM    1  C           1     -35.028  -3.677 -11.799  0.00  0.00     0.185 C 
ENDROOT
BRANCH   1   2
HETATM    2  C           1     -34.667  -4.554 -12.990  0.00  0.00     0.038 C 
BRANCH   2   3
HETATM    3  C           1     -34.116  -3.686 -14.113  0.00  0.00     0.023 C 
BRANCH   3   4
HETATM    4  C           1     -34.160  -4.460 -15.423  0.00  0.00     0.138 C 
BRANCH   4   5
HETATM    5  N           1     -32.901  -4.261 -16.154  0.00  0.00    -0.227 N 
HETATM    6  C           1     -32.849  -3.436 -17.113  0.00  0.00     0.665 C 
HETATM    7  N           1     -31.734  -3.260 -17.759  0.00  0.00    -0.235 N 
HETATM    8  N           1     -33.882  -2.782 -17.442  0.00  0.00    -0.235 N 
HETATM    9  H           1     -30.881  -3.799 -17.487  0.00  0.00     0.174 HD
HETATM   10  H           1     -31.691  -2.579 -18.551  0.00  0.00     0.174 HD
HETATM   11  H           1     -34.782  -2.924 -16.920  0.00  0.00     0.174 HD
HETATM   12  H           1     -33.839  -2.098 -18.237  0.00  0.00     0.174 HD
HETATM   13  H           1     -32.044  -4.803 -15.881  0.00  0.00     0.177 HD
ENDBRANCH   4   5
ENDBRANCH   3   4
ENDBRANCH   2   3
ENDBRANCH   1   2
BRANCH   1  14
HETATM   14  C           1     -33.951  -3.785 -10.748  0.00  0.00     0.196 C 
HETATM   15  O           1     -33.759  -4.870 -10.157  0.00  0.00    -0.646 OA
HETATM   16  O           1     -33.249  -2.789 -10.468  0.00  0.00    -0.646 OA
ENDBRANCH   1  14
BRANCH   1  17
HETATM   17  N           1     -35.142  -2.298 -12.233  0.00  0.00    -0.345 N 
HETATM   18  C           1     -36.123  -1.496 -11.714  0.00  0.00     0.251 C 
HETATM   19  O           1     -36.893  -1.937 -10.895  0.00  0.00    -0.271 OA
HETATM   20  H           1     -34.497  -1.929 -12.920  0.00  0.00     0.163 HD
BRANCH  18  21
HETATM   21  C           1     -36.241  -0.061 -12.166  0.00  0.00     0.298 C 
BRANCH  21  22
HETATM   22  C           1     -37.174   0.018 -13.368  0.00  0.00     0.224 C 
BRANCH  22  23
HETATM   23  O           1     -36.745  -0.881 -14.354  0.00  0.00    -0.287 OA
BRANCH  23  24
HETATM   24  P           1     -36.079  -0.224 -15.670  0.00  0.00     0.406 P 
HETATM   25  O           1     -36.524  -0.967 -16.870  0.00  0.00    -0.624 OA
HETATM   26  O           1     -34.604  -0.293 -15.564  0.00  0.00    -0.624 OA
BRANCH  24  27
HETATM   27  O           1     -36.538   1.320 -15.793  0.00  0.00    -0.300 OA
HETATM   28  H           1     -36.733   1.586 -14.911  0.00  0.00     0.223 HD
ENDBRANCH  24  27
ENDBRANCH  23  24
ENDBRANCH  22  23
ENDBRANCH  21  22
BRANCH  21  29
HETATM   29  N           1     -34.886   0.454 -12.552  0.00  0.00    -0.064 N 
HETATM   30  H           1     -34.280   0.512 -11.702  0.00  0.00     0.275 HD
HETATM   31  H           1     -34.451  -0.196 -13.245  0.00  0.00     0.275 HD
HETATM   32  H           1     -34.982   1.404 -12.976  0.00  0.00     0.275 HD
ENDBRANCH  21  29
ENDBRANCH  18  21
ENDBRANCH   1  17
TORSDOF 12
ENDMDL
MODEL 6
REMARK VINA RESULT:      -6.9     11.671     13.012
REMARK  12 active torsions:
REMARK  status: ('A' for Active; 'I' for Inactive)
REMARK       I    between atoms: N_1  and  C_2 
REMARK       I    between atoms: C_2  and  N_3 
REMARK    1  A    between atoms: N_4  and  C_5 
REMARK    2  A    between atoms: C_5  and  C_6 
REMARK    3  A    between atoms: C_6  and  C_7 
REMARK    4  A    between atoms: C_7  and  C_8 
REMARK    5  A    between atoms: C_8  and  C_9 
REMARK    6  A    between atoms: C_8  and  N_12 
REMARK       I    between atoms: N_12  and  C_13 
REMARK    7  A    between atoms: C_13  and  C_14 
REMARK    8  A    between atoms: C_14  and  C_15 
REMARK    9  A    between atoms: C_14  and  N_21 
REMARK   10  A    between atoms: C_15  and  O_16 
REMARK   11  A    between atoms: O_16  and  P_17 
REMARK   12  A    between atoms: P_17  and  O_18 
ROOT
HETATM    1  C           1     -21.232  -4.788  -7.284  0.00  0.00     0.185 C 
ENDROOT
BRANCH   1   2
HETATM    2  C           1     -21.252  -6.221  -6.767  0.00  0.00     0.038 C 
BRANCH   2   3
HETATM    3  C           1     -22.099  -6.294  -5.503  0.00  0.00     0.023 C 
BRANCH   3   4
HETATM    4  C           1     -21.197  -6.205  -4.280  0.00  0.00     0.138 C 
BRANCH   4   5
HETATM    5  N           1     -22.022  -6.134  -3.066  0.00  0.00    -0.227 N 
HETATM    6  C           1     -21.728  -6.841  -2.058  0.00  0.00     0.665 C 
HETATM    7  N           1     -22.457  -6.778  -0.984  0.00  0.00    -0.235 N 
HETATM    8  N           1     -20.722  -7.610  -2.096  0.00  0.00    -0.235 N 
HETATM    9  H           1     -23.288  -6.144  -0.952  0.00  0.00     0.174 HD
HETATM   10  H           1     -22.215  -7.362  -0.152  0.00  0.00     0.174 HD
HETATM   11  H           1     -20.132  -7.661  -2.963  0.00  0.00     0.174 HD
HETATM   12  H           1     -20.478  -8.196  -1.260  0.00  0.00     0.174 HD
HETATM   13  H           1     -22.856  -5.497  -3.034  0.00  0.00     0.177 HD
ENDBRANCH   4   5
ENDBRANCH   3   4
ENDBRANCH   2   3
ENDBRANCH   1   2
BRANCH   1  14
HETATM   14  C           1     -19.804  -4.333  -7.451  0.00  0.00     0.196 C 
HETATM   15  O           1     -18.932  -4.693  -6.630  0.00  0.00    -0.646 OA
HETATM   16  O           1     -19.491  -3.596  -8.411  0.00  0.00    -0.646 OA
ENDBRANCH   1  14
BRANCH   1  17
HETATM   17  N           1     -21.911  -4.729  -8.564  0.00  0.00    -0.345 N 
HETATM   18  C           1     -23.227  -4.359  -8.624  0.00  0.00     0.251 C 
HETATM   19  O           1     -23.824  -4.083  -7.611  0.00  0.00    -0.271 OA
HETATM   20  H           1     -21.411  -4.961  -9.413  0.00  0.00     0.163 HD
BRANCH  18  21
HETATM   21  C           1     -23.933  -4.297  -9.957  0.00  0.00     0.298 C 
BRANCH  21  22
HETATM   22  C           1     -23.144  -3.409 -10.909  0.00  0.00     0.224 C 
BRANCH  22  23
HETATM   23  O           1     -24.025  -2.775 -11.796  0.00  0.00    -0.287 OA
BRANCH  23  24
HETATM   24  P           1     -23.729  -2.996 -13.369  0.00  0.00     0.406 P 
HETATM   25  O           1     -24.124  -1.783 -14.120  0.00  0.00    -0.624 OA
HETATM   26  O           1     -24.507  -4.156 -13.858  0.00  0.00    -0.624 OA
BRANCH  24  27
HETATM   27  O           1     -22.153  -3.274 -13.586  0.00  0.00    -0.300 OA
HETATM   28  H           1     -22.096  -4.185 -13.814  0.00  0.00     0.223 HD
ENDBRANCH  24  27
ENDBRANCH  23  24
ENDBRANCH  22  23
ENDBRANCH  21  22
BRANCH  21  29
HETATM   29  N           1     -25.308  -3.728  -9.767  0.00  0.00    -0.064 N 
HETATM   30  H           1     -25.274  -2.689  -9.876  0.00  0.00     0.275 HD
HETATM   31  H           1     -25.954  -4.131 -10.484  0.00  0.00     0.275 HD
HETATM   32  H           1     -25.655  -3.966  -8.811  0.00  0.00     0.275 HD
ENDBRANCH  21  29
ENDBRANCH  18  21
ENDBRANCH   1  17
TORSDOF 12
ENDMDL
MODEL 7
REMARK VINA RESULT:      -6.6      4.787      7.871
REMARK  12 active torsions:
REMARK  status: ('A' for Active; 'I' for Inactive)
REMARK       I    between atoms: N_1  and  C_2 
REMARK       I    between atoms: C_2  and  N_3 
REMARK    1  A    between atoms: N_4  and  C_5 
REMARK    2  A    between atoms: C_5  and  C_6 
REMARK    3  A    between atoms: C_6  and  C_7 
REMARK    4  A    between atoms: C_7  and  C_8 
REMARK    5  A    between atoms: C_8  and  C_9 
REMARK    6  A    between atoms: C_8  and  N_12 
REMARK       I    between atoms: N_12  and  C_13 
REMARK    7  A    between atoms: C_13  and  C_14 
REMARK    8  A    between atoms: C_14  and  C_15 
REMARK    9  A    between atoms: C_14  and  N_21 
REMARK   10  A    between atoms: C_15  and  O_16 
REMARK   11  A    between atoms: O_16  and  P_17 
REMARK   12  A    between atoms: P_17  and  O_18 
ROOT
HETATM    1  C           1     -30.272  -5.475 -16.775  0.00  0.00     0.185 C 
ENDROOT
BRANCH   1   2
HETATM    2  C           1     -29.502  -6.004 -15.572  0.00  0.00     0.038 C 
BRANCH   2   3
HETATM    3  C           1     -28.441  -6.991 -16.041  0.00  0.00     0.023 C 
BRANCH   3   4
HETATM    4  C           1     -27.059  -6.383 -15.845  0.00  0.00     0.138 C 
BRANCH   4   5
HETATM    5  N           1     -26.186  -6.781 -16.959  0.00  0.00    -0.227 N 
HETATM    6  C           1     -24.984  -7.107 -16.736  0.00  0.00     0.665 C 
HETATM    7  N           1     -24.212  -7.459 -17.721  0.00  0.00    -0.235 N 
HETATM    8  N           1     -24.532  -7.091 -15.553  0.00  0.00    -0.235 N 
HETATM    9  H           1     -24.584  -7.472 -18.698  0.00  0.00     0.174 HD
HETATM   10  H           1     -23.219  -7.729 -17.538  0.00  0.00     0.174 HD
HETATM   11  H           1     -25.156  -6.807 -14.757  0.00  0.00     0.174 HD
HETATM   12  H           1     -23.535  -7.362 -15.368  0.00  0.00     0.174 HD
HETATM   13  H           1     -26.560  -6.794 -17.940  0.00  0.00     0.177 HD
ENDBRANCH   4   5
ENDBRANCH   3   4
ENDBRANCH   2   3
ENDBRANCH   1   2
BRANCH   1  14
HETATM   14  C           1     -30.117  -6.430 -17.932  0.00  0.00     0.196 C 
HETATM   15  O           1     -30.880  -7.415 -18.038  0.00  0.00    -0.646 OA
HETATM   16  O           1     -29.225  -6.237 -18.787  0.00  0.00    -0.646 OA
ENDBRANCH   1  14
BRANCH   1  17
HETATM   17  N           1     -31.677  -5.356 -16.433  0.00  0.00    -0.345 N 
HETATM   18  C           1     -32.375  -4.234 -16.789  0.00  0.00     0.251 C 
HETATM   19  O           1     -31.821  -3.342 -17.388  0.00  0.00    -0.271 OA
HETATM   20  H           1     -32.141  -6.103 -15.931  0.00  0.00     0.163 HD
BRANCH  18  21
HETATM   21  C           1     -33.836  -4.110 -16.434  0.00  0.00     0.298 C 
BRANCH  21  22
HETATM   22  C           1     -34.311  -2.692 -16.723  0.00  0.00     0.224 C 
BRANCH  22  23
HETATM   23  O           1     -35.068  -2.222 -15.641  0.00  0.00    -0.287 OA
BRANCH  23  24
HETATM   24  P           1     -35.788  -0.791 -15.849  0.00  0.00     0.406 P 
HETATM   25  O           1     -34.843   0.292 -15.497  0.00  0.00    -0.624 OA
HETATM   26  O           1     -36.982  -0.709 -14.978  0.00  0.00    -0.624 OA
BRANCH  24  27
HETATM   27  O           1     -36.236  -0.633 -17.393  0.00  0.00    -0.300 OA
HETATM   28  H           1     -37.139  -0.899 -17.412  0.00  0.00     0.223 HD
ENDBRANCH  24  27
ENDBRANCH  23  24
ENDBRANCH  22  23
ENDBRANCH  21  22
BRANCH  21  29
HETATM   29  N           1     -34.022  -4.411 -14.975  0.00  0.00    -0.064 N 
HETATM   30  H           1     -33.783  -3.564 -14.411  0.00  0.00     0.275 HD
HETATM   31  H           1     -35.018  -4.676 -14.800  0.00  0.00     0.275 HD
HETATM   32  H           1     -33.396  -5.200 -14.700  0.00  0.00     0.275 HD
ENDBRANCH  21  29
ENDBRANCH  18  21
ENDBRANCH   1  17
TORSDOF 12
ENDMDL
MODEL 8
REMARK VINA RESULT:      -6.6     12.930     14.547
REMARK  12 active torsions:
REMARK  status: ('A' for Active; 'I' for Inactive)
REMARK       I    between atoms: N_1  and  C_2 
REMARK       I    between atoms: C_2  and  N_3 
REMARK    1  A    between atoms: N_4  and  C_5 
REMARK    2  A    between atoms: C_5  and  C_6 
REMARK    3  A    between atoms: C_6  and  C_7 
REMARK    4  A    between atoms: C_7  and  C_8 
REMARK    5  A    between atoms: C_8  and  C_9 
REMARK    6  A    between atoms: C_8  and  N_12 
REMARK       I    between atoms: N_12  and  C_13 
REMARK    7  A    between atoms: C_13  and  C_14 
REMARK    8  A    between atoms: C_14  and  C_15 
REMARK    9  A    between atoms: C_14  and  N_21 
REMARK   10  A    between atoms: C_15  and  O_16 
REMARK   11  A    between atoms: O_16  and  P_17 
REMARK   12  A    between atoms: P_17  and  O_18 
ROOT
HETATM    1  C           1     -20.862  -6.590  -5.191  0.00  0.00     0.185 C 
ENDROOT
BRANCH   1   2
HETATM    2  C           1     -21.991  -6.676  -4.173  0.00  0.00     0.038 C 
BRANCH   2   3
HETATM    3  C           1     -21.513  -6.128  -2.835  0.00  0.00     0.023 C 
BRANCH   3   4
HETATM    4  C           1     -21.300  -7.278  -1.861  0.00  0.00     0.138 C 
BRANCH   4   5
HETATM    5  N           1     -22.212  -7.130  -0.718  0.00  0.00    -0.227 N 
HETATM    6  C           1     -22.755  -8.151  -0.204  0.00  0.00     0.665 C 
HETATM    7  N           1     -23.562  -8.019   0.806  0.00  0.00    -0.235 N 
HETATM    8  N           1     -22.512  -9.302  -0.675  0.00  0.00    -0.235 N 
HETATM    9  H           1     -23.763  -7.070   1.195  0.00  0.00     0.174 HD
HETATM   10  H           1     -24.011  -8.863   1.231  0.00  0.00     0.174 HD
HETATM   11  H           1     -21.860  -9.408  -1.491  0.00  0.00     0.174 HD
HETATM   12  H           1     -22.962 -10.149  -0.248  0.00  0.00     0.174 HD
HETATM   13  H           1     -22.414  -6.176  -0.328  0.00  0.00     0.177 HD
ENDBRANCH   4   5
ENDBRANCH   3   4
ENDBRANCH   2   3
ENDBRANCH   1   2
BRANCH   1  14
HETATM   14  C           1     -20.426  -7.980  -5.581  0.00  0.00     0.196 C 
HETATM   15  O           1     -21.258  -8.914  -5.600  0.00  0.00    -0.646 OA
HETATM   16  O           1     -19.234  -8.200  -5.885  0.00  0.00    -0.646 OA
ENDBRANCH   1  14
BRANCH   1  17
HETATM   17  N           1     -21.328  -5.883  -6.369  0.00  0.00    -0.345 N 
HETATM   18  C           1     -20.577  -4.868  -6.899  0.00  0.00     0.251 C 
HETATM   19  O           1     -19.527  -4.561  -6.386  0.00  0.00    -0.271 OA
HETATM   20  H           1     -22.207  -6.139  -6.798  0.00  0.00     0.163 HD
BRANCH  18  21
HETATM   21  C           1     -21.062  -4.132  -8.124  0.00  0.00     0.298 C 
BRANCH  21  22
HETATM   22  C           1     -22.555  -4.374  -8.305  0.00  0.00     0.224 C 
BRANCH  22  23
HETATM   23  O           1     -23.120  -3.301  -9.009  0.00  0.00    -0.287 OA
BRANCH  23  24
HETATM   24  P           1     -24.155  -3.694 -10.186  0.00  0.00     0.406 P 
HETATM   25  O           1     -24.052  -5.143 -10.469  0.00  0.00    -0.624 OA
HETATM   26  O           1     -23.825  -2.926 -11.407  0.00  0.00    -0.624 OA
BRANCH  24  27
HETATM   27  O           1     -25.660  -3.343  -9.719  0.00  0.00    -0.300 OA
HETATM   28  H           1     -25.733  -2.409  -9.814  0.00  0.00     0.223 HD
ENDBRANCH  24  27
ENDBRANCH  23  24
ENDBRANCH  22  23
ENDBRANCH  21  22
BRANCH  21  29
HETATM   29  N           1     -20.325  -4.633  -9.331  0.00  0.00    -0.064 N 
HETATM   30  H           1     -19.410  -4.135  -9.413  0.00  0.00     0.275 HD
HETATM   31  H           1     -20.154  -5.660  -9.233  0.00  0.00     0.275 HD
HETATM   32  H           1     -20.896  -4.455 -10.187  0.00  0.00     0.275 HD
ENDBRANCH  21  29
ENDBRANCH  18  21
ENDBRANCH   1  17
TORSDOF 12
ENDMDL
MODEL 9
REMARK VINA RESULT:      -6.5     12.012     13.526
REMARK  12 active torsions:
REMARK  status: ('A' for Active; 'I' for Inactive)
REMARK       I    between atoms: N_1  and  C_2 
REMARK       I    between atoms: C_2  and  N_3 
REMARK    1  A    between atoms: N_4  and  C_5 
REMARK    2  A    between atoms: C_5  and  C_6 
REMARK    3  A    between atoms: C_6  and  C_7 
REMARK    4  A    between atoms: C_7  and  C_8 
REMARK    5  A    between atoms: C_8  and  C_9 
REMARK    6  A    between atoms: C_8  and  N_12 
REMARK       I    between atoms: N_12  and  C_13 
REMARK    7  A    between atoms: C_13  and  C_14 
REMARK    8  A    between atoms: C_14  and  C_15 
REMARK    9  A    between atoms: C_14  and  N_21 
REMARK   10  A    between atoms: C_15  and  O_16 
REMARK   11  A    between atoms: O_16  and  P_17 
REMARK   12  A    between atoms: P_17  and  O_18 
ROOT
HETATM    1  C           1     -21.517  -5.354  -6.105  0.00  0.00     0.185 C 
ENDROOT
BRANCH   1   2
HETATM    2  C           1     -22.087  -6.333  -5.087  0.00  0.00     0.038 C 
BRANCH   2   3
HETATM    3  C           1     -21.270  -6.266  -3.803  0.00  0.00     0.023 C 
BRANCH   3   4
HETATM    4  C           1     -21.104  -7.668  -3.233  0.00  0.00     0.138 C 
BRANCH   4   5
HETATM    5  N           1     -21.138  -8.649  -4.327  0.00  0.00    -0.227 N 
HETATM    6  C           1     -20.067  -9.197  -4.720  0.00  0.00     0.665 C 
HETATM    7  N           1     -20.098 -10.065  -5.688  0.00  0.00    -0.235 N 
HETATM    8  N           1     -18.965  -8.900  -4.172  0.00  0.00    -0.235 N 
HETATM    9  H           1     -21.007 -10.311  -6.141  0.00  0.00     0.174 HD
HETATM   10  H           1     -19.213 -10.517  -6.013  0.00  0.00     0.174 HD
HETATM   11  H           1     -18.940  -8.199  -3.390  0.00  0.00     0.174 HD
HETATM   12  H           1     -18.077  -9.354  -4.498  0.00  0.00     0.174 HD
HETATM   13  H           1     -22.051  -8.896  -4.782  0.00  0.00     0.177 HD
ENDBRANCH   4   5
ENDBRANCH   3   4
ENDBRANCH   2   3
ENDBRANCH   1   2
BRANCH   1  14
HETATM   14  C           1     -20.130  -5.794  -6.505  0.00  0.00     0.196 C 
HETATM   15  O           1     -19.905  -6.997  -6.761  0.00  0.00    -0.646 OA
HETATM   16  O           1     -19.206  -4.955  -6.583  0.00  0.00    -0.646 OA
ENDBRANCH   1  14
BRANCH   1  17
HETATM   17  N           1     -22.371  -5.325  -7.277  0.00  0.00    -0.345 N 
HETATM   18  C           1     -22.460  -4.185  -8.030  0.00  0.00     0.251 C 
HETATM   19  O           1     -21.828  -3.203  -7.718  0.00  0.00    -0.271 OA
HETATM   20  H           1     -22.901  -6.146  -7.537  0.00  0.00     0.163 HD
BRANCH  18  21
HETATM   21  C           1     -23.349  -4.154  -9.249  0.00  0.00     0.298 C 
BRANCH  21  22
HETATM   22  C           1     -22.566  -3.605 -10.435  0.00  0.00     0.224 C 
BRANCH  22  23
HETATM   23  O           1     -22.954  -4.276 -11.603  0.00  0.00    -0.287 OA
BRANCH  23  24
HETATM   24  P           1     -23.850  -3.427 -12.644  0.00  0.00     0.406 P 
HETATM   25  O           1     -23.104  -2.221 -13.067  0.00  0.00    -0.624 OA
HETATM   26  O           1     -25.114  -3.021 -11.989  0.00  0.00    -0.624 OA
BRANCH  24  27
HETATM   27  O           1     -24.181  -4.335 -13.937  0.00  0.00    -0.300 OA
HETATM   28  H           1     -24.850  -4.932 -13.650  0.00  0.00     0.223 HD
ENDBRANCH  24  27
ENDBRANCH  23  24
ENDBRANCH  22  23
ENDBRANCH  21  22
BRANCH  21  29
HETATM   29  N           1     -24.533  -3.273  -8.981  0.00  0.00    -0.064 N 
HETATM   30  H           1     -24.381  -2.745  -8.093  0.00  0.00     0.275 HD
HETATM   31  H           1     -24.650  -2.598  -9.771  0.00  0.00     0.275 HD
HETATM   32  H           1     -25.392  -3.861  -8.895  0.00  0.00     0.275 HD
ENDBRANCH  21  29
ENDBRANCH  18  21
ENDBRANCH   1  17
TORSDOF 12
ENDMDL
