MODEL 1
REMARK VINA RESULT:      -8.1      0.000      0.000
REMARK  11 active torsions:
REMARK  status: ('A' for Active; 'I' for Inactive)
REMARK    1  A    between atoms: C_2  and  C_4 
REMARK    2  A    between atoms: C_4  and  C_5 
REMARK    3  A    between atoms: C_5  and  C_28 
REMARK    4  A    between atoms: C_5  and  N_25 
REMARK    5  A    between atoms: N_10  and  C_23 
REMARK    6  A    between atoms: O_15  and  P_16 
REMARK    7  A    between atoms: P_16  and  O_17 
REMARK    8  A    between atoms: O_17  and  C_18 
REMARK    9  A    between atoms: C_21  and  C_22 
REMARK   10  A    between atoms: C_22  and  C_23 
REMARK   11  A    between atoms: C_23  and  C_24 
REMARK       I    between atoms: C_24  and  N_25 
ROOT
HETATM    1  C           1     -20.951  -4.956  -6.339  0.00  0.00     0.260 C 
ENDROOT
BRANCH   1   2
HETATM    2  N           1     -19.636  -4.562  -5.732  0.00  0.00    -0.067 N 
HETATM    3  H           1     -19.384  -3.597  -6.045  0.00  0.00     0.275 HD
HETATM    4  H           1     -19.714  -4.582  -4.691  0.00  0.00     0.275 HD
HETATM    5  H           1     -18.896  -5.233  -6.040  0.00  0.00     0.275 HD
ENDBRANCH   1   2
BRANCH   1   6
HETATM    6  C           1     -20.706  -5.660  -7.666  0.00  0.00     0.079 C 
BRANCH   6   7
HETATM    7  C           1     -21.272  -4.837  -8.781  0.00  0.00    -0.056 A 
HETATM    8  C           1     -20.481  -4.522  -9.886  0.00  0.00     0.010 A 
HETATM    9  C           1     -21.009  -3.755 -10.924  0.00  0.00     0.038 A 
HETATM   10  C           1     -22.327  -3.304 -10.859  0.00  0.00     0.081 A 
HETATM   11  C           1     -23.117  -3.619  -9.754  0.00  0.00     0.038 A 
HETATM   12  C           1     -22.590  -4.386  -8.715  0.00  0.00     0.010 A 
BRANCH  10  13
HETATM   13  O           1     -22.839  -2.559 -11.868  0.00  0.00    -0.247 OA
BRANCH  13  14
HETATM   14  P           1     -23.879  -3.266 -12.881  0.00  0.00     0.411 P 
HETATM   15  O           1     -23.614  -2.804 -14.262  0.00  0.00    -0.624 OA
HETATM   16  O           1     -25.263  -2.908 -12.496  0.00  0.00    -0.624 OA
BRANCH  14  17
HETATM   17  O           1     -23.698  -4.869 -12.805  0.00  0.00    -0.300 OA
HETATM   18  H           1     -24.492  -5.222 -13.172  0.00  0.00     0.223 HD
ENDBRANCH  14  17
ENDBRANCH  13  14
ENDBRANCH  10  13
ENDBRANCH   6   7
ENDBRANCH   1   6
BRANCH   1  19
HETATM   19  C           1     -21.677  -5.888  -5.400  0.00  0.00     0.130 C 
HETATM   20  O           1     -22.883  -5.936  -5.410  0.00  0.00    -0.397 OA
HETATM   21  N           1     -20.967  -6.680  -4.537  0.00  0.00    -0.359 N 
HETATM   22  H           1     -19.956  -6.640  -4.528  0.00  0.00     0.162 HD
BRANCH  21  23
HETATM   23  C           1     -21.665  -7.576  -3.635  0.00  0.00     0.184 C 
BRANCH  23  24
HETATM   24  C           1     -20.937  -8.912  -3.580  0.00  0.00     0.040 C 
BRANCH  24  25
HETATM   25  C           1     -19.494  -8.723  -4.028  0.00  0.00    -0.018 C 
HETATM   26  C           1     -19.245  -9.527  -5.298  0.00  0.00     0.289 C 
HETATM   27  C           1     -18.555  -9.208  -2.931  0.00  0.00     0.009 C 
ENDBRANCH  24  25
ENDBRANCH  23  24
BRANCH  23  28
HETATM   28  C           1     -21.705  -6.967  -2.255  0.00  0.00     0.196 C 
HETATM   29  O           1     -21.193  -7.575  -1.290  0.00  0.00    -0.646 OA
HETATM   30  O           1     -22.248  -5.856  -2.077  0.00  0.00    -0.646 OA
ENDBRANCH  23  28
ENDBRANCH  21  23
ENDBRANCH   1  19
TORSDOF 11
ENDMDL
MODEL 2
REMARK VINA RESULT:      -7.8      1.794      2.819
REMARK  11 active torsions:
REMARK  status: ('A' for Active; 'I' for Inactive)
REMARK    1  A    between atoms: C_2  and  C_4 
REMARK    2  A    between atoms: C_4  and  C_5 
REMARK    3  A    between atoms: C_5  and  C_28 
REMARK    4  A    between atoms: C_5  and  N_25 
REMARK    5  A    between atoms: N_10  and  C_23 
REMARK    6  A    between atoms: O_15  and  P_16 
REMARK    7  A    between atoms: P_16  and  O_17 
REMARK    8  A    between atoms: O_17  and  C_18 
REMARK    9  A    between atoms: C_21  and  C_22 
REMARK   10  A    between atoms: C_22  and  C_23 
REMARK   11  A    between atoms: C_23  and  C_24 
REMARK       I    between atoms: C_24  and  N_25 
ROOT
HETATM    1  C           1     -21.946  -4.668  -7.049  0.00  0.00     0.260 C 
ENDROOT
BRANCH   1   2
HETATM    2  N           1     -21.427  -3.269  -7.202  0.00  0.00    -0.067 N 
HETATM    3  H           1     -21.374  -2.813  -6.262  0.00  0.00     0.275 HD
HETATM    4  H           1     -20.475  -3.296  -7.629  0.00  0.00     0.275 HD
HETATM    5  H           1     -22.072  -2.724  -7.817  0.00  0.00     0.275 HD
ENDBRANCH   1   2
BRANCH   1   6
HETATM    6  C           1     -21.750  -5.427  -8.355  0.00  0.00     0.079 C 
BRANCH   6   7
HETATM    7  C           1     -21.991  -4.505  -9.510  0.00  0.00    -0.056 A 
HETATM    8  C           1     -23.276  -4.026  -9.764  0.00  0.00     0.010 A 
HETATM    9  C           1     -23.499  -3.167 -10.840  0.00  0.00     0.038 A 
HETATM   10  C           1     -22.438  -2.786 -11.661  0.00  0.00     0.081 A 
HETATM   11  C           1     -21.154  -3.266 -11.407  0.00  0.00     0.038 A 
HETATM   12  C           1     -20.929  -4.125 -10.331  0.00  0.00     0.010 A 
BRANCH  10  13
HETATM   13  O           1     -22.656  -1.952 -12.707  0.00  0.00    -0.247 OA
BRANCH  13  14
HETATM   14  P           1     -23.548  -2.497 -13.938  0.00  0.00     0.411 P 
HETATM   15  O           1     -24.184  -3.777 -13.558  0.00  0.00    -0.624 OA
HETATM   16  O           1     -22.681  -2.705 -15.119  0.00  0.00    -0.624 OA
BRANCH  14  17
HETATM   17  O           1     -24.690  -1.412 -14.295  0.00  0.00    -0.300 OA
HETATM   18  H           1     -24.219  -0.642 -14.564  0.00  0.00     0.223 HD
ENDBRANCH  14  17
ENDBRANCH  13  14
ENDBRANCH  10  13
ENDBRANCH   6   7
ENDBRANCH   1   6
BRANCH   1  19
HETATM   19  C           1     -21.191  -5.366  -5.944  0.00  0.00     0.130 C 
HETATM   20  O           1     -20.303  -4.790  -5.363  0.00  0.00    -0.397 OA
HETATM   21  N           1     -21.514  -6.652  -5.601  0.00  0.00    -0.359 N 
HETATM   22  H           1     -22.258  -7.134  -6.088  0.00  0.00     0.162 HD
BRANCH  21  23
HETATM   23  C           1     -20.788  -7.322  -4.539  0.00  0.00     0.184 C 
BRANCH  23  24
HETATM   24  C           1     -21.744  -7.653  -3.400  0.00  0.00     0.040 C 
BRANCH  24  25
HETATM   25  C           1     -21.133  -7.206  -2.079  0.00  0.00    -0.018 C 
HETATM   26  C           1     -20.646  -8.425  -1.304  0.00  0.00     0.289 C 
HETATM   27  C           1     -22.185  -6.472  -1.257  0.00  0.00     0.009 C 
ENDBRANCH  24  25
ENDBRANCH  23  24
BRANCH  23  28
HETATM   28  C           1     -20.181  -8.596  -5.072  0.00  0.00     0.196 C 
HETATM   29  O           1     -20.712  -9.697  -4.813  0.00  0.00    -0.646 OA
HETATM   30  O           1     -19.149  -8.550  -5.774  0.00  0.00    -0.646 OA
ENDBRANCH  23  28
ENDBRANCH  21  23
ENDBRANCH   1  19
TORSDOF 11
ENDMDL
MODEL 3
REMARK VINA RESULT:      -7.7      3.415      9.003
REMARK  11 active torsions:
REMARK  status: ('A' for Active; 'I' for Inactive)
REMARK    1  A    between atoms: C_2  and  C_4 
REMARK    2  A    between atoms: C_4  and  C_5 
REMARK    3  A    between atoms: C_5  and  C_28 
REMARK    4  A    between atoms: C_5  and  N_25 
REMARK    5  A    between atoms: N_10  and  C_23 
REMARK    6  A    between atoms: O_15  and  P_16 
REMARK    7  A    between atoms: P_16  and  O_17 
REMARK    8  A    between atoms: O_17  and  C_18 
REMARK    9  A    between atoms: C_21  and  C_22 
REMARK   10  A    between atoms: C_22  and  C_23 
REMARK   11  A    between atoms: C_23  and  C_24 
REMARK       I    between atoms: C_24  and  N_25 
ROOT
HETATM    1  C           1     -22.437  -4.938  -6.405  0.00  0.00     0.260 C 
ENDROOT
BRANCH   1   2
HETATM    2  N           1     -23.873  -5.263  -6.118  0.00  0.00    -0.067 N 
HETATM    3  H           1     -24.456  -4.405  -6.246  0.00  0.00     0.275 HD
HETATM    4  H           1     -24.199  -6.007  -6.775  0.00  0.00     0.275 HD
HETATM    5  H           1     -23.963  -5.602  -5.133  0.00  0.00     0.275 HD
ENDBRANCH   1   2
BRANCH   1   6
HETATM    6  C           1     -21.636  -6.229  -6.511  0.00  0.00     0.079 C 
BRANCH   6   7
HETATM    7  C           1     -21.428  -6.802  -5.144  0.00  0.00    -0.056 A 
HETATM    8  C           1     -21.174  -5.957  -4.063  0.00  0.00     0.010 A 
HETATM    9  C           1     -20.981  -6.491  -2.790  0.00  0.00     0.038 A 
HETATM   10  C           1     -21.043  -7.871  -2.595  0.00  0.00     0.081 A 
HETATM   11  C           1     -21.297  -8.716  -3.675  0.00  0.00     0.038 A 
HETATM   12  C           1     -21.491  -8.182  -4.950  0.00  0.00     0.010 A 
BRANCH  10  13
HETATM   13  O           1     -20.855  -8.390  -1.358  0.00  0.00    -0.247 OA
BRANCH  13  14
HETATM   14  P           1     -22.096  -8.359  -0.326  0.00  0.00     0.411 P 
HETATM   15  O           1     -21.584  -8.383   1.062  0.00  0.00    -0.624 OA
HETATM   16  O           1     -22.959  -9.539  -0.557  0.00  0.00    -0.624 OA
BRANCH  14  17
HETATM   17  O           1     -22.956  -7.012  -0.560  0.00  0.00    -0.300 OA
HETATM   18  H           1     -23.766  -7.303  -0.945  0.00  0.00     0.223 HD
ENDBRANCH  14  17
ENDBRANCH  13  14
ENDBRANCH  10  13
ENDBRANCH   6   7
ENDBRANCH   1   6
BRANCH   1  19
HETATM   19  C           1     -22.345  -4.181  -7.708  0.00  0.00     0.130 C 
HETATM   20  O           1     -21.504  -3.327  -7.851  0.00  0.00    -0.397 OA
HETATM   21  N           1     -23.217  -4.463  -8.726  0.00  0.00    -0.359 N 
HETATM   22  H           1     -23.922  -5.178  -8.605  0.00  0.00     0.162 HD
BRANCH  21  23
HETATM   23  C           1     -23.128  -3.735  -9.977  0.00  0.00     0.184 C 
BRANCH  23  24
HETATM   24  C           1     -22.593  -4.656 -11.065  0.00  0.00     0.040 C 
BRANCH  24  25
HETATM   25  C           1     -21.231  -4.157 -11.529  0.00  0.00    -0.018 C 
HETATM   26  C           1     -20.142  -4.759 -10.649  0.00  0.00     0.289 C 
HETATM   27  C           1     -21.185  -2.639 -11.424  0.00  0.00     0.009 C 
ENDBRANCH  24  25
ENDBRANCH  23  24
BRANCH  23  28
HETATM   28  C           1     -24.499  -3.240 -10.367  0.00  0.00     0.196 C 
HETATM   29  O           1     -25.302  -2.865  -9.486  0.00  0.00    -0.646 OA
HETATM   30  O           1     -24.832  -3.205 -11.571  0.00  0.00    -0.646 OA
ENDBRANCH  23  28
ENDBRANCH  21  23
ENDBRANCH   1  19
TORSDOF 11
ENDMDL
MODEL 4
REMARK VINA RESULT:      -7.6      1.912      2.748
REMARK  11 active torsions:
REMARK  status: ('A' for Active; 'I' for Inactive)
REMARK    1  A    between atoms: C_2  and  C_4 
REMARK    2  A    between atoms: C_4  and  C_5 
REMARK    3  A    between atoms: C_5  and  C_28 
REMARK    4  A    between atoms: C_5  and  N_25 
REMARK    5  A    between atoms: N_10  and  C_23 
REMARK    6  A    between atoms: O_15  and  P_16 
REMARK    7  A    between atoms: P_16  and  O_17 
REMARK    8  A    between atoms: O_17  and  C_18 
REMARK    9  A    between atoms: C_21  and  C_22 
REMARK   10  A    between atoms: C_22  and  C_23 
REMARK   11  A    between atoms: C_23  and  C_24 
REMARK       I    between atoms: C_24  and  N_25 
ROOT
HETATM    1  C           1     -21.463  -6.436  -6.186  0.00  0.00     0.260 C 
ENDROOT
BRANCH   1   2
HETATM    2  N           1     -22.644  -5.942  -5.403  0.00  0.00    -0.067 N 
HETATM    3  H           1     -23.048  -5.102  -5.877  0.00  0.00     0.275 HD
HETATM    4  H           1     -23.367  -6.694  -5.354  0.00  0.00     0.275 HD
HETATM    5  H           1     -22.339  -5.685  -4.438  0.00  0.00     0.275 HD
ENDBRANCH   1   2
BRANCH   1   6
HETATM    6  C           1     -20.582  -5.256  -6.573  0.00  0.00     0.079 C 
BRANCH   6   7
HETATM    7  C           1     -21.057  -4.683  -7.872  0.00  0.00    -0.056 A 
HETATM    8  C           1     -22.297  -4.048  -7.942  0.00  0.00     0.010 A 
HETATM    9  C           1     -22.739  -3.513  -9.152  0.00  0.00     0.038 A 
HETATM   10  C           1     -21.942  -3.612 -10.292  0.00  0.00     0.081 A 
HETATM   11  C           1     -20.702  -4.247 -10.221  0.00  0.00     0.038 A 
HETATM   12  C           1     -20.259  -4.782  -9.011  0.00  0.00     0.010 A 
BRANCH  10  13
HETATM   13  O           1     -22.371  -3.093 -11.467  0.00  0.00    -0.247 OA
BRANCH  13  14
HETATM   14  P           1     -23.724  -3.694 -12.112  0.00  0.00     0.411 P 
HETATM   15  O           1     -23.832  -3.262 -13.523  0.00  0.00    -0.624 OA
HETATM   16  O           1     -24.894  -3.200 -11.352  0.00  0.00    -0.624 OA
BRANCH  14  17
HETATM   17  O           1     -23.682  -5.307 -12.044  0.00  0.00    -0.300 OA
HETATM   18  H           1     -24.426  -5.549 -11.520  0.00  0.00     0.223 HD
ENDBRANCH  14  17
ENDBRANCH  13  14
ENDBRANCH  10  13
ENDBRANCH   6   7
ENDBRANCH   1   6
BRANCH   1  19
HETATM   19  C           1     -20.668  -7.400  -5.339  0.00  0.00     0.130 C 
HETATM   20  O           1     -19.644  -7.877  -5.766  0.00  0.00    -0.397 OA
HETATM   21  N           1     -21.110  -7.734  -4.086  0.00  0.00    -0.359 N 
HETATM   22  H           1     -21.967  -7.335  -3.728  0.00  0.00     0.162 HD
BRANCH  21  23
HETATM   23  C           1     -20.346  -8.661  -3.273  0.00  0.00     0.184 C 
BRANCH  23  24
HETATM   24  C           1     -20.378  -8.209  -1.819  0.00  0.00     0.040 C 
BRANCH  24  25
HETATM   25  C           1     -21.820  -8.155  -1.335  0.00  0.00    -0.018 C 
HETATM   26  C           1     -22.230  -6.704  -1.116  0.00  0.00     0.289 C 
HETATM   27  C           1     -21.944  -8.920  -0.024  0.00  0.00     0.009 C 
ENDBRANCH  24  25
ENDBRANCH  23  24
BRANCH  23  28
HETATM   28  C           1     -20.949 -10.040  -3.383  0.00  0.00     0.196 C 
HETATM   29  O           1     -20.388 -11.013  -2.835  0.00  0.00    -0.646 OA
HETATM   30  O           1     -22.010 -10.209  -4.022  0.00  0.00    -0.646 OA
ENDBRANCH  23  28
ENDBRANCH  21  23
ENDBRANCH   1  19
TORSDOF 11
ENDMDL
MODEL 5
REMARK VINA RESULT:      -7.4      1.779      2.591
REMARK  11 active torsions:
REMARK  status: ('A' for Active; 'I' for Inactive)
REMARK    1  A    between atoms: C_2  and  C_4 
REMARK    2  A    between atoms: C_4  and  C_5 
REMARK    3  A    between atoms: C_5  and  C_28 
REMARK    4  A    between atoms: C_5  and  N_25 
REMARK    5  A    between atoms: N_10  and  C_23 
REMARK    6  A    between atoms: O_15  and  P_16 
REMARK    7  A    between atoms: P_16  and  O_17 
REMARK    8  A    between atoms: O_17  and  C_18 
REMARK    9  A    between atoms: C_21  and  C_22 
REMARK   10  A    between atoms: C_22  and  C_23 
REMARK   11  A    between atoms: C_23  and  C_24 
REMARK       I    between atoms: C_24  and  N_25 
ROOT
HETATM    1  C           1     -21.141  -5.262  -6.502  0.00  0.00     0.260 C 
ENDROOT
BRANCH   1   2
HETATM    2  N           1     -20.413  -4.081  -5.932  0.00  0.00    -0.067 N 
HETATM    3  H           1     -20.716  -3.212  -6.429  0.00  0.00     0.275 HD
HETATM    4  H           1     -20.633  -3.995  -4.915  0.00  0.00     0.275 HD
HETATM    5  H           1     -19.384  -4.213  -6.057  0.00  0.00     0.275 HD
ENDBRANCH   1   2
BRANCH   1   6
HETATM    6  C           1     -20.533  -5.632  -7.848  0.00  0.00     0.079 C 
BRANCH   6   7
HETATM    7  C           1     -21.158  -4.802  -8.925  0.00  0.00    -0.056 A 
HETATM    8  C           1     -22.484  -4.386  -8.805  0.00  0.00     0.010 A 
HETATM    9  C           1     -23.066  -3.613  -9.808  0.00  0.00     0.038 A 
HETATM   10  C           1     -22.323  -3.254 -10.933  0.00  0.00     0.081 A 
HETATM   11  C           1     -20.997  -3.670 -11.053  0.00  0.00     0.038 A 
HETATM   12  C           1     -20.414  -4.444 -10.049  0.00  0.00     0.010 A 
BRANCH  10  13
HETATM   13  O           1     -22.889  -2.503 -11.908  0.00  0.00    -0.247 OA
BRANCH  13  14
HETATM   14  P           1     -23.908  -3.228 -12.929  0.00  0.00     0.411 P 
HETATM   15  O           1     -23.642  -2.761 -14.307  0.00  0.00    -0.624 OA
HETATM   16  O           1     -25.301  -2.896 -12.552  0.00  0.00    -0.624 OA
BRANCH  14  17
HETATM   17  O           1     -23.698  -4.828 -12.852  0.00  0.00    -0.300 OA
HETATM   18  H           1     -24.499  -5.195 -13.189  0.00  0.00     0.223 HD
ENDBRANCH  14  17
ENDBRANCH  13  14
ENDBRANCH  10  13
ENDBRANCH   6   7
ENDBRANCH   1   6
BRANCH   1  19
HETATM   19  C           1     -21.019  -6.432  -5.556  0.00  0.00     0.130 C 
HETATM   20  O           1     -21.628  -6.431  -4.514  0.00  0.00    -0.397 OA
HETATM   21  N           1     -20.217  -7.494  -5.881  0.00  0.00    -0.359 N 
HETATM   22  H           1     -19.707  -7.494  -6.754  0.00  0.00     0.162 HD
BRANCH  21  23
HETATM   23  C           1     -20.101  -8.617  -4.971  0.00  0.00     0.184 C 
BRANCH  23  24
HETATM   24  C           1     -21.201  -9.628  -5.267  0.00  0.00     0.040 C 
BRANCH  24  25
HETATM   25  C           1     -21.840 -10.079  -3.960  0.00  0.00    -0.018 C 
HETATM   26  C           1     -21.344  -9.199  -2.819  0.00  0.00     0.289 C 
HETATM   27  C           1     -21.461 -11.528  -3.684  0.00  0.00     0.009 C 
ENDBRANCH  24  25
ENDBRANCH  23  24
BRANCH  23  28
HETATM   28  C           1     -18.754  -9.273  -5.154  0.00  0.00     0.196 C 
HETATM   29  O           1     -18.221  -9.301  -6.285  0.00  0.00    -0.646 OA
HETATM   30  O           1     -18.171  -9.787  -4.176  0.00  0.00    -0.646 OA
ENDBRANCH  23  28
ENDBRANCH  21  23
ENDBRANCH   1  19
TORSDOF 11
ENDMDL
MODEL 6
REMARK VINA RESULT:      -7.4      1.948      2.584
REMARK  11 active torsions:
REMARK  status: ('A' for Active; 'I' for Inactive)
REMARK    1  A    between atoms: C_2  and  C_4 
REMARK    2  A    between atoms: C_4  and  C_5 
REMARK    3  A    between atoms: C_5  and  C_28 
REMARK    4  A    between atoms: C_5  and  N_25 
REMARK    5  A    between atoms: N_10  and  C_23 
REMARK    6  A    between atoms: O_15  and  P_16 
REMARK    7  A    between atoms: P_16  and  O_17 
REMARK    8  A    between atoms: O_17  and  C_18 
REMARK    9  A    between atoms: C_21  and  C_22 
REMARK   10  A    between atoms: C_22  and  C_23 
REMARK   11  A    between atoms: C_23  and  C_24 
REMARK       I    between atoms: C_24  and  N_25 
ROOT
HETATM    1  C           1     -21.501  -6.595  -5.474  0.00  0.00     0.260 C 
ENDROOT
BRANCH   1   2
HETATM    2  N           1     -22.050  -5.957  -4.232  0.00  0.00    -0.067 N 
HETATM    3  H           1     -22.024  -4.916  -4.335  0.00  0.00     0.275 HD
HETATM    4  H           1     -23.037  -6.267  -4.090  0.00  0.00     0.275 HD
HETATM    5  H           1     -21.472  -6.241  -3.410  0.00  0.00     0.275 HD
ENDBRANCH   1   2
BRANCH   1   6
HETATM    6  C           1     -20.421  -5.701  -6.068  0.00  0.00     0.079 C 
BRANCH   6   7
HETATM    7  C           1     -20.936  -5.054  -7.316  0.00  0.00    -0.056 A 
HETATM    8  C           1     -20.145  -5.021  -8.463  0.00  0.00     0.010 A 
HETATM    9  C           1     -20.626  -4.419  -9.625  0.00  0.00     0.038 A 
HETATM   10  C           1     -21.900  -3.850  -9.641  0.00  0.00     0.081 A 
HETATM   11  C           1     -22.691  -3.883  -8.493  0.00  0.00     0.038 A 
HETATM   12  C           1     -22.210  -4.486  -7.330  0.00  0.00     0.010 A 
BRANCH  10  13
HETATM   13  O           1     -22.367  -3.265 -10.770  0.00  0.00    -0.247 OA
BRANCH  13  14
HETATM   14  P           1     -23.655  -3.923 -11.488  0.00  0.00     0.411 P 
HETATM   15  O           1     -24.869  -3.167 -11.110  0.00  0.00    -0.624 OA
HETATM   16  O           1     -23.794  -5.332 -11.056  0.00  0.00    -0.624 OA
BRANCH  14  17
HETATM   17  O           1     -23.464  -3.869 -13.091  0.00  0.00    -0.300 OA
HETATM   18  H           1     -23.912  -4.632 -13.415  0.00  0.00     0.223 HD
ENDBRANCH  14  17
ENDBRANCH  13  14
ENDBRANCH  10  13
ENDBRANCH   6   7
ENDBRANCH   1   6
BRANCH   1  19
HETATM   19  C           1     -20.908  -7.939  -5.127  0.00  0.00     0.130 C 
HETATM   20  O           1     -20.865  -8.812  -5.959  0.00  0.00    -0.397 OA
HETATM   21  N           1     -20.418  -8.166  -3.868  0.00  0.00    -0.359 N 
HETATM   22  H           1     -20.455  -7.434  -3.171  0.00  0.00     0.162 HD
BRANCH  21  23
HETATM   23  C           1     -19.849  -9.457  -3.536  0.00  0.00     0.184 C 
BRANCH  23  24
HETATM   24  C           1     -18.554  -9.258  -2.760  0.00  0.00     0.040 C 
BRANCH  24  25
HETATM   25  C           1     -17.432 -10.035  -3.435  0.00  0.00    -0.018 C 
HETATM   26  C           1     -16.085  -9.500  -2.962  0.00  0.00     0.289 C 
HETATM   27  C           1     -17.539  -9.872  -4.945  0.00  0.00     0.009 C 
ENDBRANCH  24  25
ENDBRANCH  23  24
BRANCH  23  28
HETATM   28  C           1     -20.827 -10.234  -2.689  0.00  0.00     0.196 C 
HETATM   29  O           1     -21.870 -10.693  -3.203  0.00  0.00    -0.646 OA
HETATM   30  O           1     -20.595 -10.419  -1.476  0.00  0.00    -0.646 OA
ENDBRANCH  23  28
ENDBRANCH  21  23
ENDBRANCH   1  19
TORSDOF 11
ENDMDL
MODEL 7
REMARK VINA RESULT:      -7.0      1.688      2.398
REMARK  11 active torsions:
REMARK  status: ('A' for Active; 'I' for Inactive)
REMARK    1  A    between atoms: C_2  and  C_4 
REMARK    2  A    between atoms: C_4  and  C_5 
REMARK    3  A    between atoms: C_5  and  C_28 
REMARK    4  A    between atoms: C_5  and  N_25 
REMARK    5  A    between atoms: N_10  and  C_23 
REMARK    6  A    between atoms: O_15  and  P_16 
REMARK    7  A    between atoms: P_16  and  O_17 
REMARK    8  A    between atoms: O_17  and  C_18 
REMARK    9  A    between atoms: C_21  and  C_22 
REMARK   10  A    between atoms: C_22  and  C_23 
REMARK   11  A    between atoms: C_23  and  C_24 
REMARK       I    between atoms: C_24  and  N_25 
ROOT
HETATM    1  C           1     -20.225  -6.441  -5.652  0.00  0.00     0.260 C 
ENDROOT
BRANCH   1   2
HETATM    2  N           1     -20.536  -7.004  -7.008  0.00  0.00    -0.067 N 
HETATM    3  H           1     -20.602  -8.046  -6.945  0.00  0.00     0.275 HD
HETATM    4  H           1     -21.445  -6.617  -7.344  0.00  0.00     0.275 HD
HETATM    5  H           1     -19.775  -6.743  -7.675  0.00  0.00     0.275 HD
ENDBRANCH   1   2
BRANCH   1   6
HETATM    6  C           1     -20.515  -4.947  -5.644  0.00  0.00     0.079 C 
BRANCH   6   7
HETATM    7  C           1     -21.005  -4.525  -6.995  0.00  0.00    -0.056 A 
HETATM    8  C           1     -22.359  -4.260  -7.195  0.00  0.00     0.010 A 
HETATM    9  C           1     -22.814  -3.867  -8.454  0.00  0.00     0.038 A 
HETATM   10  C           1     -21.915  -3.739  -9.512  0.00  0.00     0.081 A 
HETATM   11  C           1     -20.561  -4.004  -9.312  0.00  0.00     0.038 A 
HETATM   12  C           1     -20.105  -4.397  -8.053  0.00  0.00     0.010 A 
BRANCH  10  13
HETATM   13  O           1     -22.358  -3.357 -10.734  0.00  0.00    -0.247 OA
BRANCH  13  14
HETATM   14  P           1     -23.689  -4.064 -11.313  0.00  0.00     0.411 P 
HETATM   15  O           1     -24.857  -3.189 -11.073  0.00  0.00    -0.624 OA
HETATM   16  O           1     -23.894  -5.362 -10.631  0.00  0.00    -0.624 OA
BRANCH  14  17
HETATM   17  O           1     -23.520  -4.313 -12.900  0.00  0.00    -0.300 OA
HETATM   18  H           1     -24.321  -3.998 -13.283  0.00  0.00     0.223 HD
ENDBRANCH  14  17
ENDBRANCH  13  14
ENDBRANCH  10  13
ENDBRANCH   6   7
ENDBRANCH   1   6
BRANCH   1  19
HETATM   19  C           1     -21.084  -7.125  -4.616  0.00  0.00     0.130 C 
HETATM   20  O           1     -22.102  -7.683  -4.949  0.00  0.00    -0.397 OA
HETATM   21  N           1     -20.708  -7.113  -3.299  0.00  0.00    -0.359 N 
HETATM   22  H           1     -19.855  -6.645  -3.020  0.00  0.00     0.162 HD
BRANCH  21  23
HETATM   23  C           1     -21.533  -7.770  -2.304  0.00  0.00     0.184 C 
BRANCH  23  24
HETATM   24  C           1     -20.657  -8.631  -1.404  0.00  0.00     0.040 C 
BRANCH  24  25
HETATM   25  C           1     -20.782 -10.091  -1.819  0.00  0.00    -0.018 C 
HETATM   26  C           1     -22.249 -10.430  -2.054  0.00  0.00     0.289 C 
HETATM   27  C           1     -20.228 -10.981  -0.714  0.00  0.00     0.009 C 
ENDBRANCH  24  25
ENDBRANCH  23  24
BRANCH  23  28
HETATM   28  C           1     -22.240  -6.730  -1.471  0.00  0.00     0.196 C 
HETATM   29  O           1     -22.861  -7.070  -0.441  0.00  0.00    -0.646 OA
HETATM   30  O           1     -22.204  -5.527  -1.810  0.00  0.00    -0.646 OA
ENDBRANCH  23  28
ENDBRANCH  21  23
ENDBRANCH   1  19
TORSDOF 11
ENDMDL
MODEL 8
REMARK VINA RESULT:      -7.0      2.437      3.507
REMARK  11 active torsions:
REMARK  status: ('A' for Active; 'I' for Inactive)
REMARK    1  A    between atoms: C_2  and  C_4 
REMARK    2  A    between atoms: C_4  and  C_5 
REMARK    3  A    between atoms: C_5  and  C_28 
REMARK    4  A    between atoms: C_5  and  N_25 
REMARK    5  A    between atoms: N_10  and  C_23 
REMARK    6  A    between atoms: O_15  and  P_16 
REMARK    7  A    between atoms: P_16  and  O_17 
REMARK    8  A    between atoms: O_17  and  C_18 
REMARK    9  A    between atoms: C_21  and  C_22 
REMARK   10  A    between atoms: C_22  and  C_23 
REMARK   11  A    between atoms: C_23  and  C_24 
REMARK       I    between atoms: C_24  and  N_25 
ROOT
HETATM    1  C           1     -21.472  -6.714  -5.622  0.00  0.00     0.260 C 
ENDROOT
BRANCH   1   2
HETATM    2  N           1     -22.632  -6.290  -4.769  0.00  0.00    -0.067 N 
HETATM    3  H           1     -22.869  -5.293  -4.976  0.00  0.00     0.275 HD
HETATM    4  H           1     -23.457  -6.895  -4.979  0.00  0.00     0.275 HD
HETATM    5  H           1     -22.375  -6.385  -3.761  0.00  0.00     0.275 HD
ENDBRANCH   1   2
BRANCH   1   6
HETATM    6  C           1     -20.617  -5.499  -5.955  0.00  0.00     0.079 C 
BRANCH   6   7
HETATM    7  C           1     -21.066  -4.913  -7.257  0.00  0.00    -0.056 A 
HETATM    8  C           1     -22.280  -4.230  -7.334  0.00  0.00     0.010 A 
HETATM    9  C           1     -22.698  -3.684  -8.547  0.00  0.00     0.038 A 
HETATM   10  C           1     -21.902  -3.820  -9.684  0.00  0.00     0.081 A 
HETATM   11  C           1     -20.688  -4.503  -9.608  0.00  0.00     0.038 A 
HETATM   12  C           1     -20.270  -5.049  -8.394  0.00  0.00     0.010 A 
BRANCH  10  13
HETATM   13  O           1     -22.308  -3.290 -10.863  0.00  0.00    -0.247 OA
BRANCH  13  14
HETATM   14  P           1     -23.602  -3.937 -11.579  0.00  0.00     0.411 P 
HETATM   15  O           1     -24.809  -3.166 -11.207  0.00  0.00    -0.624 OA
HETATM   16  O           1     -23.757  -5.342 -11.141  0.00  0.00    -0.624 OA
BRANCH  14  17
HETATM   17  O           1     -23.408  -3.893 -13.182  0.00  0.00    -0.300 OA
HETATM   18  H           1     -23.239  -2.987 -13.382  0.00  0.00     0.223 HD
ENDBRANCH  14  17
ENDBRANCH  13  14
ENDBRANCH  10  13
ENDBRANCH   6   7
ENDBRANCH   1   6
BRANCH   1  19
HETATM   19  C           1     -20.640  -7.724  -4.870  0.00  0.00     0.130 C 
HETATM   20  O           1     -20.435  -7.580  -3.689  0.00  0.00    -0.397 OA
HETATM   21  N           1     -20.117  -8.805  -5.530  0.00  0.00    -0.359 N 
HETATM   22  H           1     -20.288  -8.926  -6.519  0.00  0.00     0.162 HD
BRANCH  21  23
HETATM   23  C           1     -19.318  -9.776  -4.807  0.00  0.00     0.184 C 
BRANCH  23  24
HETATM   24  C           1     -19.989 -11.141  -4.876  0.00  0.00     0.040 C 
BRANCH  24  25
HETATM   25  C           1     -21.392 -10.989  -5.449  0.00  0.00    -0.018 C 
HETATM   26  C           1     -22.413 -11.480  -4.430  0.00  0.00     0.289 C 
HETATM   27  C           1     -21.511 -11.814  -6.723  0.00  0.00     0.009 C 
ENDBRANCH  24  25
ENDBRANCH  23  24
BRANCH  23  28
HETATM   28  C           1     -17.946  -9.859  -5.430  0.00  0.00     0.196 C 
HETATM   29  O           1     -17.829 -10.036  -6.662  0.00  0.00    -0.646 OA
HETATM   30  O           1     -16.927  -9.749  -4.715  0.00  0.00    -0.646 OA
ENDBRANCH  23  28
ENDBRANCH  21  23
ENDBRANCH   1  19
TORSDOF 11
ENDMDL
MODEL 9
REMARK VINA RESULT:      -6.6      3.017      4.393
REMARK  11 active torsions:
REMARK  status: ('A' for Active; 'I' for Inactive)
REMARK    1  A    between atoms: C_2  and  C_4 
REMARK    2  A    between atoms: C_4  and  C_5 
REMARK    3  A    between atoms: C_5  and  C_28 
REMARK    4  A    between atoms: C_5  and  N_25 
REMARK    5  A    between atoms: N_10  and  C_23 
REMARK    6  A    between atoms: O_15  and  P_16 
REMARK    7  A    between atoms: P_16  and  O_17 
REMARK    8  A    between atoms: O_17  and  C_18 
REMARK    9  A    between atoms: C_21  and  C_22 
REMARK   10  A    between atoms: C_22  and  C_23 
REMARK   11  A    between atoms: C_23  and  C_24 
REMARK       I    between atoms: C_24  and  N_25 
ROOT
HETATM    1  C           1     -20.570  -7.793  -4.611  0.00  0.00     0.260 C 
ENDROOT
BRANCH   1   2
HETATM    2  N           1     -21.140  -8.529  -5.788  0.00  0.00    -0.067 N 
HETATM    3  H           1     -21.845  -9.226  -5.454  0.00  0.00     0.275 HD
HETATM    4  H           1     -21.601  -7.849  -6.433  0.00  0.00     0.275 HD
HETATM    5  H           1     -20.372  -9.026  -6.293  0.00  0.00     0.275 HD
ENDBRANCH   1   2
BRANCH   1   6
HETATM    6  C           1     -21.314  -6.478  -4.426  0.00  0.00     0.079 C 
BRANCH   6   7
HETATM    7  C           1     -21.170  -5.644  -5.661  0.00  0.00    -0.056 A 
HETATM    8  C           1     -19.908  -5.215  -6.070  0.00  0.00     0.010 A 
HETATM    9  C           1     -19.774  -4.438  -7.221  0.00  0.00     0.038 A 
HETATM   10  C           1     -20.903  -4.091  -7.963  0.00  0.00     0.081 A 
HETATM   11  C           1     -22.165  -4.520  -7.553  0.00  0.00     0.038 A 
HETATM   12  C           1     -22.299  -5.297  -6.403  0.00  0.00     0.010 A 
BRANCH  10  13
HETATM   13  O           1     -20.773  -3.336  -9.080  0.00  0.00    -0.247 OA
BRANCH  13  14
HETATM   14  P           1     -20.758  -4.090 -10.508  0.00  0.00     0.411 P 
HETATM   15  O           1     -22.104  -4.636 -10.791  0.00  0.00    -0.624 OA
HETATM   16  O           1     -19.774  -5.195 -10.471  0.00  0.00    -0.624 OA
BRANCH  14  17
HETATM   17  O           1     -20.347  -3.043 -11.666  0.00  0.00    -0.300 OA
HETATM   18  H           1     -19.528  -3.364 -12.005  0.00  0.00     0.223 HD
ENDBRANCH  14  17
ENDBRANCH  13  14
ENDBRANCH  10  13
ENDBRANCH   6   7
ENDBRANCH   1   6
BRANCH   1  19
HETATM   19  C           1     -20.723  -8.638  -3.369  0.00  0.00     0.130 C 
HETATM   20  O           1     -20.117  -8.351  -2.366  0.00  0.00    -0.397 OA
HETATM   21  N           1     -21.551  -9.729  -3.383  0.00  0.00    -0.359 N 
HETATM   22  H           1     -22.059  -9.970  -4.224  0.00  0.00     0.162 HD
BRANCH  21  23
HETATM   23  C           1     -21.699 -10.540  -2.190  0.00  0.00     0.184 C 
BRANCH  23  24
HETATM   24  C           1     -23.112 -11.103  -2.128  0.00  0.00     0.040 C 
BRANCH  24  25
HETATM   25  C           1     -23.724 -10.791  -0.768  0.00  0.00    -0.018 C 
HETATM   26  C           1     -23.001  -9.604  -0.144  0.00  0.00     0.289 C 
HETATM   27  C           1     -23.583 -12.004   0.141  0.00  0.00     0.009 C 
ENDBRANCH  24  25
ENDBRANCH  23  24
BRANCH  23  28
HETATM   28  C           1     -20.707 -11.677  -2.230  0.00  0.00     0.196 C 
HETATM   29  O           1     -20.122 -12.034  -1.184  0.00  0.00    -0.646 OA
HETATM   30  O           1     -20.470 -12.262  -3.309  0.00  0.00    -0.646 OA
ENDBRANCH  23  28
ENDBRANCH  21  23
ENDBRANCH   1  19
TORSDOF 11
ENDMDL
