MODEL 1
REMARK VINA RESULT:      -5.5      0.000      0.000
REMARK  3 active torsions:
REMARK  status: ('A' for Active; 'I' for Inactive)
REMARK    1  A    between atoms: C_5  and  C_6 
REMARK    2  A    between atoms: C_6  and  N_14 
REMARK       I    between atoms: N_14  and  C_15 
REMARK    3  A    between atoms: C_15  and  C_16 
ROOT
HETATM    1  H           1     -20.835  -2.962  -6.050  0.00  0.00     0.275 HD
HETATM    2  H           1     -22.026  -2.693  -7.242  0.00  0.00     0.275 HD
HETATM    3  H           1     -21.719  -4.277  -6.685  0.00  0.00     0.275 HD
HETATM    4  N           1     -21.287  -3.352  -6.908  0.00  0.00    -0.067 N 
HETATM    5  C           1     -21.638  -7.492  -5.708  0.00  0.00     0.000 C 
HETATM    6 Se           1     -21.147  -5.606  -5.775  0.00  0.00     0.000 Se
HETATM    7  C           1     -20.254  -3.529  -7.983  0.00  0.00     0.274 C 
HETATM    8  C           1     -19.177  -4.489  -7.497  0.00  0.00     0.042 C 
HETATM    9  C           1     -19.806  -5.836  -7.169  0.00  0.00     0.003 C 
ENDROOT
BRANCH   7  10
HETATM   10  C           1     -20.909  -4.091  -9.220  0.00  0.00     0.249 C 
HETATM   11  O           1     -20.259  -4.737 -10.007  0.00  0.00    -0.271 OA
HETATM   12  N           1     -22.240  -3.870  -9.452  0.00  0.00    -0.345 N 
HETATM   13  H           1     -22.785  -3.328  -8.792  0.00  0.00     0.163 HD
BRANCH  12  14
HETATM   14  C           1     -22.869  -4.409 -10.641  0.00  0.00     0.181 C 
HETATM   15  C           1     -24.084  -5.237 -10.242  0.00  0.00     0.043 C 
BRANCH  14  16
HETATM   16  C           1     -23.304  -3.276 -11.538  0.00  0.00     0.196 C 
HETATM   17  O           1     -22.455  -2.649 -12.209  0.00  0.00    -0.646 OA
HETATM   18  O           1     -24.512  -2.964 -11.610  0.00  0.00    -0.646 OA
ENDBRANCH  14  16
ENDBRANCH  12  14
ENDBRANCH   7  10
TORSDOF 3
ENDMDL
MODEL 2
REMARK VINA RESULT:      -5.3      3.761      6.193
REMARK  3 active torsions:
REMARK  status: ('A' for Active; 'I' for Inactive)
REMARK    1  A    between atoms: C_5  and  C_6 
REMARK    2  A    between atoms: C_6  and  N_14 
REMARK       I    between atoms: N_14  and  C_15 
REMARK    3  A    between atoms: C_15  and  C_16 
ROOT
HETATM    1  H           1     -19.475  -3.966  -9.047  0.00  0.00     0.275 HD
HETATM    2  H           1     -19.085  -5.566  -8.601  0.00  0.00     0.275 HD
HETATM    3  H           1     -20.677  -5.178  -9.080  0.00  0.00     0.275 HD
HETATM    4  N           1     -19.828  -4.832  -8.579  0.00  0.00    -0.067 N 
HETATM    5  C           1     -23.839  -4.929 -10.195  0.00  0.00     0.000 C 
HETATM    6 Se           1     -22.041  -4.356  -9.703  0.00  0.00     0.000 Se
HETATM    7  C           1     -20.180  -4.522  -7.153  0.00  0.00     0.274 C 
HETATM    8  C           1     -21.262  -3.451  -7.120  0.00  0.00     0.042 C 
HETATM    9  C           1     -22.499  -3.954  -7.852  0.00  0.00     0.003 C 
ENDROOT
BRANCH   7  10
HETATM   10  C           1     -20.689  -5.773  -6.480  0.00  0.00     0.249 C 
HETATM   11  O           1     -21.080  -6.702  -7.145  0.00  0.00    -0.271 OA
HETATM   12  N           1     -20.710  -5.855  -5.113  0.00  0.00    -0.345 N 
HETATM   13  H           1     -20.384  -5.076  -4.555  0.00  0.00     0.163 HD
BRANCH  12  14
HETATM   14  C           1     -21.200  -7.056  -4.465  0.00  0.00     0.181 C 
HETATM   15  C           1     -20.112  -8.122  -4.483  0.00  0.00     0.043 C 
BRANCH  14  16
HETATM   16  C           1     -21.573  -6.740  -3.038  0.00  0.00     0.196 C 
HETATM   17  O           1     -22.519  -5.958  -2.797  0.00  0.00    -0.646 OA
HETATM   18  O           1     -20.937  -7.259  -2.095  0.00  0.00    -0.646 OA
ENDBRANCH  14  16
ENDBRANCH  12  14
ENDBRANCH   7  10
TORSDOF 3
ENDMDL
MODEL 3
REMARK VINA RESULT:      -4.7      4.856      6.689
REMARK  3 active torsions:
REMARK  status: ('A' for Active; 'I' for Inactive)
REMARK    1  A    between atoms: C_5  and  C_6 
REMARK    2  A    between atoms: C_6  and  N_14 
REMARK       I    between atoms: N_14  and  C_15 
REMARK    3  A    between atoms: C_15  and  C_16 
ROOT
HETATM    1  H           1     -22.029  -8.042   0.122  0.00  0.00     0.275 HD
HETATM    2  H           1     -23.019  -6.860  -0.608  0.00  0.00     0.275 HD
HETATM    3  H           1     -22.787  -8.369  -1.372  0.00  0.00     0.275 HD
HETATM    4  N           1     -22.335  -7.629  -0.788  0.00  0.00    -0.067 N 
HETATM    5  C           1     -22.827 -11.260  -3.085  0.00  0.00     0.000 C 
HETATM    6 Se           1     -22.353  -9.993  -1.682  0.00  0.00     0.000 Se
HETATM    7  C           1     -21.143  -7.077  -1.514  0.00  0.00     0.274 C 
HETATM    8  C           1     -20.146  -8.198  -1.776  0.00  0.00     0.042 C 
HETATM    9  C           1     -20.805  -9.277  -2.625  0.00  0.00     0.003 C 
ENDROOT
BRANCH   7  10
HETATM   10  C           1     -21.588  -6.482  -2.828  0.00  0.00     0.249 C 
HETATM   11  O           1     -22.729  -6.110  -2.967  0.00  0.00    -0.271 OA
HETATM   12  N           1     -20.699  -6.365  -3.863  0.00  0.00    -0.345 N 
HETATM   13  H           1     -19.743  -6.678  -3.746  0.00  0.00     0.163 HD
BRANCH  12  14
HETATM   14  C           1     -21.126  -5.794  -5.125  0.00  0.00     0.181 C 
HETATM   15  C           1     -20.241  -4.603  -5.469  0.00  0.00     0.043 C 
BRANCH  14  16
HETATM   16  C           1     -21.014  -6.835  -6.211  0.00  0.00     0.196 C 
HETATM   17  O           1     -20.591  -6.515  -7.343  0.00  0.00    -0.646 OA
HETATM   18  O           1     -21.342  -8.019  -5.979  0.00  0.00    -0.646 OA
ENDBRANCH  14  16
ENDBRANCH  12  14
ENDBRANCH   7  10
TORSDOF 3
ENDMDL
MODEL 4
REMARK VINA RESULT:      -4.7      6.241      8.310
REMARK  3 active torsions:
REMARK  status: ('A' for Active; 'I' for Inactive)
REMARK    1  A    between atoms: C_5  and  C_6 
REMARK    2  A    between atoms: C_6  and  N_14 
REMARK       I    between atoms: N_14  and  C_15 
REMARK    3  A    between atoms: C_15  and  C_16 
ROOT
HETATM    1  H           1     -23.494  -7.882   0.906  0.00  0.00     0.275 HD
HETATM    2  H           1     -23.349  -6.986  -0.539  0.00  0.00     0.275 HD
HETATM    3  H           1     -23.409  -8.691  -0.595  0.00  0.00     0.275 HD
HETATM    4  N           1     -23.070  -7.867  -0.050  0.00  0.00    -0.067 N 
HETATM    5  C           1     -23.754 -11.980  -1.198  0.00  0.00     0.000 C 
HETATM    6 Se           1     -23.606 -10.333  -0.164  0.00  0.00     0.000 Se
HETATM    7  C           1     -21.575  -7.923   0.064  0.00  0.00     0.274 C 
HETATM    8  C           1     -21.169  -9.206   0.777  0.00  0.00     0.042 C 
HETATM    9  C           1     -21.665 -10.407  -0.016  0.00  0.00     0.003 C 
ENDROOT
BRANCH   7  10
HETATM   10  C           1     -20.966  -7.900  -1.316  0.00  0.00     0.249 C 
HETATM   11  O           1     -19.795  -8.158  -1.465  0.00  0.00    -0.271 OA
HETATM   12  N           1     -21.739  -7.586  -2.402  0.00  0.00    -0.345 N 
HETATM   13  H           1     -22.721  -7.369  -2.277  0.00  0.00     0.163 HD
BRANCH  12  14
HETATM   14  C           1     -21.154  -7.563  -3.728  0.00  0.00     0.181 C 
HETATM   15  C           1     -21.580  -8.809  -4.492  0.00  0.00     0.043 C 
BRANCH  14  16
HETATM   16  C           1     -21.628  -6.334  -4.464  0.00  0.00     0.196 C 
HETATM   17  O           1     -22.832  -6.222  -4.783  0.00  0.00    -0.646 OA
HETATM   18  O           1     -20.818  -5.428  -4.757  0.00  0.00    -0.646 OA
ENDBRANCH  14  16
ENDBRANCH  12  14
ENDBRANCH   7  10
TORSDOF 3
ENDMDL
MODEL 5
REMARK VINA RESULT:      -4.5      9.100     10.847
REMARK  3 active torsions:
REMARK  status: ('A' for Active; 'I' for Inactive)
REMARK    1  A    between atoms: C_5  and  C_6 
REMARK    2  A    between atoms: C_6  and  N_14 
REMARK       I    between atoms: N_14  and  C_15 
REMARK    3  A    between atoms: C_15  and  C_16 
ROOT
HETATM    1  H           1     -22.689 -12.873  -2.843  0.00  0.00     0.275 HD
HETATM    2  H           1     -22.816 -11.184  -3.051  0.00  0.00     0.275 HD
HETATM    3  H           1     -21.659 -11.826  -1.973  0.00  0.00     0.275 HD
HETATM    4  N           1     -22.620 -11.946  -2.364  0.00  0.00    -0.067 N 
HETATM    5  C           1     -19.088 -12.644   0.032  0.00  0.00     0.000 C 
HETATM    6 Se           1     -20.635 -12.902  -1.127  0.00  0.00     0.000 Se
HETATM    7  C           1     -23.624 -11.883  -1.250  0.00  0.00     0.274 C 
HETATM    8  C           1     -23.340 -12.994  -0.248  0.00  0.00     0.042 C 
HETATM    9  C           1     -21.938 -12.820   0.320  0.00  0.00     0.003 C 
ENDROOT
BRANCH   7  10
HETATM   10  C           1     -23.524 -10.545  -0.560  0.00  0.00     0.249 C 
HETATM   11  O           1     -24.342 -10.230   0.271  0.00  0.00    -0.271 OA
HETATM   12  N           1     -22.506  -9.686  -0.876  0.00  0.00    -0.345 N 
HETATM   13  H           1     -21.820  -9.949  -1.573  0.00  0.00     0.163 HD
BRANCH  12  14
HETATM   14  C           1     -22.409  -8.399  -0.214  0.00  0.00     0.181 C 
HETATM   15  C           1     -21.446  -8.504   0.960  0.00  0.00     0.043 C 
BRANCH  14  16
HETATM   16  C           1     -21.902  -7.368  -1.192  0.00  0.00     0.196 C 
HETATM   17  O           1     -20.801  -7.536  -1.762  0.00  0.00    -0.646 OA
HETATM   18  O           1     -22.581  -6.347  -1.433  0.00  0.00    -0.646 OA
ENDBRANCH  14  16
ENDBRANCH  12  14
ENDBRANCH   7  10
TORSDOF 3
ENDMDL
MODEL 6
REMARK VINA RESULT:      -4.5      6.800      8.837
REMARK  3 active torsions:
REMARK  status: ('A' for Active; 'I' for Inactive)
REMARK    1  A    between atoms: C_5  and  C_6 
REMARK    2  A    between atoms: C_6  and  N_14 
REMARK       I    between atoms: N_14  and  C_15 
REMARK    3  A    between atoms: C_15  and  C_16 
ROOT
HETATM    1  H           1     -23.902 -10.048   0.391  0.00  0.00     0.275 HD
HETATM    2  H           1     -23.928  -9.531  -1.235  0.00  0.00     0.275 HD
HETATM    3  H           1     -22.481 -10.126  -0.551  0.00  0.00     0.275 HD
HETATM    4  N           1     -23.352  -9.579  -0.364  0.00  0.00    -0.067 N 
HETATM    5  C           1     -19.510 -11.455   0.288  0.00  0.00     0.000 C 
HETATM    6 Se           1     -21.354 -10.861   0.503  0.00  0.00     0.000 Se
HETATM    7  C           1     -22.987  -8.190   0.069  0.00  0.00     0.274 C 
HETATM    8  C           1     -22.148  -8.259   1.339  0.00  0.00     0.042 C 
HETATM    9  C           1     -20.880  -9.057   1.067  0.00  0.00     0.003 C 
ENDROOT
BRANCH   7  10
HETATM   10  C           1     -22.193  -7.516  -1.022  0.00  0.00     0.249 C 
HETATM   11  O           1     -22.034  -6.319  -1.002  0.00  0.00    -0.271 OA
HETATM   12  N           1     -21.654  -8.260  -2.037  0.00  0.00    -0.345 N 
HETATM   13  H           1     -21.789  -9.264  -2.054  0.00  0.00     0.163 HD
BRANCH  12  14
HETATM   14  C           1     -20.892  -7.613  -3.087  0.00  0.00     0.181 C 
HETATM   15  C           1     -19.767  -8.535  -3.539  0.00  0.00     0.043 C 
BRANCH  14  16
HETATM   16  C           1     -21.799  -7.316  -4.255  0.00  0.00     0.196 C 
HETATM   17  O           1     -22.445  -6.245  -4.288  0.00  0.00    -0.646 OA
HETATM   18  O           1     -21.906  -8.138  -5.190  0.00  0.00    -0.646 OA
ENDBRANCH  14  16
ENDBRANCH  12  14
ENDBRANCH   7  10
TORSDOF 3
ENDMDL
MODEL 7
REMARK VINA RESULT:      -4.5      7.024      9.115
REMARK  3 active torsions:
REMARK  status: ('A' for Active; 'I' for Inactive)
REMARK    1  A    between atoms: C_5  and  C_6 
REMARK    2  A    between atoms: C_6  and  N_14 
REMARK       I    between atoms: N_14  and  C_15 
REMARK    3  A    between atoms: C_15  and  C_16 
ROOT
HETATM    1  H           1     -23.308 -11.747  -0.842  0.00  0.00     0.275 HD
HETATM    2  H           1     -23.502 -10.404  -1.876  0.00  0.00     0.275 HD
HETATM    3  H           1     -22.058 -11.314  -1.922  0.00  0.00     0.275 HD
HETATM    4  N           1     -22.817 -10.948  -1.304  0.00  0.00    -0.067 N 
HETATM    5  C           1     -19.190 -12.955  -2.534  0.00  0.00     0.000 C 
HETATM    6 Se           1     -20.894 -12.543  -1.682  0.00  0.00     0.000 Se
HETATM    7  C           1     -22.221 -10.053  -0.257  0.00  0.00     0.274 C 
HETATM    8  C           1     -21.224 -10.845   0.578  0.00  0.00     0.042 C 
HETATM    9  C           1     -20.119 -11.381  -0.322  0.00  0.00     0.003 C 
ENDROOT
BRANCH   7  10
HETATM   10  C           1     -21.514  -8.900  -0.926  0.00  0.00     0.249 C 
HETATM   11  O           1     -20.857  -8.129  -0.267  0.00  0.00    -0.271 OA
HETATM   12  N           1     -21.617  -8.726  -2.280  0.00  0.00    -0.345 N 
HETATM   13  H           1     -22.168  -9.372  -2.832  0.00  0.00     0.163 HD
BRANCH  12  14
HETATM   14  C           1     -20.938  -7.618  -2.924  0.00  0.00     0.181 C 
HETATM   15  C           1     -20.359  -8.081  -4.253  0.00  0.00     0.043 C 
BRANCH  14  16
HETATM   16  C           1     -21.921  -6.499  -3.165  0.00  0.00     0.196 C 
HETATM   17  O           1     -22.366  -5.839  -2.200  0.00  0.00    -0.646 OA
HETATM   18  O           1     -22.292  -6.232  -4.328  0.00  0.00    -0.646 OA
ENDBRANCH  14  16
ENDBRANCH  12  14
ENDBRANCH   7  10
TORSDOF 3
ENDMDL
MODEL 8
REMARK VINA RESULT:      -4.3      9.019     10.827
REMARK  3 active torsions:
REMARK  status: ('A' for Active; 'I' for Inactive)
REMARK    1  A    between atoms: C_5  and  C_6 
REMARK    2  A    between atoms: C_6  and  N_14 
REMARK       I    between atoms: N_14  and  C_15 
REMARK    3  A    between atoms: C_15  and  C_16 
ROOT
HETATM    1  H           1     -22.509 -13.327  -1.269  0.00  0.00     0.275 HD
HETATM    2  H           1     -23.123 -11.736  -1.215  0.00  0.00     0.275 HD
HETATM    3  H           1     -21.615 -12.044  -1.952  0.00  0.00     0.275 HD
HETATM    4  N           1     -22.256 -12.318  -1.174  0.00  0.00    -0.067 N 
HETATM    5  C           1     -18.760 -12.220  -3.718  0.00  0.00     0.000 C 
HETATM    6 Se           1     -20.264 -12.835  -2.641  0.00  0.00     0.000 Se
HETATM    7  C           1     -21.569 -12.096   0.141  0.00  0.00     0.274 C 
HETATM    8  C           1     -20.305 -12.944   0.202  0.00  0.00     0.042 C 
HETATM    9  C           1     -19.371 -12.547  -0.933  0.00  0.00     0.003 C 
ENDROOT
BRANCH   7  10
HETATM   10  C           1     -21.204 -10.638   0.277  0.00  0.00     0.249 C 
HETATM   11  O           1     -20.600 -10.254   1.250  0.00  0.00    -0.271 OA
HETATM   12  N           1     -21.558  -9.749  -0.703  0.00  0.00    -0.345 N 
HETATM   13  H           1     -22.064 -10.071  -1.518  0.00  0.00     0.163 HD
BRANCH  12  14
HETATM   14  C           1     -21.208  -8.348  -0.573  0.00  0.00     0.181 C 
HETATM   15  C           1     -20.498  -7.883  -1.837  0.00  0.00     0.043 C 
BRANCH  14  16
HETATM   16  C           1     -22.462  -7.535  -0.371  0.00  0.00     0.196 C 
HETATM   17  O           1     -23.298  -7.878   0.493  0.00  0.00    -0.646 OA
HETATM   18  O           1     -22.666  -6.517  -1.068  0.00  0.00    -0.646 OA
ENDBRANCH  14  16
ENDBRANCH  12  14
ENDBRANCH   7  10
TORSDOF 3
ENDMDL
MODEL 9
REMARK VINA RESULT:      -4.3      9.401     10.805
REMARK  3 active torsions:
REMARK  status: ('A' for Active; 'I' for Inactive)
REMARK    1  A    between atoms: C_5  and  C_6 
REMARK    2  A    between atoms: C_6  and  N_14 
REMARK       I    between atoms: N_14  and  C_15 
REMARK    3  A    between atoms: C_15  and  C_16 
ROOT
HETATM    1  H           1     -21.021 -13.372  -2.709  0.00  0.00     0.275 HD
HETATM    2  H           1     -19.747 -12.317  -2.291  0.00  0.00     0.275 HD
HETATM    3  H           1     -20.898 -12.772  -1.115  0.00  0.00     0.275 HD
HETATM    4  N           1     -20.753 -12.547  -2.125  0.00  0.00    -0.067 N 
HETATM    5  C           1     -22.760 -13.599   1.558  0.00  0.00     0.000 C 
HETATM    6 Se           1     -22.176 -13.564  -0.301  0.00  0.00     0.000 Se
HETATM    7  C           1     -21.603 -11.369  -2.503  0.00  0.00     0.274 C 
HETATM    8  C           1     -23.069 -11.705  -2.262  0.00  0.00     0.042 C 
HETATM    9  C           1     -23.281 -12.035  -0.791  0.00  0.00     0.003 C 
ENDROOT
BRANCH   7  10
HETATM   10  C           1     -21.215 -10.180  -1.660  0.00  0.00     0.249 C 
HETATM   11  O           1     -20.217 -10.221  -0.979  0.00  0.00    -0.271 OA
HETATM   12  N           1     -21.993  -9.053  -1.664  0.00  0.00    -0.345 N 
HETATM   13  H           1     -22.830  -9.019  -2.234  0.00  0.00     0.163 HD
BRANCH  12  14
HETATM   14  C           1     -21.621  -7.911  -0.854  0.00  0.00     0.181 C 
HETATM   15  C           1     -22.178  -6.640  -1.482  0.00  0.00     0.043 C 
BRANCH  14  16
HETATM   16  C           1     -22.185  -8.075   0.536  0.00  0.00     0.196 C 
HETATM   17  O           1     -23.419  -7.994   0.723  0.00  0.00    -0.646 OA
HETATM   18  O           1     -21.420  -8.292   1.500  0.00  0.00    -0.646 OA
ENDBRANCH  14  16
ENDBRANCH  12  14
ENDBRANCH   7  10
TORSDOF 3
ENDMDL
