MODEL 1
REMARK VINA RESULT:      -6.1      0.000      0.000
REMARK  8 active torsions:
REMARK  status: ('A' for Active; 'I' for Inactive)
REMARK    1  A    between atoms: N_2  and  C_18 
REMARK       I    between atoms: N_2  and  C_3 
REMARK    2  A    between atoms: C_3  and  C_4 
REMARK    3  A    between atoms: C_4  and  C_5 
REMARK    4  A    between atoms: C_4  and  N_14 
REMARK    5  A    between atoms: C_5  and  C_9 
REMARK    6  A    between atoms: C_17  and  C_18 
REMARK    7  A    between atoms: C_18  and  C_20 
REMARK    8  A    between atoms: O_19  and  C_20 
ROOT
HETATM    1  N           1     -22.154  -4.782  -9.065  0.00  0.00    -0.343 N 
HETATM    2  C           1     -21.691  -4.522  -7.803  0.00  0.00     0.249 C 
HETATM    3  H           1     -22.187  -5.735  -9.405  0.00  0.00     0.163 HD
HETATM    4  O           1     -21.651  -3.385  -7.397  0.00  0.00    -0.271 OA
ENDROOT
BRANCH   2   5
HETATM    5  C           1     -21.232  -5.656  -6.920  0.00  0.00     0.284 C 
BRANCH   5   6
HETATM    6  C           1     -20.949  -5.127  -5.519  0.00  0.00     0.155 C 
BRANCH   6   7
HETATM    7  C           1     -21.193  -6.221  -4.509  0.00  0.00     0.175 C 
HETATM    8  O           1     -20.581  -7.307  -4.604  0.00  0.00    -0.648 OA
HETATM    9  O           1     -22.006  -6.041  -3.577  0.00  0.00    -0.648 OA
ENDBRANCH   6   7
ENDBRANCH   5   6
BRANCH   5  10
HETATM   10  N           1     -19.982  -6.257  -7.488  0.00  0.00    -0.066 N 
HETATM   11  H           1     -19.686  -5.715  -8.331  0.00  0.00     0.275 HD
HETATM   12  H           1     -19.222  -6.224  -6.770  0.00  0.00     0.275 HD
HETATM   13  H           1     -20.164  -7.250  -7.758  0.00  0.00     0.275 HD
ENDBRANCH   5  10
ENDBRANCH   2   5
BRANCH   1  14
HETATM   14  C           1     -22.595  -3.692  -9.914  0.00  0.00     0.214 C 
BRANCH  14  15
HETATM   15  C           1     -24.065  -3.852 -10.213  0.00  0.00     0.199 C 
HETATM   16  O           1     -24.690  -2.934 -10.786  0.00  0.00    -0.646 OA
HETATM   17  O           1     -24.659  -4.903  -9.888  0.00  0.00    -0.646 OA
ENDBRANCH  14  15
BRANCH  14  18
HETATM   18  C           1     -21.805  -3.714 -11.217  0.00  0.00     0.147 C 
HETATM   19  C           1     -20.397  -4.228 -10.948  0.00  0.00     0.042 C 
BRANCH  18  20
HETATM   20  O           1     -22.444  -4.557 -12.136  0.00  0.00    -0.393 OA
HETATM   21  H           1     -22.113  -4.335 -12.989  0.00  0.00     0.210 HD
ENDBRANCH  18  20
ENDBRANCH  14  18
ENDBRANCH   1  14
TORSDOF 8
ENDMDL
MODEL 2
REMARK VINA RESULT:      -5.6      1.789      2.118
REMARK  8 active torsions:
REMARK  status: ('A' for Active; 'I' for Inactive)
REMARK    1  A    between atoms: N_2  and  C_18 
REMARK       I    between atoms: N_2  and  C_3 
REMARK    2  A    between atoms: C_3  and  C_4 
REMARK    3  A    between atoms: C_4  and  C_5 
REMARK    4  A    between atoms: C_4  and  N_14 
REMARK    5  A    between atoms: C_5  and  C_9 
REMARK    6  A    between atoms: C_17  and  C_18 
REMARK    7  A    between atoms: C_18  and  C_20 
REMARK    8  A    between atoms: O_19  and  C_20 
ROOT
HETATM    1  N           1     -22.187  -3.753  -9.651  0.00  0.00    -0.343 N 
HETATM    2  C           1     -23.005  -3.800  -8.554  0.00  0.00     0.249 C 
HETATM    3  H           1     -21.243  -4.112  -9.593  0.00  0.00     0.163 HD
HETATM    4  O           1     -24.133  -3.371  -8.623  0.00  0.00    -0.271 OA
ENDROOT
BRANCH   2   5
HETATM    5  C           1     -22.499  -4.388  -7.260  0.00  0.00     0.284 C 
BRANCH   5   6
HETATM    6  C           1     -21.441  -5.443  -7.560  0.00  0.00     0.155 C 
BRANCH   6   7
HETATM    7  C           1     -21.142  -6.227  -6.306  0.00  0.00     0.175 C 
HETATM    8  O           1     -20.763  -5.633  -5.273  0.00  0.00    -0.648 OA
HETATM    9  O           1     -21.272  -7.470  -6.300  0.00  0.00    -0.648 OA
ENDBRANCH   6   7
ENDBRANCH   5   6
BRANCH   5  10
HETATM   10  N           1     -23.639  -5.022  -6.521  0.00  0.00    -0.066 N 
HETATM   11  H           1     -24.111  -4.305  -5.925  0.00  0.00     0.275 HD
HETATM   12  H           1     -24.326  -5.409  -7.207  0.00  0.00     0.275 HD
HETATM   13  H           1     -23.277  -5.794  -5.916  0.00  0.00     0.275 HD
ENDBRANCH   5  10
ENDBRANCH   2   5
BRANCH   1  14
HETATM   14  C           1     -22.673  -3.187 -10.894  0.00  0.00     0.214 C 
BRANCH  14  15
HETATM   15  C           1     -23.747  -4.079 -11.466  0.00  0.00     0.199 C 
HETATM   16  O           1     -23.599  -5.320 -11.459  0.00  0.00    -0.646 OA
HETATM   17  O           1     -24.787  -3.577 -11.947  0.00  0.00    -0.646 OA
ENDBRANCH  14  15
BRANCH  14  18
HETATM   18  C           1     -21.522  -3.078 -11.885  0.00  0.00     0.147 C 
HETATM   19  C           1     -20.326  -3.864 -11.362  0.00  0.00     0.042 C 
BRANCH  18  20
HETATM   20  O           1     -21.920  -3.602 -13.123  0.00  0.00    -0.393 OA
HETATM   21  H           1     -21.830  -4.538 -13.067  0.00  0.00     0.210 HD
ENDBRANCH  18  20
ENDBRANCH  14  18
ENDBRANCH   1  14
TORSDOF 8
ENDMDL
MODEL 3
REMARK VINA RESULT:      -5.6     10.329     12.813
REMARK  8 active torsions:
REMARK  status: ('A' for Active; 'I' for Inactive)
REMARK    1  A    between atoms: N_2  and  C_18 
REMARK       I    between atoms: N_2  and  C_3 
REMARK    2  A    between atoms: C_3  and  C_4 
REMARK    3  A    between atoms: C_4  and  C_5 
REMARK    4  A    between atoms: C_4  and  N_14 
REMARK    5  A    between atoms: C_5  and  C_9 
REMARK    6  A    between atoms: C_17  and  C_18 
REMARK    7  A    between atoms: C_18  and  C_20 
REMARK    8  A    between atoms: O_19  and  C_20 
ROOT
HETATM    1  N           1     -27.422  -6.872 -17.769  0.00  0.00    -0.343 N 
HETATM    2  C           1     -27.122  -6.332 -18.990  0.00  0.00     0.249 C 
HETATM    3  H           1     -26.753  -7.473 -17.304  0.00  0.00     0.163 HD
HETATM    4  O           1     -27.919  -5.614 -19.546  0.00  0.00    -0.271 OA
ENDROOT
BRANCH   2   5
HETATM    5  C           1     -25.794  -6.632 -19.643  0.00  0.00     0.284 C 
BRANCH   5   6
HETATM    6  C           1     -25.975  -7.729 -20.684  0.00  0.00     0.155 C 
BRANCH   6   7
HETATM    7  C           1     -24.672  -7.951 -21.413  0.00  0.00     0.175 C 
HETATM    8  O           1     -23.651  -8.292 -20.779  0.00  0.00    -0.648 OA
HETATM    9  O           1     -24.615  -7.791 -22.652  0.00  0.00    -0.648 OA
ENDBRANCH   6   7
ENDBRANCH   5   6
BRANCH   5  10
HETATM   10  N           1     -24.818  -7.088 -18.600  0.00  0.00    -0.066 N 
HETATM   11  H           1     -23.925  -6.555 -18.702  0.00  0.00     0.275 HD
HETATM   12  H           1     -25.218  -6.918 -17.650  0.00  0.00     0.275 HD
HETATM   13  H           1     -24.630  -8.110 -18.723  0.00  0.00     0.275 HD
ENDBRANCH   5  10
ENDBRANCH   2   5
BRANCH   1  14
HETATM   14  C           1     -28.697  -6.585 -17.142  0.00  0.00     0.214 C 
BRANCH  14  15
HETATM   15  C           1     -28.517  -6.511 -15.646  0.00  0.00     0.199 C 
HETATM   16  O           1     -29.004  -5.556 -15.004  0.00  0.00    -0.646 OA
HETATM   17  O           1     -27.880  -7.406 -15.049  0.00  0.00    -0.646 OA
ENDBRANCH  14  15
BRANCH  14  18
HETATM   18  C           1     -29.689  -7.690 -17.481  0.00  0.00     0.147 C 
HETATM   19  C           1     -31.083  -7.094 -17.623  0.00  0.00     0.042 C 
BRANCH  18  20
HETATM   20  O           1     -29.315  -8.299 -18.687  0.00  0.00    -0.393 OA
HETATM   21  H           1     -28.961  -9.144 -18.470  0.00  0.00     0.210 HD
ENDBRANCH  18  20
ENDBRANCH  14  18
ENDBRANCH   1  14
TORSDOF 8
ENDMDL
MODEL 4
REMARK VINA RESULT:      -5.6     10.222     12.991
REMARK  8 active torsions:
REMARK  status: ('A' for Active; 'I' for Inactive)
REMARK    1  A    between atoms: N_2  and  C_18 
REMARK       I    between atoms: N_2  and  C_3 
REMARK    2  A    between atoms: C_3  and  C_4 
REMARK    3  A    between atoms: C_4  and  C_5 
REMARK    4  A    between atoms: C_4  and  N_14 
REMARK    5  A    between atoms: C_5  and  C_9 
REMARK    6  A    between atoms: C_17  and  C_18 
REMARK    7  A    between atoms: C_18  and  C_20 
REMARK    8  A    between atoms: O_19  and  C_20 
ROOT
HETATM    1  N           1     -29.769  -6.111 -17.082  0.00  0.00    -0.343 N 
HETATM    2  C           1     -30.942  -6.731 -17.418  0.00  0.00     0.249 C 
HETATM    3  H           1     -29.758  -5.116 -16.896  0.00  0.00     0.163 HD
HETATM    4  O           1     -30.955  -7.919 -17.639  0.00  0.00    -0.271 OA
ENDROOT
BRANCH   2   5
HETATM    5  C           1     -32.219  -5.933 -17.510  0.00  0.00     0.284 C 
BRANCH   5   6
HETATM    6  C           1     -32.156  -4.759 -16.541  0.00  0.00     0.155 C 
BRANCH   6   7
HETATM    7  C           1     -32.132  -3.466 -17.318  0.00  0.00     0.175 C 
HETATM    8  O           1     -33.199  -2.861 -17.559  0.00  0.00    -0.648 OA
HETATM    9  O           1     -31.044  -2.999 -17.722  0.00  0.00    -0.648 OA
ENDBRANCH   6   7
ENDBRANCH   5   6
BRANCH   5  10
HETATM   10  N           1     -33.382  -6.810 -17.155  0.00  0.00    -0.066 N 
HETATM   11  H           1     -34.253  -6.234 -17.113  0.00  0.00     0.275 HD
HETATM   12  H           1     -33.492  -7.553 -17.882  0.00  0.00     0.275 HD
HETATM   13  H           1     -33.213  -7.254 -16.224  0.00  0.00     0.275 HD
ENDBRANCH   5  10
ENDBRANCH   2   5
BRANCH   1  14
HETATM   14  C           1     -28.542  -6.878 -16.994  0.00  0.00     0.214 C 
BRANCH  14  15
HETATM   15  C           1     -27.914  -6.668 -15.638  0.00  0.00     0.199 C 
HETATM   16  O           1     -27.074  -7.485 -15.205  0.00  0.00    -0.646 OA
HETATM   17  O           1     -28.235  -5.676 -14.948  0.00  0.00    -0.646 OA
ENDBRANCH  14  15
BRANCH  14  18
HETATM   18  C           1     -27.577  -6.416 -18.078  0.00  0.00     0.147 C 
HETATM   19  C           1     -28.332  -5.590 -19.111  0.00  0.00     0.042 C 
BRANCH  18  20
HETATM   20  O           1     -26.566  -5.635 -17.502  0.00  0.00    -0.393 OA
HETATM   21  H           1     -25.776  -6.147 -17.526  0.00  0.00     0.210 HD
ENDBRANCH  18  20
ENDBRANCH  14  18
ENDBRANCH   1  14
TORSDOF 8
ENDMDL
MODEL 5
REMARK VINA RESULT:      -5.5      1.807      5.975
REMARK  8 active torsions:
REMARK  status: ('A' for Active; 'I' for Inactive)
REMARK    1  A    between atoms: N_2  and  C_18 
REMARK       I    between atoms: N_2  and  C_3 
REMARK    2  A    between atoms: C_3  and  C_4 
REMARK    3  A    between atoms: C_4  and  C_5 
REMARK    4  A    between atoms: C_4  and  N_14 
REMARK    5  A    between atoms: C_5  and  C_9 
REMARK    6  A    between atoms: C_17  and  C_18 
REMARK    7  A    between atoms: C_18  and  C_20 
REMARK    8  A    between atoms: O_19  and  C_20 
ROOT
HETATM    1  N           1     -22.280  -5.050  -7.213  0.00  0.00    -0.343 N 
HETATM    2  C           1     -22.605  -4.120  -8.163  0.00  0.00     0.249 C 
HETATM    3  H           1     -22.865  -5.866  -7.083  0.00  0.00     0.163 HD
HETATM    4  O           1     -21.906  -3.147  -8.318  0.00  0.00    -0.271 OA
ENDROOT
BRANCH   2   5
HETATM    5  C           1     -23.833  -4.312  -9.019  0.00  0.00     0.284 C 
BRANCH   5   6
HETATM    6  C           1     -23.413  -4.582 -10.458  0.00  0.00     0.155 C 
BRANCH   6   7
HETATM    7  C           1     -23.741  -3.382 -11.312  0.00  0.00     0.175 C 
HETATM    8  O           1     -22.851  -2.548 -11.586  0.00  0.00    -0.648 OA
HETATM    9  O           1     -24.902  -3.222 -11.745  0.00  0.00    -0.648 OA
ENDBRANCH   6   7
ENDBRANCH   5   6
BRANCH   5  10
HETATM   10  N           1     -24.674  -3.072  -8.969  0.00  0.00    -0.066 N 
HETATM   11  H           1     -25.660  -3.329  -8.738  0.00  0.00     0.275 HD
HETATM   12  H           1     -24.302  -2.428  -8.235  0.00  0.00     0.275 HD
HETATM   13  H           1     -24.647  -2.595  -9.899  0.00  0.00     0.275 HD
ENDBRANCH   5  10
ENDBRANCH   2   5
BRANCH   1  14
HETATM   14  C           1     -21.100  -4.866  -6.391  0.00  0.00     0.214 C 
BRANCH  14  15
HETATM   15  C           1     -19.875  -5.272  -7.172  0.00  0.00     0.199 C 
HETATM   16  O           1     -18.848  -4.561  -7.138  0.00  0.00    -0.646 OA
HETATM   17  O           1     -19.888  -6.320  -7.855  0.00  0.00    -0.646 OA
ENDBRANCH  14  15
BRANCH  14  18
HETATM   18  C           1     -21.215  -5.729  -5.140  0.00  0.00     0.147 C 
HETATM   19  C           1     -22.567  -6.429  -5.130  0.00  0.00     0.042 C 
BRANCH  18  20
HETATM   20  O           1     -20.191  -6.687  -5.139  0.00  0.00    -0.393 OA
HETATM   21  H           1     -19.690  -6.554  -5.925  0.00  0.00     0.210 HD
ENDBRANCH  18  20
ENDBRANCH  14  18
ENDBRANCH   1  14
TORSDOF 8
ENDMDL
MODEL 6
REMARK VINA RESULT:      -5.4      9.964     12.078
REMARK  8 active torsions:
REMARK  status: ('A' for Active; 'I' for Inactive)
REMARK    1  A    between atoms: N_2  and  C_18 
REMARK       I    between atoms: N_2  and  C_3 
REMARK    2  A    between atoms: C_3  and  C_4 
REMARK    3  A    between atoms: C_4  and  C_5 
REMARK    4  A    between atoms: C_4  and  N_14 
REMARK    5  A    between atoms: C_5  and  C_9 
REMARK    6  A    between atoms: C_17  and  C_18 
REMARK    7  A    between atoms: C_18  and  C_20 
REMARK    8  A    between atoms: O_19  and  C_20 
ROOT
HETATM    1  N           1     -27.288  -6.994 -18.021  0.00  0.00    -0.343 N 
HETATM    2  C           1     -28.411  -6.365 -18.488  0.00  0.00     0.249 C 
HETATM    3  H           1     -27.351  -7.935 -17.654  0.00  0.00     0.163 HD
HETATM    4  O           1     -28.336  -5.242 -18.927  0.00  0.00    -0.271 OA
ENDROOT
BRANCH   2   5
HETATM    5  C           1     -29.742  -7.075 -18.455  0.00  0.00     0.284 C 
BRANCH   5   6
HETATM    6  C           1     -30.226  -7.184 -17.015  0.00  0.00     0.155 C 
BRANCH   6   7
HETATM    7  C           1     -30.316  -5.805 -16.409  0.00  0.00     0.175 C 
HETATM    8  O           1     -31.073  -4.948 -16.915  0.00  0.00    -0.648 OA
HETATM    9  O           1     -29.634  -5.520 -15.400  0.00  0.00    -0.648 OA
ENDBRANCH   6   7
ENDBRANCH   5   6
BRANCH   5  10
HETATM   10  N           1     -29.589  -8.449 -19.035  0.00  0.00    -0.066 N 
HETATM   11  H           1     -29.677  -8.401 -20.075  0.00  0.00     0.275 HD
HETATM   12  H           1     -28.648  -8.830 -18.783  0.00  0.00     0.275 HD
HETATM   13  H           1     -30.333  -9.075 -18.651  0.00  0.00     0.275 HD
ENDBRANCH   5  10
ENDBRANCH   2   5
BRANCH   1  14
HETATM   14  C           1     -26.009  -6.312 -18.052  0.00  0.00     0.214 C 
BRANCH  14  15
HETATM   15  C           1     -25.221  -6.775 -19.253  0.00  0.00     0.199 C 
HETATM   16  O           1     -24.032  -6.419 -19.396  0.00  0.00    -0.646 OA
HETATM   17  O           1     -25.759  -7.516 -20.105  0.00  0.00    -0.646 OA
ENDBRANCH  14  15
BRANCH  14  18
HETATM   18  C           1     -25.233  -6.631 -16.781  0.00  0.00     0.147 C 
HETATM   19  C           1     -26.210  -6.988 -15.668  0.00  0.00     0.042 C 
BRANCH  18  20
HETATM   20  O           1     -24.376  -7.715 -17.017  0.00  0.00    -0.393 OA
HETATM   21  H           1     -24.892  -8.498 -16.927  0.00  0.00     0.210 HD
ENDBRANCH  18  20
ENDBRANCH  14  18
ENDBRANCH   1  14
TORSDOF 8
ENDMDL
MODEL 7
REMARK VINA RESULT:      -5.3     10.680     12.508
REMARK  8 active torsions:
REMARK  status: ('A' for Active; 'I' for Inactive)
REMARK    1  A    between atoms: N_2  and  C_18 
REMARK       I    between atoms: N_2  and  C_3 
REMARK    2  A    between atoms: C_3  and  C_4 
REMARK    3  A    between atoms: C_4  and  C_5 
REMARK    4  A    between atoms: C_4  and  N_14 
REMARK    5  A    between atoms: C_5  and  C_9 
REMARK    6  A    between atoms: C_17  and  C_18 
REMARK    7  A    between atoms: C_18  and  C_20 
REMARK    8  A    between atoms: O_19  and  C_20 
ROOT
HETATM    1  N           1     -27.046  -7.249 -19.277  0.00  0.00    -0.343 N 
HETATM    2  C           1     -28.090  -6.428 -18.946  0.00  0.00     0.249 C 
HETATM    3  H           1     -27.085  -8.234 -19.046  0.00  0.00     0.163 HD
HETATM    4  O           1     -28.044  -5.252 -19.221  0.00  0.00    -0.271 OA
ENDROOT
BRANCH   2   5
HETATM    5  C           1     -29.298  -6.990 -18.239  0.00  0.00     0.284 C 
BRANCH   5   6
HETATM    6  C           1     -29.013  -7.092 -16.746  0.00  0.00     0.155 C 
BRANCH   6   7
HETATM    7  C           1     -29.652  -5.926 -16.031  0.00  0.00     0.175 C 
HETATM    8  O           1     -29.217  -5.563 -14.917  0.00  0.00    -0.648 OA
HETATM    9  O           1     -30.616  -5.325 -16.553  0.00  0.00    -0.648 OA
ENDBRANCH   6   7
ENDBRANCH   5   6
BRANCH   5  10
HETATM   10  N           1     -29.605  -8.353 -18.782  0.00  0.00    -0.066 N 
HETATM   11  H           1     -29.193  -8.449 -19.738  0.00  0.00     0.275 HD
HETATM   12  H           1     -29.193  -9.079 -18.153  0.00  0.00     0.275 HD
HETATM   13  H           1     -30.641  -8.483 -18.835  0.00  0.00     0.275 HD
ENDBRANCH   5  10
ENDBRANCH   2   5
BRANCH   1  14
HETATM   14  C           1     -25.884  -6.709 -19.956  0.00  0.00     0.214 C 
BRANCH  14  15
HETATM   15  C           1     -25.575  -7.551 -21.169  0.00  0.00     0.199 C 
HETATM   16  O           1     -26.250  -8.574 -21.408  0.00  0.00    -0.646 OA
HETATM   17  O           1     -24.642  -7.224 -21.935  0.00  0.00    -0.646 OA
ENDBRANCH  14  15
BRANCH  14  18
HETATM   18  C           1     -24.692  -6.723 -19.009  0.00  0.00     0.147 C 
HETATM   19  C           1     -25.186  -6.843 -17.573  0.00  0.00     0.042 C 
BRANCH  18  20
HETATM   20  O           1     -23.867  -7.814 -19.313  0.00  0.00    -0.393 OA
HETATM   21  H           1     -23.038  -7.657 -18.895  0.00  0.00     0.210 HD
ENDBRANCH  18  20
ENDBRANCH  14  18
ENDBRANCH   1  14
TORSDOF 8
ENDMDL
MODEL 8
REMARK VINA RESULT:      -5.2     10.271     12.421
REMARK  8 active torsions:
REMARK  status: ('A' for Active; 'I' for Inactive)
REMARK    1  A    between atoms: N_2  and  C_18 
REMARK       I    between atoms: N_2  and  C_3 
REMARK    2  A    between atoms: C_3  and  C_4 
REMARK    3  A    between atoms: C_4  and  C_5 
REMARK    4  A    between atoms: C_4  and  N_14 
REMARK    5  A    between atoms: C_5  and  C_9 
REMARK    6  A    between atoms: C_17  and  C_18 
REMARK    7  A    between atoms: C_18  and  C_20 
REMARK    8  A    between atoms: O_19  and  C_20 
ROOT
HETATM    1  N           1     -28.037  -7.392 -19.059  0.00  0.00    -0.343 N 
HETATM    2  C           1     -28.714  -6.335 -18.514  0.00  0.00     0.249 C 
HETATM    3  H           1     -28.104  -8.309 -18.634  0.00  0.00     0.163 HD
HETATM    4  O           1     -28.635  -5.241 -19.021  0.00  0.00    -0.271 OA
ENDROOT
BRANCH   2   5
HETATM    5  C           1     -29.562  -6.536 -17.282  0.00  0.00     0.284 C 
BRANCH   5   6
HETATM    6  C           1     -28.875  -7.524 -16.347  0.00  0.00     0.155 C 
BRANCH   6   7
HETATM    7  C           1     -27.754  -6.829 -15.615  0.00  0.00     0.175 C 
HETATM    8  O           1     -27.938  -5.696 -15.120  0.00  0.00    -0.648 OA
HETATM    9  O           1     -26.640  -7.386 -15.503  0.00  0.00    -0.648 OA
ENDBRANCH   6   7
ENDBRANCH   5   6
BRANCH   5  10
HETATM   10  N           1     -30.902  -7.075 -17.680  0.00  0.00    -0.066 N 
HETATM   11  H           1     -31.422  -6.351 -18.226  0.00  0.00     0.275 HD
HETATM   12  H           1     -30.773  -7.928 -18.270  0.00  0.00     0.275 HD
HETATM   13  H           1     -31.448  -7.323 -16.823  0.00  0.00     0.275 HD
ENDBRANCH   5  10
ENDBRANCH   2   5
BRANCH   1  14
HETATM   14  C           1     -27.223  -7.199 -20.243  0.00  0.00     0.214 C 
BRANCH  14  15
HETATM   15  C           1     -27.326  -8.416 -21.128  0.00  0.00     0.199 C 
HETATM   16  O           1     -26.339  -8.789 -21.798  0.00  0.00    -0.646 OA
HETATM   17  O           1     -28.400  -9.054 -21.191  0.00  0.00    -0.646 OA
ENDBRANCH  14  15
BRANCH  14  18
HETATM   18  C           1     -25.771  -6.992 -19.831  0.00  0.00     0.147 C 
HETATM   19  C           1     -25.120  -5.976 -20.761  0.00  0.00     0.042 C 
BRANCH  18  20
HETATM   20  O           1     -25.723  -6.518 -18.513  0.00  0.00    -0.393 OA
HETATM   21  H           1     -24.813  -6.433 -18.285  0.00  0.00     0.210 HD
ENDBRANCH  18  20
ENDBRANCH  14  18
ENDBRANCH   1  14
TORSDOF 8
ENDMDL
MODEL 9
REMARK VINA RESULT:      -5.2      1.612      5.910
REMARK  8 active torsions:
REMARK  status: ('A' for Active; 'I' for Inactive)
REMARK    1  A    between atoms: N_2  and  C_18 
REMARK       I    between atoms: N_2  and  C_3 
REMARK    2  A    between atoms: C_3  and  C_4 
REMARK    3  A    between atoms: C_4  and  C_5 
REMARK    4  A    between atoms: C_4  and  N_14 
REMARK    5  A    between atoms: C_5  and  C_9 
REMARK    6  A    between atoms: C_17  and  C_18 
REMARK    7  A    between atoms: C_18  and  C_20 
REMARK    8  A    between atoms: O_19  and  C_20 
ROOT
HETATM    1  N           1     -21.928  -5.376  -7.047  0.00  0.00    -0.343 N 
HETATM    2  C           1     -21.757  -4.084  -7.467  0.00  0.00     0.249 C 
HETATM    3  H           1     -22.522  -6.004  -7.575  0.00  0.00     0.163 HD
HETATM    4  O           1     -21.048  -3.334  -6.839  0.00  0.00    -0.271 OA
ENDROOT
BRANCH   2   5
HETATM    5  C           1     -22.450  -3.598  -8.716  0.00  0.00     0.284 C 
BRANCH   5   6
HETATM    6  C           1     -23.795  -4.300  -8.858  0.00  0.00     0.155 C 
BRANCH   6   7
HETATM    7  C           1     -24.388  -3.984 -10.209  0.00  0.00     0.175 C 
HETATM    8  O           1     -23.984  -4.587 -11.226  0.00  0.00    -0.648 OA
HETATM    9  O           1     -25.284  -3.118 -10.310  0.00  0.00    -0.648 OA
ENDBRANCH   6   7
ENDBRANCH   5   6
BRANCH   5  10
HETATM   10  N           1     -21.599  -3.905  -9.911  0.00  0.00    -0.066 N 
HETATM   11  H           1     -21.677  -4.921 -10.144  0.00  0.00     0.275 HD
HETATM   12  H           1     -21.923  -3.336 -10.726  0.00  0.00     0.275 HD
HETATM   13  H           1     -20.601  -3.673  -9.698  0.00  0.00     0.275 HD
ENDBRANCH   5  10
ENDBRANCH   2   5
BRANCH   1  14
HETATM   14  C           1     -21.262  -5.843  -5.847  0.00  0.00     0.214 C 
BRANCH  14  15
HETATM   15  C           1     -20.176  -6.820  -6.224  0.00  0.00     0.199 C 
HETATM   16  O           1     -20.132  -7.945  -5.681  0.00  0.00    -0.646 OA
HETATM   17  O           1     -19.321  -6.505  -7.079  0.00  0.00    -0.646 OA
ENDBRANCH  14  15
BRANCH  14  18
HETATM   18  C           1     -22.275  -6.532  -4.941  0.00  0.00     0.147 C 
HETATM   19  C           1     -21.880  -6.319  -3.486  0.00  0.00     0.042 C 
BRANCH  18  20
HETATM   20  O           1     -23.547  -5.988  -5.166  0.00  0.00    -0.393 OA
HETATM   21  H           1     -24.096  -6.272  -4.455  0.00  0.00     0.210 HD
ENDBRANCH  18  20
ENDBRANCH  14  18
ENDBRANCH   1  14
TORSDOF 8
ENDMDL
