MODEL 1
REMARK VINA RESULT:      -7.9      0.000      0.000
REMARK  13 active torsions:
REMARK  status: ('A' for Active; 'I' for Inactive)
REMARK    1  A    between atoms: C_2  and  C_4 
REMARK    2  A    between atoms: C_4  and  C_5 
REMARK    3  A    between atoms: C_4  and  N_17 
REMARK    4  A    between atoms: C_5  and  C_6 
REMARK    5  A    between atoms: C_9  and  O_10 
REMARK    6  A    between atoms: O_10  and  P_11 
REMARK    7  A    between atoms: P_11  and  O_13 
REMARK       I    between atoms: N_17  and  C_18 
REMARK    8  A    between atoms: C_18  and  C_19 
REMARK    9  A    between atoms: C_19  and  C_20 
REMARK   10  A    between atoms: C_19  and  N_26 
REMARK   11  A    between atoms: C_20  and  O_21 
REMARK   12  A    between atoms: O_21  and  P_22 
REMARK   13  A    between atoms: P_22  and  O_23 
ROOT
HETATM    1  C           1     -21.630  -5.567  -6.578  0.00  0.00     0.189 C 
ENDROOT
BRANCH   1   2
HETATM    2  C           1     -20.137  -5.597  -6.363  0.00  0.00     0.197 C 
HETATM    3  O           1     -19.478  -6.606  -6.696  0.00  0.00    -0.646 OA
HETATM    4  O           1     -19.558  -4.613  -5.853  0.00  0.00    -0.646 OA
ENDBRANCH   1   2
BRANCH   1   5
HETATM    5  C           1     -22.045  -4.184  -7.063  0.00  0.00     0.074 C 
BRANCH   5   6
HETATM    6  C           1     -22.469  -4.265  -8.497  0.00  0.00    -0.056 A 
HETATM    7  C           1     -21.514  -4.434  -9.498  0.00  0.00     0.010 A 
HETATM    8  C           1     -21.909  -4.508 -10.834  0.00  0.00     0.038 A 
HETATM    9  C           1     -23.261  -4.416 -11.167  0.00  0.00     0.081 A 
HETATM   10  C           1     -24.216  -4.247 -10.166  0.00  0.00     0.038 A 
HETATM   11  C           1     -23.821  -4.172  -8.829  0.00  0.00     0.010 A 
BRANCH   9  12
HETATM   12  O           1     -23.645  -4.488 -12.465  0.00  0.00    -0.247 OA
BRANCH  12  13
HETATM   13  P           1     -23.827  -3.106 -13.280  0.00  0.00     0.411 P 
HETATM   14  O           1     -22.907  -2.084 -12.732  0.00  0.00    -0.624 OA
HETATM   15  O           1     -25.223  -2.635 -13.146  0.00  0.00    -0.624 OA
BRANCH  13  16
HETATM   16  O           1     -23.489  -3.353 -14.839  0.00  0.00    -0.300 OA
HETATM   17  H           1     -23.076  -2.557 -15.129  0.00  0.00     0.223 HD
ENDBRANCH  13  16
ENDBRANCH  12  13
ENDBRANCH   9  12
ENDBRANCH   5   6
ENDBRANCH   1   5
BRANCH   1  18
HETATM   18  N           1     -22.303  -5.861  -5.328  0.00  0.00    -0.344 N 
HETATM   19  C           1     -21.664  -6.590  -4.361  0.00  0.00     0.251 C 
HETATM   20  O           1     -20.999  -6.031  -3.522  0.00  0.00    -0.271 OA
HETATM   21  H           1     -23.245  -5.527  -5.169  0.00  0.00     0.163 HD
BRANCH  19  22
HETATM   22  C           1     -21.789  -8.094  -4.344  0.00  0.00     0.298 C 
BRANCH  22  23
HETATM   23  C           1     -21.153  -8.643  -3.074  0.00  0.00     0.224 C 
BRANCH  23  24
HETATM   24  O           1     -22.159  -8.987  -2.159  0.00  0.00    -0.287 OA
BRANCH  24  25
HETATM   25  P           1     -22.151  -8.177  -0.762  0.00  0.00     0.406 P 
HETATM   26  O           1     -23.062  -8.841   0.197  0.00  0.00    -0.624 OA
HETATM   27  O           1     -20.778  -8.161  -0.208  0.00  0.00    -0.624 OA
BRANCH  25  28
HETATM   28  O           1     -22.647  -6.661  -1.014  0.00  0.00    -0.300 OA
HETATM   29  H           1     -22.226  -6.397  -1.814  0.00  0.00     0.223 HD
ENDBRANCH  25  28
ENDBRANCH  24  25
ENDBRANCH  23  24
ENDBRANCH  22  23
BRANCH  22  30
HETATM   30  N           1     -21.089  -8.667  -5.542  0.00  0.00    -0.064 N 
HETATM   31  H           1     -20.414  -9.401  -5.231  0.00  0.00     0.275 HD
HETATM   32  H           1     -21.794  -9.093  -6.185  0.00  0.00     0.275 HD
HETATM   33  H           1     -20.574  -7.907  -6.040  0.00  0.00     0.275 HD
ENDBRANCH  22  30
ENDBRANCH  19  22
ENDBRANCH   1  18
TORSDOF 13
ENDMDL
MODEL 2
REMARK VINA RESULT:      -7.6      1.818      2.592
REMARK  13 active torsions:
REMARK  status: ('A' for Active; 'I' for Inactive)
REMARK    1  A    between atoms: C_2  and  C_4 
REMARK    2  A    between atoms: C_4  and  C_5 
REMARK    3  A    between atoms: C_4  and  N_17 
REMARK    4  A    between atoms: C_5  and  C_6 
REMARK    5  A    between atoms: C_9  and  O_10 
REMARK    6  A    between atoms: O_10  and  P_11 
REMARK    7  A    between atoms: P_11  and  O_13 
REMARK       I    between atoms: N_17  and  C_18 
REMARK    8  A    between atoms: C_18  and  C_19 
REMARK    9  A    between atoms: C_19  and  C_20 
REMARK   10  A    between atoms: C_19  and  N_26 
REMARK   11  A    between atoms: C_20  and  O_21 
REMARK   12  A    between atoms: O_21  and  P_22 
REMARK   13  A    between atoms: P_22  and  O_23 
ROOT
HETATM    1  C           1     -20.555  -7.437  -5.729  0.00  0.00     0.189 C 
ENDROOT
BRANCH   1   2
HETATM    2  C           1     -19.292  -8.236  -5.519  0.00  0.00     0.197 C 
HETATM    3  O           1     -18.487  -8.391  -6.462  0.00  0.00    -0.646 OA
HETATM    4  O           1     -19.050  -8.740  -4.400  0.00  0.00    -0.646 OA
ENDBRANCH   1   2
BRANCH   1   5
HETATM    5  C           1     -20.234  -5.950  -5.657  0.00  0.00     0.074 C 
BRANCH   5   6
HETATM    6  C           1     -20.717  -5.275  -6.903  0.00  0.00    -0.056 A 
HETATM    7  C           1     -20.027  -5.446  -8.102  0.00  0.00     0.010 A 
HETATM    8  C           1     -20.476  -4.816  -9.262  0.00  0.00     0.038 A 
HETATM    9  C           1     -21.618  -4.016  -9.223  0.00  0.00     0.081 A 
HETATM   10  C           1     -22.309  -3.844  -8.024  0.00  0.00     0.038 A 
HETATM   11  C           1     -21.859  -4.474  -6.863  0.00  0.00     0.010 A 
BRANCH   9  12
HETATM   12  O           1     -22.055  -3.404 -10.350  0.00  0.00    -0.247 OA
BRANCH  12  13
HETATM   13  P           1     -23.372  -3.997 -11.074  0.00  0.00     0.411 P 
HETATM   14  O           1     -24.502  -3.058 -10.893  0.00  0.00    -0.624 OA
HETATM   15  O           1     -23.717  -5.305 -10.473  0.00  0.00    -0.624 OA
BRANCH  13  16
HETATM   16  O           1     -23.078  -4.189 -12.650  0.00  0.00    -0.300 OA
HETATM   17  H           1     -23.929  -4.235 -13.053  0.00  0.00     0.223 HD
ENDBRANCH  13  16
ENDBRANCH  12  13
ENDBRANCH   9  12
ENDBRANCH   5   6
ENDBRANCH   1   5
BRANCH   1  18
HETATM   18  N           1     -21.515  -7.773  -4.695  0.00  0.00    -0.344 N 
HETATM   19  C           1     -22.036  -6.790  -3.899  0.00  0.00     0.251 C 
HETATM   20  O           1     -23.047  -6.216  -4.228  0.00  0.00    -0.271 OA
HETATM   21  H           1     -21.801  -8.735  -4.563  0.00  0.00     0.163 HD
BRANCH  19  22
HETATM   22  C           1     -21.348  -6.420  -2.608  0.00  0.00     0.298 C 
BRANCH  22  23
HETATM   23  C           1     -20.880  -7.685  -1.900  0.00  0.00     0.224 C 
BRANCH  23  24
HETATM   24  O           1     -21.926  -8.618  -1.871  0.00  0.00    -0.287 OA
BRANCH  24  25
HETATM   25  P           1     -22.394  -9.111  -0.406  0.00  0.00     0.406 P 
HETATM   26  O           1     -23.334 -10.245  -0.545  0.00  0.00    -0.624 OA
HETATM   27  O           1     -21.210  -9.543   0.371  0.00  0.00    -0.624 OA
BRANCH  25  28
HETATM   28  O           1     -23.128  -7.895   0.364  0.00  0.00    -0.300 OA
HETATM   29  H           1     -23.108  -8.136   1.274  0.00  0.00     0.223 HD
ENDBRANCH  25  28
ENDBRANCH  24  25
ENDBRANCH  23  24
ENDBRANCH  22  23
BRANCH  22  30
HETATM   30  N           1     -22.308  -5.678  -1.725  0.00  0.00    -0.064 N 
HETATM   31  H           1     -23.273  -6.053  -1.868  0.00  0.00     0.275 HD
HETATM   32  H           1     -22.031  -5.806  -0.725  0.00  0.00     0.275 HD
HETATM   33  H           1     -22.289  -4.662  -1.966  0.00  0.00     0.275 HD
ENDBRANCH  22  30
ENDBRANCH  19  22
ENDBRANCH   1  18
TORSDOF 13
ENDMDL
MODEL 3
REMARK VINA RESULT:      -7.3      1.602      2.340
REMARK  13 active torsions:
REMARK  status: ('A' for Active; 'I' for Inactive)
REMARK    1  A    between atoms: C_2  and  C_4 
REMARK    2  A    between atoms: C_4  and  C_5 
REMARK    3  A    between atoms: C_4  and  N_17 
REMARK    4  A    between atoms: C_5  and  C_6 
REMARK    5  A    between atoms: C_9  and  O_10 
REMARK    6  A    between atoms: O_10  and  P_11 
REMARK    7  A    between atoms: P_11  and  O_13 
REMARK       I    between atoms: N_17  and  C_18 
REMARK    8  A    between atoms: C_18  and  C_19 
REMARK    9  A    between atoms: C_19  and  C_20 
REMARK   10  A    between atoms: C_19  and  N_26 
REMARK   11  A    between atoms: C_20  and  O_21 
REMARK   12  A    between atoms: O_21  and  P_22 
REMARK   13  A    between atoms: P_22  and  O_23 
ROOT
HETATM    1  C           1     -21.793  -6.381  -5.916  0.00  0.00     0.189 C 
ENDROOT
BRANCH   1   2
HETATM    2  C           1     -20.891  -7.588  -5.979  0.00  0.00     0.197 C 
HETATM    3  O           1     -21.385  -8.736  -6.000  0.00  0.00    -0.646 OA
HETATM    4  O           1     -19.649  -7.441  -6.011  0.00  0.00    -0.646 OA
ENDBRANCH   1   2
BRANCH   1   5
HETATM    5  C           1     -20.981  -5.125  -6.207  0.00  0.00     0.074 C 
BRANCH   5   6
HETATM    6  C           1     -21.364  -4.583  -7.549  0.00  0.00    -0.056 A 
HETATM    7  C           1     -22.659  -4.118  -7.771  0.00  0.00     0.010 A 
HETATM    8  C           1     -23.016  -3.614  -9.022  0.00  0.00     0.038 A 
HETATM    9  C           1     -22.075  -3.575 -10.051  0.00  0.00     0.081 A 
HETATM   10  C           1     -20.779  -4.041  -9.830  0.00  0.00     0.038 A 
HETATM   11  C           1     -20.423  -4.545  -8.578  0.00  0.00     0.010 A 
BRANCH   9  12
HETATM   12  O           1     -22.421  -3.086 -11.266  0.00  0.00    -0.247 OA
BRANCH  12  13
HETATM   13  P           1     -23.747  -3.679 -11.972  0.00  0.00     0.411 P 
HETATM   14  O           1     -23.840  -3.170 -13.359  0.00  0.00    -0.624 OA
HETATM   15  O           1     -24.943  -3.255 -11.211  0.00  0.00    -0.624 OA
BRANCH  13  16
HETATM   16  O           1     -23.668  -5.292 -11.995  0.00  0.00    -0.300 OA
HETATM   17  H           1     -23.596  -5.520 -12.907  0.00  0.00     0.223 HD
ENDBRANCH  13  16
ENDBRANCH  12  13
ENDBRANCH   9  12
ENDBRANCH   5   6
ENDBRANCH   1   5
BRANCH   1  18
HETATM   18  N           1     -22.374  -6.282  -4.591  0.00  0.00    -0.344 N 
HETATM   19  C           1     -21.596  -6.490  -3.485  0.00  0.00     0.251 C 
HETATM   20  O           1     -21.017  -5.563  -2.969  0.00  0.00    -0.271 OA
HETATM   21  H           1     -23.356  -6.059  -4.485  0.00  0.00     0.163 HD
BRANCH  19  22
HETATM   22  C           1     -21.460  -7.878  -2.908  0.00  0.00     0.298 C 
BRANCH  22  23
HETATM   23  C           1     -21.818  -7.851  -1.428  0.00  0.00     0.224 C 
BRANCH  23  24
HETATM   24  O           1     -22.344  -9.096  -1.053  0.00  0.00    -0.287 OA
BRANCH  24  25
HETATM   25  P           1     -21.437  -9.971  -0.043  0.00  0.00     0.406 P 
HETATM   26  O           1     -21.058  -9.142   1.123  0.00  0.00    -0.624 OA
HETATM   27  O           1     -22.206 -11.149   0.418  0.00  0.00    -0.624 OA
BRANCH  25  28
HETATM   28  O           1     -20.103 -10.465  -0.807  0.00  0.00    -0.300 OA
HETATM   29  H           1     -19.788 -11.195  -0.302  0.00  0.00     0.223 HD
ENDBRANCH  25  28
ENDBRANCH  24  25
ENDBRANCH  23  24
ENDBRANCH  22  23
BRANCH  22  30
HETATM   30  N           1     -20.044  -8.349  -3.071  0.00  0.00    -0.064 N 
HETATM   31  H           1     -19.730  -8.817  -2.191  0.00  0.00     0.275 HD
HETATM   32  H           1     -19.993  -9.028  -3.863  0.00  0.00     0.275 HD
HETATM   33  H           1     -19.426  -7.531  -3.271  0.00  0.00     0.275 HD
ENDBRANCH  22  30
ENDBRANCH  19  22
ENDBRANCH   1  18
TORSDOF 13
ENDMDL
MODEL 4
REMARK VINA RESULT:      -7.2     13.011     16.297
REMARK  13 active torsions:
REMARK  status: ('A' for Active; 'I' for Inactive)
REMARK    1  A    between atoms: C_2  and  C_4 
REMARK    2  A    between atoms: C_4  and  C_5 
REMARK    3  A    between atoms: C_4  and  N_17 
REMARK    4  A    between atoms: C_5  and  C_6 
REMARK    5  A    between atoms: C_9  and  O_10 
REMARK    6  A    between atoms: O_10  and  P_11 
REMARK    7  A    between atoms: P_11  and  O_13 
REMARK       I    between atoms: N_17  and  C_18 
REMARK    8  A    between atoms: C_18  and  C_19 
REMARK    9  A    between atoms: C_19  and  C_20 
REMARK   10  A    between atoms: C_19  and  N_26 
REMARK   11  A    between atoms: C_20  and  O_21 
REMARK   12  A    between atoms: O_21  and  P_22 
REMARK   13  A    between atoms: P_22  and  O_23 
ROOT
HETATM    1  C           1     -36.522  -0.736 -11.490  0.00  0.00     0.189 C 
ENDROOT
BRANCH   1   2
HETATM    2  C           1     -37.254  -0.201 -10.284  0.00  0.00     0.197 C 
HETATM    3  O           1     -37.039  -0.690  -9.155  0.00  0.00    -0.646 OA
HETATM    4  O           1     -38.075   0.734 -10.415  0.00  0.00    -0.646 OA
ENDBRANCH   1   2
BRANCH   1   5
HETATM    5  C           1     -35.028  -0.792 -11.194  0.00  0.00     0.074 C 
BRANCH   5   6
HETATM    6  C           1     -34.586  -2.221 -11.128  0.00  0.00    -0.056 A 
HETATM    7  C           1     -35.529  -3.237 -10.983  0.00  0.00     0.010 A 
HETATM    8  C           1     -35.117  -4.569 -10.920  0.00  0.00     0.038 A 
HETATM    9  C           1     -33.761  -4.883 -11.004  0.00  0.00     0.081 A 
HETATM   10  C           1     -32.817  -3.867 -11.148  0.00  0.00     0.038 A 
HETATM   11  C           1     -33.230  -2.535 -11.210  0.00  0.00     0.010 A 
BRANCH   9  12
HETATM   12  O           1     -33.360  -6.176 -10.943  0.00  0.00    -0.247 OA
BRANCH  12  13
HETATM   13  P           1     -34.466  -7.296 -10.581  0.00  0.00     0.411 P 
HETATM   14  O           1     -35.341  -6.794  -9.498  0.00  0.00    -0.624 OA
HETATM   15  O           1     -33.787  -8.532 -10.133  0.00  0.00    -0.624 OA
BRANCH  13  16
HETATM   16  O           1     -35.357  -7.614 -11.889  0.00  0.00    -0.300 OA
HETATM   17  H           1     -35.978  -6.906 -11.940  0.00  0.00     0.223 HD
ENDBRANCH  13  16
ENDBRANCH  12  13
ENDBRANCH   9  12
ENDBRANCH   5   6
ENDBRANCH   1   5
BRANCH   1  18
HETATM   18  N           1     -36.756   0.137 -12.623  0.00  0.00    -0.344 N 
HETATM   19  C           1     -36.919  -0.394 -13.874  0.00  0.00     0.251 C 
HETATM   20  O           1     -38.021  -0.696 -14.265  0.00  0.00    -0.271 OA
HETATM   21  H           1     -36.800   1.139 -12.489  0.00  0.00     0.163 HD
BRANCH  19  22
HETATM   22  C           1     -35.720  -0.602 -14.767  0.00  0.00     0.298 C 
BRANCH  22  23
HETATM   23  C           1     -35.147  -1.994 -14.533  0.00  0.00     0.224 C 
BRANCH  23  24
HETATM   24  O           1     -34.844  -2.588 -15.767  0.00  0.00    -0.287 OA
BRANCH  24  25
HETATM   25  P           1     -34.012  -3.970 -15.700  0.00  0.00     0.406 P 
HETATM   26  O           1     -32.989  -3.981 -16.770  0.00  0.00    -0.624 OA
HETATM   27  O           1     -33.348  -4.085 -14.382  0.00  0.00    -0.624 OA
BRANCH  25  28
HETATM   28  O           1     -35.018  -5.217 -15.906  0.00  0.00    -0.300 OA
HETATM   29  H           1     -35.731  -5.056 -15.311  0.00  0.00     0.223 HD
ENDBRANCH  25  28
ENDBRANCH  24  25
ENDBRANCH  23  24
ENDBRANCH  22  23
BRANCH  22  30
HETATM   30  N           1     -34.676   0.428 -14.450  0.00  0.00    -0.064 N 
HETATM   31  H           1     -34.809   1.259 -15.069  0.00  0.00     0.275 HD
HETATM   32  H           1     -34.768   0.720 -13.451  0.00  0.00     0.275 HD
HETATM   33  H           1     -33.726   0.022 -14.609  0.00  0.00     0.275 HD
ENDBRANCH  22  30
ENDBRANCH  19  22
ENDBRANCH   1  18
TORSDOF 13
ENDMDL
MODEL 5
REMARK VINA RESULT:      -7.0      2.166      3.268
REMARK  13 active torsions:
REMARK  status: ('A' for Active; 'I' for Inactive)
REMARK    1  A    between atoms: C_2  and  C_4 
REMARK    2  A    between atoms: C_4  and  C_5 
REMARK    3  A    between atoms: C_4  and  N_17 
REMARK    4  A    between atoms: C_5  and  C_6 
REMARK    5  A    between atoms: C_9  and  O_10 
REMARK    6  A    between atoms: O_10  and  P_11 
REMARK    7  A    between atoms: P_11  and  O_13 
REMARK       I    between atoms: N_17  and  C_18 
REMARK    8  A    between atoms: C_18  and  C_19 
REMARK    9  A    between atoms: C_19  and  C_20 
REMARK   10  A    between atoms: C_19  and  N_26 
REMARK   11  A    between atoms: C_20  and  O_21 
REMARK   12  A    between atoms: O_21  and  P_22 
REMARK   13  A    between atoms: P_22  and  O_23 
ROOT
HETATM    1  C           1     -21.278  -7.930  -5.529  0.00  0.00     0.189 C 
ENDROOT
BRANCH   1   2
HETATM    2  C           1     -20.365  -9.125  -5.655  0.00  0.00     0.197 C 
HETATM    3  O           1     -20.849 -10.268  -5.801  0.00  0.00    -0.646 OA
HETATM    4  O           1     -19.125  -8.972  -5.616  0.00  0.00    -0.646 OA
ENDBRANCH   1   2
BRANCH   1   5
HETATM    5  C           1     -20.459  -6.651  -5.649  0.00  0.00     0.074 C 
BRANCH   5   6
HETATM    6  C           1     -21.082  -5.756  -6.675  0.00  0.00    -0.056 A 
HETATM    7  C           1     -22.345  -5.209  -6.450  0.00  0.00     0.010 A 
HETATM    8  C           1     -22.925  -4.376  -7.407  0.00  0.00     0.038 A 
HETATM    9  C           1     -22.241  -4.087  -8.587  0.00  0.00     0.081 A 
HETATM   10  C           1     -20.978  -4.634  -8.813  0.00  0.00     0.038 A 
HETATM   11  C           1     -20.398  -5.468  -7.856  0.00  0.00     0.010 A 
BRANCH   9  12
HETATM   12  O           1     -22.804  -3.278  -9.516  0.00  0.00    -0.247 OA
BRANCH  12  13
HETATM   13  P           1     -24.043  -3.857 -10.375  0.00  0.00     0.411 P 
HETATM   14  O           1     -23.857  -5.309 -10.595  0.00  0.00    -0.624 OA
HETATM   15  O           1     -24.104  -3.165 -11.682  0.00  0.00    -0.624 OA
BRANCH  13  16
HETATM   16  O           1     -25.420  -3.607  -9.568  0.00  0.00    -0.300 OA
HETATM   17  H           1     -26.101  -3.695 -10.214  0.00  0.00     0.223 HD
ENDBRANCH  13  16
ENDBRANCH  12  13
ENDBRANCH   9  12
ENDBRANCH   5   6
ENDBRANCH   1   5
BRANCH   1  18
HETATM   18  N           1     -21.936  -7.961  -4.238  0.00  0.00    -0.344 N 
HETATM   19  C           1     -21.210  -7.767  -3.094  0.00  0.00     0.251 C 
HETATM   20  O           1     -21.062  -6.652  -2.653  0.00  0.00    -0.271 OA
HETATM   21  H           1     -22.933  -8.125  -4.182  0.00  0.00     0.163 HD
BRANCH  19  22
HETATM   22  C           1     -20.593  -8.947  -2.383  0.00  0.00     0.298 C 
BRANCH  22  23
HETATM   23  C           1     -21.027  -8.945  -0.923  0.00  0.00     0.224 C 
BRANCH  23  24
HETATM   24  O           1     -22.418  -9.103  -0.850  0.00  0.00    -0.287 OA
BRANCH  24  25
HETATM   25  P           1     -22.955 -10.626  -0.807  0.00  0.00     0.406 P 
HETATM   26  O           1     -23.264 -11.078  -2.182  0.00  0.00    -0.624 OA
HETATM   27  O           1     -21.914 -11.501  -0.222  0.00  0.00    -0.624 OA
BRANCH  25  28
HETATM   28  O           1     -24.292 -10.702   0.096  0.00  0.00    -0.300 OA
HETATM   29  H           1     -24.002 -10.530   0.976  0.00  0.00     0.223 HD
ENDBRANCH  25  28
ENDBRANCH  24  25
ENDBRANCH  23  24
ENDBRANCH  22  23
BRANCH  22  30
HETATM   30  N           1     -19.097  -8.848  -2.459  0.00  0.00    -0.064 N 
HETATM   31  H           1     -18.692  -9.802  -2.596  0.00  0.00     0.275 HD
HETATM   32  H           1     -18.829  -8.239  -3.264  0.00  0.00     0.275 HD
HETATM   33  H           1     -18.729  -8.437  -1.572  0.00  0.00     0.275 HD
ENDBRANCH  22  30
ENDBRANCH  19  22
ENDBRANCH   1  18
TORSDOF 13
ENDMDL
MODEL 6
REMARK VINA RESULT:      -6.9     13.079     16.745
REMARK  13 active torsions:
REMARK  status: ('A' for Active; 'I' for Inactive)
REMARK    1  A    between atoms: C_2  and  C_4 
REMARK    2  A    between atoms: C_4  and  C_5 
REMARK    3  A    between atoms: C_4  and  N_17 
REMARK    4  A    between atoms: C_5  and  C_6 
REMARK    5  A    between atoms: C_9  and  O_10 
REMARK    6  A    between atoms: O_10  and  P_11 
REMARK    7  A    between atoms: P_11  and  O_13 
REMARK       I    between atoms: N_17  and  C_18 
REMARK    8  A    between atoms: C_18  and  C_19 
REMARK    9  A    between atoms: C_19  and  C_20 
REMARK   10  A    between atoms: C_19  and  N_26 
REMARK   11  A    between atoms: C_20  and  O_21 
REMARK   12  A    between atoms: O_21  and  P_22 
REMARK   13  A    between atoms: P_22  and  O_23 
ROOT
HETATM    1  C           1     -36.334  -0.587  -9.778  0.00  0.00     0.189 C 
ENDROOT
BRANCH   1   2
HETATM    2  C           1     -36.744   0.010  -8.454  0.00  0.00     0.197 C 
HETATM    3  O           1     -37.851  -0.283  -7.952  0.00  0.00    -0.646 OA
HETATM    4  O           1     -35.977   0.798  -7.859  0.00  0.00    -0.646 OA
ENDBRANCH   1   2
BRANCH   1   5
HETATM    5  C           1     -34.891  -1.069  -9.693  0.00  0.00     0.074 C 
BRANCH   5   6
HETATM    6  C           1     -34.804  -2.474 -10.201  0.00  0.00    -0.056 A 
HETATM    7  C           1     -33.561  -3.038 -10.483  0.00  0.00     0.010 A 
HETATM    8  C           1     -33.479  -4.348 -10.958  0.00  0.00     0.038 A 
HETATM    9  C           1     -34.643  -5.093 -11.149  0.00  0.00     0.081 A 
HETATM   10  C           1     -35.887  -4.529 -10.868  0.00  0.00     0.038 A 
HETATM   11  C           1     -35.968  -3.219 -10.393  0.00  0.00     0.010 A 
BRANCH   9  12
HETATM   12  O           1     -34.564  -6.365 -11.610  0.00  0.00    -0.247 OA
BRANCH  12  13
HETATM   13  P           1     -34.298  -7.544 -10.539  0.00  0.00     0.411 P 
HETATM   14  O           1     -34.944  -7.200  -9.253  0.00  0.00    -0.624 OA
HETATM   15  O           1     -32.841  -7.703 -10.332  0.00  0.00    -0.624 OA
BRANCH  13  16
HETATM   16  O           1     -34.917  -8.927 -11.099  0.00  0.00    -0.300 OA
HETATM   17  H           1     -35.646  -9.115 -10.532  0.00  0.00     0.223 HD
ENDBRANCH  13  16
ENDBRANCH  12  13
ENDBRANCH   9  12
ENDBRANCH   5   6
ENDBRANCH   1   5
BRANCH   1  18
HETATM   18  N           1     -36.446   0.419 -10.816  0.00  0.00    -0.344 N 
HETATM   19  C           1     -36.458   0.046 -12.133  0.00  0.00     0.251 C 
HETATM   20  O           1     -37.506  -0.203 -12.682  0.00  0.00    -0.271 OA
HETATM   21  H           1     -36.516   1.398 -10.567  0.00  0.00     0.163 HD
BRANCH  19  22
HETATM   22  C           1     -35.163  -0.057 -12.900  0.00  0.00     0.298 C 
BRANCH  22  23
HETATM   23  C           1     -35.224   0.846 -14.125  0.00  0.00     0.224 C 
BRANCH  23  24
HETATM   24  O           1     -35.208   0.059 -15.286  0.00  0.00    -0.287 OA
BRANCH  24  25
HETATM   25  P           1     -36.611  -0.064 -16.076  0.00  0.00     0.406 P 
HETATM   26  O           1     -37.195   1.284 -16.257  0.00  0.00    -0.624 OA
HETATM   27  O           1     -36.379  -0.683 -17.401  0.00  0.00    -0.624 OA
BRANCH  25  28
HETATM   28  O           1     -37.631  -0.983 -15.225  0.00  0.00    -0.300 OA
HETATM   29  H           1     -38.360  -1.136 -15.801  0.00  0.00     0.223 HD
ENDBRANCH  25  28
ENDBRANCH  24  25
ENDBRANCH  23  24
ENDBRANCH  22  23
BRANCH  22  30
HETATM   30  N           1     -34.952  -1.477 -13.336  0.00  0.00    -0.064 N 
HETATM   31  H           1     -34.323  -1.960 -12.655  0.00  0.00     0.275 HD
HETATM   32  H           1     -35.872  -1.971 -13.369  0.00  0.00     0.275 HD
HETATM   33  H           1     -34.514  -1.489 -14.284  0.00  0.00     0.275 HD
ENDBRANCH  22  30
ENDBRANCH  19  22
ENDBRANCH   1  18
TORSDOF 13
ENDMDL
MODEL 7
REMARK VINA RESULT:      -6.8      1.954      9.753
REMARK  13 active torsions:
REMARK  status: ('A' for Active; 'I' for Inactive)
REMARK    1  A    between atoms: C_2  and  C_4 
REMARK    2  A    between atoms: C_4  and  C_5 
REMARK    3  A    between atoms: C_4  and  N_17 
REMARK    4  A    between atoms: C_5  and  C_6 
REMARK    5  A    between atoms: C_9  and  O_10 
REMARK    6  A    between atoms: O_10  and  P_11 
REMARK    7  A    between atoms: P_11  and  O_13 
REMARK       I    between atoms: N_17  and  C_18 
REMARK    8  A    between atoms: C_18  and  C_19 
REMARK    9  A    between atoms: C_19  and  C_20 
REMARK   10  A    between atoms: C_19  and  N_26 
REMARK   11  A    between atoms: C_20  and  O_21 
REMARK   12  A    between atoms: O_21  and  P_22 
REMARK   13  A    between atoms: P_22  and  O_23 
ROOT
HETATM    1  C           1     -21.077  -7.074  -5.965  0.00  0.00     0.189 C 
ENDROOT
BRANCH   1   2
HETATM    2  C           1     -21.763  -6.198  -4.947  0.00  0.00     0.197 C 
HETATM    3  O           1     -23.006  -6.068  -4.971  0.00  0.00    -0.646 OA
HETATM    4  O           1     -21.089  -5.603  -4.078  0.00  0.00    -0.646 OA
ENDBRANCH   1   2
BRANCH   1   5
HETATM    5  C           1     -19.889  -7.772  -5.316  0.00  0.00     0.074 C 
BRANCH   5   6
HETATM    6  C           1     -20.383  -8.773  -4.318  0.00  0.00    -0.056 A 
HETATM    7  C           1     -19.750  -8.897  -3.082  0.00  0.00     0.010 A 
HETATM    8  C           1     -20.210  -9.830  -2.152  0.00  0.00     0.038 A 
HETATM    9  C           1     -21.305 -10.638  -2.459  0.00  0.00     0.081 A 
HETATM   10  C           1     -21.939 -10.514  -3.696  0.00  0.00     0.038 A 
HETATM   11  C           1     -21.477  -9.581  -4.626  0.00  0.00     0.010 A 
BRANCH   9  12
HETATM   12  O           1     -21.752 -11.544  -1.557  0.00  0.00    -0.247 OA
BRANCH  12  13
HETATM   13  P           1     -22.421 -10.991  -0.195  0.00  0.00     0.411 P 
HETATM   14  O           1     -23.381 -11.990   0.326  0.00  0.00    -0.624 OA
HETATM   15  O           1     -23.132  -9.723  -0.474  0.00  0.00    -0.624 OA
BRANCH  13  16
HETATM   16  O           1     -21.266 -10.731   0.904  0.00  0.00    -0.300 OA
HETATM   17  H           1     -20.737 -11.511   0.890  0.00  0.00     0.223 HD
ENDBRANCH  13  16
ENDBRANCH  12  13
ENDBRANCH   9  12
ENDBRANCH   5   6
ENDBRANCH   1   5
BRANCH   1  18
HETATM   18  N           1     -20.611  -6.257  -7.069  0.00  0.00    -0.344 N 
HETATM   19  C           1     -21.180  -5.034  -7.302  0.00  0.00     0.251 C 
HETATM   20  O           1     -20.728  -4.045  -6.775  0.00  0.00    -0.271 OA
HETATM   21  H           1     -19.865  -6.590  -7.665  0.00  0.00     0.163 HD
BRANCH  19  22
HETATM   22  C           1     -22.374  -4.920  -8.219  0.00  0.00     0.298 C 
BRANCH  22  23
HETATM   23  C           1     -22.008  -4.069  -9.428  0.00  0.00     0.224 C 
BRANCH  23  24
HETATM   24  O           1     -23.131  -3.340  -9.843  0.00  0.00    -0.287 OA
BRANCH  24  25
HETATM   25  P           1     -23.590  -3.561 -11.376  0.00  0.00     0.406 P 
HETATM   26  O           1     -22.694  -2.796 -12.273  0.00  0.00    -0.624 OA
HETATM   27  O           1     -23.513  -5.000 -11.712  0.00  0.00    -0.624 OA
BRANCH  25  28
HETATM   28  O           1     -25.108  -3.044 -11.565  0.00  0.00    -0.300 OA
HETATM   29  H           1     -25.410  -3.457 -12.356  0.00  0.00     0.223 HD
ENDBRANCH  25  28
ENDBRANCH  24  25
ENDBRANCH  23  24
ENDBRANCH  22  23
BRANCH  22  30
HETATM   30  N           1     -23.510  -4.276  -7.480  0.00  0.00    -0.064 N 
HETATM   31  H           1     -23.318  -3.255  -7.368  0.00  0.00     0.275 HD
HETATM   32  H           1     -24.395  -4.405  -8.021  0.00  0.00     0.275 HD
HETATM   33  H           1     -23.608  -4.718  -6.538  0.00  0.00     0.275 HD
ENDBRANCH  22  30
ENDBRANCH  19  22
ENDBRANCH   1  18
TORSDOF 13
ENDMDL
MODEL 8
REMARK VINA RESULT:      -6.8      2.705      3.967
REMARK  13 active torsions:
REMARK  status: ('A' for Active; 'I' for Inactive)
REMARK    1  A    between atoms: C_2  and  C_4 
REMARK    2  A    between atoms: C_4  and  C_5 
REMARK    3  A    between atoms: C_4  and  N_17 
REMARK    4  A    between atoms: C_5  and  C_6 
REMARK    5  A    between atoms: C_9  and  O_10 
REMARK    6  A    between atoms: O_10  and  P_11 
REMARK    7  A    between atoms: P_11  and  O_13 
REMARK       I    between atoms: N_17  and  C_18 
REMARK    8  A    between atoms: C_18  and  C_19 
REMARK    9  A    between atoms: C_19  and  C_20 
REMARK   10  A    between atoms: C_19  and  N_26 
REMARK   11  A    between atoms: C_20  and  O_21 
REMARK   12  A    between atoms: O_21  and  P_22 
REMARK   13  A    between atoms: P_22  and  O_23 
ROOT
HETATM    1  C           1     -20.919  -7.314  -3.751  0.00  0.00     0.189 C 
ENDROOT
BRANCH   1   2
HETATM    2  C           1     -21.557  -6.812  -2.479  0.00  0.00     0.197 C 
HETATM    3  O           1     -21.271  -7.343  -1.385  0.00  0.00    -0.646 OA
HETATM    4  O           1     -22.370  -5.863  -2.520  0.00  0.00    -0.646 OA
ENDBRANCH   1   2
BRANCH   1   5
HETATM    5  C           1     -21.952  -7.317  -4.871  0.00  0.00     0.074 C 
BRANCH   5   6
HETATM    6  C           1     -21.540  -6.345  -5.932  0.00  0.00    -0.056 A 
HETATM    7  C           1     -20.261  -6.414  -6.484  0.00  0.00     0.010 A 
HETATM    8  C           1     -19.877  -5.508  -7.472  0.00  0.00     0.038 A 
HETATM    9  C           1     -20.774  -4.533  -7.910  0.00  0.00     0.081 A 
HETATM   10  C           1     -22.053  -4.463  -7.359  0.00  0.00     0.038 A 
HETATM   11  C           1     -22.436  -5.370  -6.369  0.00  0.00     0.010 A 
BRANCH   9  12
HETATM   12  O           1     -20.401  -3.653  -8.870  0.00  0.00    -0.247 OA
BRANCH  12  13
HETATM   13  P           1     -20.630  -4.071 -10.413  0.00  0.00     0.411 P 
HETATM   14  O           1     -21.998  -4.608 -10.582  0.00  0.00    -0.624 OA
HETATM   15  O           1     -19.643  -5.106 -10.795  0.00  0.00    -0.624 OA
BRANCH  13  16
HETATM   16  O           1     -20.441  -2.773 -11.355  0.00  0.00    -0.300 OA
HETATM   17  H           1     -21.131  -2.832 -11.994  0.00  0.00     0.223 HD
ENDBRANCH  13  16
ENDBRANCH  12  13
ENDBRANCH   9  12
ENDBRANCH   5   6
ENDBRANCH   1   5
BRANCH   1  18
HETATM   18  N           1     -20.428  -8.663  -3.544  0.00  0.00    -0.344 N 
HETATM   19  C           1     -20.062  -9.430  -4.617  0.00  0.00     0.251 C 
HETATM   20  O           1     -18.923  -9.402  -5.020  0.00  0.00    -0.271 OA
HETATM   21  H           1     -20.356  -9.036  -2.606  0.00  0.00     0.163 HD
BRANCH  19  22
HETATM   22  C           1     -21.080 -10.312  -5.297  0.00  0.00     0.298 C 
BRANCH  22  23
HETATM   23  C           1     -21.620 -11.329  -4.300  0.00  0.00     0.224 C 
BRANCH  23  24
HETATM   24  O           1     -22.599 -10.725  -3.500  0.00  0.00    -0.287 OA
BRANCH  24  25
HETATM   25  P           1     -22.617 -11.170  -1.947  0.00  0.00     0.406 P 
HETATM   26  O           1     -24.010 -11.156  -1.447  0.00  0.00    -0.624 OA
HETATM   27  O           1     -22.060 -12.536  -1.819  0.00  0.00    -0.624 OA
BRANCH  25  28
HETATM   28  O           1     -21.724 -10.141  -1.081  0.00  0.00    -0.300 OA
HETATM   29  H           1     -21.722  -9.341  -1.578  0.00  0.00     0.223 HD
ENDBRANCH  25  28
ENDBRANCH  24  25
ENDBRANCH  23  24
ENDBRANCH  22  23
BRANCH  22  30
HETATM   30  N           1     -20.431 -11.030  -6.444  0.00  0.00    -0.064 N 
HETATM   31  H           1     -20.497 -12.062  -6.289  0.00  0.00     0.275 HD
HETATM   32  H           1     -20.921 -10.781  -7.332  0.00  0.00     0.275 HD
HETATM   33  H           1     -19.427 -10.750  -6.507  0.00  0.00     0.275 HD
ENDBRANCH  22  30
ENDBRANCH  19  22
ENDBRANCH   1  18
TORSDOF 13
ENDMDL
MODEL 9
REMARK VINA RESULT:      -6.7      3.908      8.620
REMARK  13 active torsions:
REMARK  status: ('A' for Active; 'I' for Inactive)
REMARK    1  A    between atoms: C_2  and  C_4 
REMARK    2  A    between atoms: C_4  and  C_5 
REMARK    3  A    between atoms: C_4  and  N_17 
REMARK    4  A    between atoms: C_5  and  C_6 
REMARK    5  A    between atoms: C_9  and  O_10 
REMARK    6  A    between atoms: O_10  and  P_11 
REMARK    7  A    between atoms: P_11  and  O_13 
REMARK       I    between atoms: N_17  and  C_18 
REMARK    8  A    between atoms: C_18  and  C_19 
REMARK    9  A    between atoms: C_19  and  C_20 
REMARK   10  A    between atoms: C_19  and  N_26 
REMARK   11  A    between atoms: C_20  and  O_21 
REMARK   12  A    between atoms: O_21  and  P_22 
REMARK   13  A    between atoms: P_22  and  O_23 
ROOT
HETATM    1  C           1     -21.448  -8.196  -2.235  0.00  0.00     0.189 C 
ENDROOT
BRANCH   1   2
HETATM    2  C           1     -22.270  -8.053  -0.979  0.00  0.00     0.197 C 
HETATM    3  O           1     -22.502  -9.054  -0.267  0.00  0.00    -0.646 OA
HETATM    4  O           1     -22.719  -6.933  -0.649  0.00  0.00    -0.646 OA
ENDBRANCH   1   2
BRANCH   1   5
HETATM    5  C           1     -20.130  -8.886  -1.904  0.00  0.00     0.074 C 
BRANCH   5   6
HETATM    6  C           1     -19.590  -9.545  -3.135  0.00  0.00    -0.056 A 
HETATM    7  C           1     -20.346 -10.508  -3.800  0.00  0.00     0.010 A 
HETATM    8  C           1     -19.842 -11.123  -4.946  0.00  0.00     0.038 A 
HETATM    9  C           1     -18.581 -10.772  -5.428  0.00  0.00     0.081 A 
HETATM   10  C           1     -17.823  -9.808  -4.763  0.00  0.00     0.038 A 
HETATM   11  C           1     -18.328  -9.194  -3.616  0.00  0.00     0.010 A 
BRANCH   9  12
HETATM   12  O           1     -18.091 -11.369  -6.541  0.00  0.00    -0.247 OA
BRANCH  12  13
HETATM   13  P           1     -16.878 -12.420  -6.366  0.00  0.00     0.411 P 
HETATM   14  O           1     -15.586 -11.718  -6.532  0.00  0.00    -0.624 OA
HETATM   15  O           1     -16.995 -13.484  -7.388  0.00  0.00    -0.624 OA
BRANCH  13  16
HETATM   16  O           1     -16.947 -13.079  -4.893  0.00  0.00    -0.300 OA
HETATM   17  H           1     -17.848 -12.995  -4.630  0.00  0.00     0.223 HD
ENDBRANCH  13  16
ENDBRANCH  12  13
ENDBRANCH   9  12
ENDBRANCH   5   6
ENDBRANCH   1   5
BRANCH   1  18
HETATM   18  N           1     -21.178  -6.882  -2.786  0.00  0.00    -0.344 N 
HETATM   19  C           1     -21.569  -6.582  -4.064  0.00  0.00     0.251 C 
HETATM   20  O           1     -22.662  -6.111  -4.267  0.00  0.00    -0.271 OA
HETATM   21  H           1     -20.702  -6.186  -2.227  0.00  0.00     0.163 HD
BRANCH  19  22
HETATM   22  C           1     -20.633  -6.841  -5.219  0.00  0.00     0.298 C 
BRANCH  22  23
HETATM   23  C           1     -20.462  -5.565  -6.032  0.00  0.00     0.224 C 
BRANCH  23  24
HETATM   24  O           1     -21.198  -5.667  -7.221  0.00  0.00    -0.287 OA
BRANCH  24  25
HETATM   25  P           1     -22.145  -4.408  -7.577  0.00  0.00     0.406 P 
HETATM   26  O           1     -21.452  -3.152  -7.211  0.00  0.00    -0.624 OA
HETATM   27  O           1     -22.440  -4.405  -9.027  0.00  0.00    -0.624 OA
BRANCH  25  28
HETATM   28  O           1     -23.526  -4.520  -6.747  0.00  0.00    -0.300 OA
HETATM   29  H           1     -24.199  -4.588  -7.402  0.00  0.00     0.223 HD
ENDBRANCH  25  28
ENDBRANCH  24  25
ENDBRANCH  23  24
ENDBRANCH  22  23
BRANCH  22  30
HETATM   30  N           1     -21.207  -7.918  -6.094  0.00  0.00    -0.064 N 
HETATM   31  H           1     -20.591  -8.761  -6.056  0.00  0.00     0.275 HD
HETATM   32  H           1     -22.162  -8.170  -5.754  0.00  0.00     0.275 HD
HETATM   33  H           1     -21.265  -7.573  -7.078  0.00  0.00     0.275 HD
ENDBRANCH  22  30
ENDBRANCH  19  22
ENDBRANCH   1  18
TORSDOF 13
ENDMDL
