MODEL 1
REMARK VINA RESULT:      -8.6      0.000      0.000
REMARK  9 active torsions:
REMARK  status: ('A' for Active; 'I' for Inactive)
REMARK       I    between atoms: C_2  and  N_10 
REMARK    1  A    between atoms: C_2  and  C_26 
REMARK    2  A    between atoms: C_8  and  C_11 
REMARK    3  A    between atoms: C_8  and  C_13 
REMARK    4  A    between atoms: N_10  and  C_13 
REMARK    5  A    between atoms: C_13  and  C_14 
REMARK    6  A    between atoms: O_19  and  C_20 
REMARK    7  A    between atoms: N_24  and  C_26 
REMARK    8  A    between atoms: C_26  and  C_27 
REMARK    9  A    between atoms: C_27  and  C_28 
ROOT
HETATM    1  C           1     -20.618  -7.615  -5.836  0.00  0.00     0.249 C 
HETATM    2  N           1     -21.412  -6.555  -6.182  0.00  0.00    -0.344 N 
HETATM    3  O           1     -19.493  -7.693  -6.268  0.00  0.00    -0.271 OA
HETATM    4  H           1     -22.354  -6.490  -5.820  0.00  0.00     0.163 HD
ENDROOT
BRANCH   2   5
HETATM    5  C           1     -20.904  -5.527  -7.068  0.00  0.00     0.189 C 
BRANCH   5   6
HETATM    6  C           1     -22.042  -4.603  -7.479  0.00  0.00     0.074 C 
BRANCH   6   7
HETATM    7  C           1     -21.975  -4.353  -8.954  0.00  0.00    -0.056 A 
HETATM    8  C           1     -23.139  -4.062  -9.665  0.00  0.00     0.010 A 
HETATM    9  C           1     -23.077  -3.830 -11.039  0.00  0.00     0.037 A 
HETATM   10  C           1     -21.851  -3.888 -11.702  0.00  0.00     0.065 A 
HETATM   11  C           1     -20.688  -4.179 -10.990  0.00  0.00     0.037 A 
HETATM   12  C           1     -20.749  -4.412  -9.616  0.00  0.00     0.010 A 
BRANCH  10  13
HETATM   13  O           1     -21.791  -3.663 -13.037  0.00  0.00    -0.361 OA
HETATM   14  H           1     -20.928  -3.976 -13.355  0.00  0.00     0.217 HD
ENDBRANCH  10  13
ENDBRANCH   6   7
ENDBRANCH   5   6
BRANCH   5  15
HETATM   15  C           1     -19.841  -4.729  -6.354  0.00  0.00     0.197 C 
HETATM   16  O           1     -18.772  -4.447  -6.938  0.00  0.00    -0.646 OA
HETATM   17  O           1     -20.028  -4.352  -5.177  0.00  0.00    -0.646 OA
ENDBRANCH   5  15
ENDBRANCH   2   5
BRANCH   1  18
HETATM   18  C           1     -21.147  -8.686  -4.913  0.00  0.00     0.278 C 
BRANCH  18  19
HETATM   19  N           1     -21.086 -10.015  -5.605  0.00  0.00    -0.066 N 
HETATM   20  H           1     -21.018 -10.777  -4.891  0.00  0.00     0.275 HD
HETATM   21  H           1     -20.248 -10.046  -6.228  0.00  0.00     0.275 HD
HETATM   22  H           1     -21.950 -10.151  -6.176  0.00  0.00     0.275 HD
ENDBRANCH  18  19
BRANCH  18  23
HETATM   23  C           1     -20.299  -8.733  -3.649  0.00  0.00     0.081 C 
BRANCH  23  24
HETATM   24  C           1     -21.121  -8.289  -2.480  0.00  0.00    -0.056 A 
HETATM   25  C           1     -21.517  -9.215  -1.514  0.00  0.00     0.007 A 
HETATM   26  C           1     -22.283  -8.800  -0.424  0.00  0.00     0.001 A 
HETATM   27  C           1     -22.654  -7.461  -0.300  0.00  0.00     0.000 A 
HETATM   28  C           1     -22.257  -6.536  -1.266  0.00  0.00     0.001 A 
HETATM   29  C           1     -21.491  -6.949  -2.355  0.00  0.00     0.007 A 
ENDBRANCH  23  24
ENDBRANCH  18  23
ENDBRANCH   1  18
TORSDOF 9
ENDMDL
MODEL 2
REMARK VINA RESULT:      -8.3      2.129      8.341
REMARK  9 active torsions:
REMARK  status: ('A' for Active; 'I' for Inactive)
REMARK       I    between atoms: C_2  and  N_10 
REMARK    1  A    between atoms: C_2  and  C_26 
REMARK    2  A    between atoms: C_8  and  C_11 
REMARK    3  A    between atoms: C_8  and  C_13 
REMARK    4  A    between atoms: N_10  and  C_13 
REMARK    5  A    between atoms: C_13  and  C_14 
REMARK    6  A    between atoms: O_19  and  C_20 
REMARK    7  A    between atoms: N_24  and  C_26 
REMARK    8  A    between atoms: C_26  and  C_27 
REMARK    9  A    between atoms: C_27  and  C_28 
ROOT
HETATM    1  C           1     -21.406  -5.997  -5.596  0.00  0.00     0.249 C 
HETATM    2  N           1     -21.351  -7.360  -5.490  0.00  0.00    -0.344 N 
HETATM    3  O           1     -20.855  -5.304  -4.773  0.00  0.00    -0.271 OA
HETATM    4  H           1     -21.813  -7.940  -6.179  0.00  0.00     0.163 HD
ENDROOT
BRANCH   2   5
HETATM    5  C           1     -20.631  -7.974  -4.392  0.00  0.00     0.189 C 
BRANCH   5   6
HETATM    6  C           1     -21.470  -9.100  -3.803  0.00  0.00     0.074 C 
BRANCH   6   7
HETATM    7  C           1     -21.865  -8.748  -2.402  0.00  0.00    -0.056 A 
HETATM    8  C           1     -22.261  -9.751  -1.516  0.00  0.00     0.010 A 
HETATM    9  C           1     -22.629  -9.423  -0.212  0.00  0.00     0.037 A 
HETATM   10  C           1     -22.602  -8.093   0.208  0.00  0.00     0.065 A 
HETATM   11  C           1     -22.207  -7.091  -0.678  0.00  0.00     0.037 A 
HETATM   12  C           1     -21.839  -7.418  -1.983  0.00  0.00     0.010 A 
BRANCH  10  13
HETATM   13  O           1     -22.961  -7.774   1.475  0.00  0.00    -0.361 OA
HETATM   14  H           1     -22.619  -6.886   1.670  0.00  0.00     0.217 HD
ENDBRANCH  10  13
ENDBRANCH   6   7
ENDBRANCH   5   6
BRANCH   5  15
HETATM   15  C           1     -19.324  -8.531  -4.897  0.00  0.00     0.197 C 
HETATM   16  O           1     -19.043  -8.463  -6.114  0.00  0.00    -0.646 OA
HETATM   17  O           1     -18.521  -9.063  -4.100  0.00  0.00    -0.646 OA
ENDBRANCH   5  15
ENDBRANCH   2   5
BRANCH   1  18
HETATM   18  C           1     -22.155  -5.357  -6.740  0.00  0.00     0.278 C 
BRANCH  18  19
HETATM   19  N           1     -23.534  -4.981  -6.285  0.00  0.00    -0.066 N 
HETATM   20  H           1     -23.537  -4.859  -5.246  0.00  0.00     0.275 HD
HETATM   21  H           1     -24.206  -5.736  -6.549  0.00  0.00     0.275 HD
HETATM   22  H           1     -23.820  -4.085  -6.741  0.00  0.00     0.275 HD
ENDBRANCH  18  19
BRANCH  18  23
HETATM   23  C           1     -21.414  -4.108  -7.198  0.00  0.00     0.081 C 
BRANCH  23  24
HETATM   24  C           1     -21.424  -4.042  -8.693  0.00  0.00    -0.056 A 
HETATM   25  C           1     -22.582  -3.654  -9.367  0.00  0.00     0.007 A 
HETATM   26  C           1     -22.590  -3.593 -10.760  0.00  0.00     0.001 A 
HETATM   27  C           1     -21.441  -3.920 -11.480  0.00  0.00     0.000 A 
HETATM   28  C           1     -20.283  -4.309 -10.806  0.00  0.00     0.001 A 
HETATM   29  C           1     -20.274  -4.370  -9.414  0.00  0.00     0.007 A 
ENDBRANCH  23  24
ENDBRANCH  18  23
ENDBRANCH   1  18
TORSDOF 9
ENDMDL
MODEL 3
REMARK VINA RESULT:      -8.2      1.868      2.629
REMARK  9 active torsions:
REMARK  status: ('A' for Active; 'I' for Inactive)
REMARK       I    between atoms: C_2  and  N_10 
REMARK    1  A    between atoms: C_2  and  C_26 
REMARK    2  A    between atoms: C_8  and  C_11 
REMARK    3  A    between atoms: C_8  and  C_13 
REMARK    4  A    between atoms: N_10  and  C_13 
REMARK    5  A    between atoms: C_13  and  C_14 
REMARK    6  A    between atoms: O_19  and  C_20 
REMARK    7  A    between atoms: N_24  and  C_26 
REMARK    8  A    between atoms: C_26  and  C_27 
REMARK    9  A    between atoms: C_27  and  C_28 
ROOT
HETATM    1  C           1     -20.712  -5.810  -6.737  0.00  0.00     0.249 C 
HETATM    2  N           1     -21.531  -4.850  -7.264  0.00  0.00    -0.344 N 
HETATM    3  O           1     -20.093  -6.545  -7.469  0.00  0.00    -0.271 OA
HETATM    4  H           1     -22.050  -4.234  -6.651  0.00  0.00     0.163 HD
ENDROOT
BRANCH   2   5
HETATM    5  C           1     -21.658  -4.713  -8.702  0.00  0.00     0.189 C 
BRANCH   5   6
HETATM    6  C           1     -22.713  -3.663  -9.021  0.00  0.00     0.074 C 
BRANCH   6   7
HETATM    7  C           1     -23.024  -3.696 -10.486  0.00  0.00    -0.056 A 
HETATM    8  C           1     -23.603  -4.833 -11.050  0.00  0.00     0.010 A 
HETATM    9  C           1     -23.892  -4.863 -12.414  0.00  0.00     0.037 A 
HETATM   10  C           1     -23.604  -3.758 -13.214  0.00  0.00     0.065 A 
HETATM   11  C           1     -23.025  -2.622 -12.649  0.00  0.00     0.037 A 
HETATM   12  C           1     -22.735  -2.591 -11.284  0.00  0.00     0.010 A 
BRANCH  10  13
HETATM   13  O           1     -23.884  -3.787 -14.539  0.00  0.00    -0.361 OA
HETATM   14  H           1     -24.730  -3.329 -14.678  0.00  0.00     0.217 HD
ENDBRANCH  10  13
ENDBRANCH   6   7
ENDBRANCH   5   6
BRANCH   5  15
HETATM   15  C           1     -20.333  -4.289  -9.285  0.00  0.00     0.197 C 
HETATM   16  O           1     -19.659  -3.398  -8.723  0.00  0.00    -0.646 OA
HETATM   17  O           1     -19.909  -4.827 -10.330  0.00  0.00    -0.646 OA
ENDBRANCH   5  15
ENDBRANCH   2   5
BRANCH   1  18
HETATM   18  C           1     -20.580  -5.952  -5.240  0.00  0.00     0.278 C 
BRANCH  18  19
HETATM   19  N           1     -20.125  -4.648  -4.654  0.00  0.00    -0.066 N 
HETATM   20  H           1     -20.342  -4.632  -3.631  0.00  0.00     0.275 HD
HETATM   21  H           1     -20.623  -3.861  -5.127  0.00  0.00     0.275 HD
HETATM   22  H           1     -19.095  -4.543  -4.792  0.00  0.00     0.275 HD
ENDBRANCH  18  19
BRANCH  18  23
HETATM   23  C           1     -21.928  -6.333  -4.644  0.00  0.00     0.081 C 
BRANCH  23  24
HETATM   24  C           1     -21.727  -6.887  -3.268  0.00  0.00    -0.056 A 
HETATM   25  C           1     -20.903  -7.996  -3.075  0.00  0.00     0.007 A 
HETATM   26  C           1     -20.717  -8.511  -1.793  0.00  0.00     0.001 A 
HETATM   27  C           1     -21.354  -7.918  -0.703  0.00  0.00     0.000 A 
HETATM   28  C           1     -22.178  -6.809  -0.895  0.00  0.00     0.001 A 
HETATM   29  C           1     -22.364  -6.293  -2.177  0.00  0.00     0.007 A 
ENDBRANCH  23  24
ENDBRANCH  18  23
ENDBRANCH   1  18
TORSDOF 9
ENDMDL
MODEL 4
REMARK VINA RESULT:      -8.1      2.073      8.197
REMARK  9 active torsions:
REMARK  status: ('A' for Active; 'I' for Inactive)
REMARK       I    between atoms: C_2  and  N_10 
REMARK    1  A    between atoms: C_2  and  C_26 
REMARK    2  A    between atoms: C_8  and  C_11 
REMARK    3  A    between atoms: C_8  and  C_13 
REMARK    4  A    between atoms: N_10  and  C_13 
REMARK    5  A    between atoms: C_13  and  C_14 
REMARK    6  A    between atoms: O_19  and  C_20 
REMARK    7  A    between atoms: N_24  and  C_26 
REMARK    8  A    between atoms: C_26  and  C_27 
REMARK    9  A    between atoms: C_27  and  C_28 
ROOT
HETATM    1  C           1     -20.333  -5.393  -6.118  0.00  0.00     0.249 C 
HETATM    2  N           1     -20.236  -6.757  -6.166  0.00  0.00    -0.344 N 
HETATM    3  O           1     -20.334  -4.825  -5.052  0.00  0.00    -0.271 OA
HETATM    4  H           1     -20.235  -7.233  -7.060  0.00  0.00     0.163 HD
ENDROOT
BRANCH   2   5
HETATM    5  C           1     -20.133  -7.522  -4.939  0.00  0.00     0.189 C 
BRANCH   5   6
HETATM    6  C           1     -21.492  -8.116  -4.597  0.00  0.00     0.074 C 
BRANCH   6   7
HETATM    7  C           1     -21.723  -8.019  -3.120  0.00  0.00    -0.056 A 
HETATM    8  C           1     -21.924  -6.773  -2.527  0.00  0.00     0.010 A 
HETATM    9  C           1     -22.139  -6.683  -1.152  0.00  0.00     0.037 A 
HETATM   10  C           1     -22.153  -7.838  -0.370  0.00  0.00     0.065 A 
HETATM   11  C           1     -21.951  -9.084  -0.964  0.00  0.00     0.037 A 
HETATM   12  C           1     -21.736  -9.174  -2.340  0.00  0.00     0.010 A 
BRANCH  10  13
HETATM   13  O           1     -22.361  -7.751   0.966  0.00  0.00    -0.361 OA
HETATM   14  H           1     -22.093  -8.594   1.368  0.00  0.00     0.217 HD
ENDBRANCH  10  13
ENDBRANCH   6   7
ENDBRANCH   5   6
BRANCH   5  15
HETATM   15  C           1     -19.129  -8.633  -5.122  0.00  0.00     0.197 C 
HETATM   16  O           1     -18.761  -9.311  -4.138  0.00  0.00    -0.646 OA
HETATM   17  O           1     -18.664  -8.874  -6.257  0.00  0.00    -0.646 OA
ENDBRANCH   5  15
ENDBRANCH   2   5
BRANCH   1  18
HETATM   18  C           1     -20.439  -4.597  -7.396  0.00  0.00     0.278 C 
BRANCH  18  19
HETATM   19  N           1     -19.074  -4.128  -7.806  0.00  0.00    -0.066 N 
HETATM   20  H           1     -18.770  -3.349  -7.178  0.00  0.00     0.275 HD
HETATM   21  H           1     -19.104  -3.789  -8.794  0.00  0.00     0.275 HD
HETATM   22  H           1     -18.396  -4.920  -7.730  0.00  0.00     0.275 HD
ENDBRANCH  18  19
BRANCH  18  23
HETATM   23  C           1     -21.025  -5.474  -8.494  0.00  0.00     0.081 C 
BRANCH  23  24
HETATM   24  C           1     -21.693  -4.610  -9.519  0.00  0.00    -0.056 A 
HETATM   25  C           1     -23.032  -4.250  -9.362  0.00  0.00     0.007 A 
HETATM   26  C           1     -23.653  -3.446 -10.317  0.00  0.00     0.001 A 
HETATM   27  C           1     -22.937  -3.003 -11.429  0.00  0.00     0.000 A 
HETATM   28  C           1     -21.598  -3.363 -11.586  0.00  0.00     0.001 A 
HETATM   29  C           1     -20.976  -4.166 -10.631  0.00  0.00     0.007 A 
ENDBRANCH  23  24
ENDBRANCH  18  23
ENDBRANCH   1  18
TORSDOF 9
ENDMDL
MODEL 5
REMARK VINA RESULT:      -8.0      2.247      8.157
REMARK  9 active torsions:
REMARK  status: ('A' for Active; 'I' for Inactive)
REMARK       I    between atoms: C_2  and  N_10 
REMARK    1  A    between atoms: C_2  and  C_26 
REMARK    2  A    between atoms: C_8  and  C_11 
REMARK    3  A    between atoms: C_8  and  C_13 
REMARK    4  A    between atoms: N_10  and  C_13 
REMARK    5  A    between atoms: C_13  and  C_14 
REMARK    6  A    between atoms: O_19  and  C_20 
REMARK    7  A    between atoms: N_24  and  C_26 
REMARK    8  A    between atoms: C_26  and  C_27 
REMARK    9  A    between atoms: C_27  and  C_28 
ROOT
HETATM    1  C           1     -20.603  -7.305  -5.598  0.00  0.00     0.249 C 
HETATM    2  N           1     -20.820  -8.036  -4.462  0.00  0.00    -0.344 N 
HETATM    3  O           1     -19.610  -7.496  -6.259  0.00  0.00    -0.271 OA
HETATM    4  H           1     -21.652  -7.876  -3.908  0.00  0.00     0.163 HD
ENDROOT
BRANCH   2   5
HETATM    5  C           1     -19.858  -9.041  -4.051  0.00  0.00     0.189 C 
BRANCH   5   6
HETATM    6  C           1     -19.373  -8.731  -2.641  0.00  0.00     0.074 C 
BRANCH   6   7
HETATM    7  C           1     -20.549  -8.444  -1.760  0.00  0.00    -0.056 A 
HETATM    8  C           1     -21.021  -9.424  -0.886  0.00  0.00     0.010 A 
HETATM    9  C           1     -22.116  -9.157  -0.065  0.00  0.00     0.037 A 
HETATM   10  C           1     -22.740  -7.911  -0.117  0.00  0.00     0.065 A 
HETATM   11  C           1     -22.268  -6.932  -0.991  0.00  0.00     0.037 A 
HETATM   12  C           1     -21.173  -7.198  -1.813  0.00  0.00     0.010 A 
BRANCH  10  13
HETATM   13  O           1     -23.805  -7.651   0.680  0.00  0.00    -0.361 OA
HETATM   14  H           1     -24.218  -8.499   0.915  0.00  0.00     0.217 HD
ENDBRANCH  10  13
ENDBRANCH   6   7
ENDBRANCH   5   6
BRANCH   5  15
HETATM   15  C           1     -20.512 -10.400  -4.072  0.00  0.00     0.197 C 
HETATM   16  O           1     -19.846 -11.419  -3.788  0.00  0.00    -0.646 OA
HETATM   17  O           1     -21.720 -10.508  -4.374  0.00  0.00    -0.646 OA
ENDBRANCH   5  15
ENDBRANCH   2   5
BRANCH   1  18
HETATM   18  C           1     -21.605  -6.260  -6.026  0.00  0.00     0.278 C 
BRANCH  18  19
HETATM   19  N           1     -22.602  -6.045  -4.927  0.00  0.00    -0.066 N 
HETATM   20  H           1     -23.542  -5.852  -5.343  0.00  0.00     0.275 HD
HETATM   21  H           1     -22.306  -5.232  -4.341  0.00  0.00     0.275 HD
HETATM   22  H           1     -22.656  -6.902  -4.332  0.00  0.00     0.275 HD
ENDBRANCH  18  19
BRANCH  18  23
HETATM   23  C           1     -20.882  -4.952  -6.318  0.00  0.00     0.081 C 
BRANCH  23  24
HETATM   24  C           1     -21.107  -4.564  -7.746  0.00  0.00    -0.056 A 
HETATM   25  C           1     -20.073  -4.689  -8.674  0.00  0.00     0.007 A 
HETATM   26  C           1     -20.285  -4.327 -10.005  0.00  0.00     0.001 A 
HETATM   27  C           1     -21.528  -3.841 -10.407  0.00  0.00     0.000 A 
HETATM   28  C           1     -22.562  -3.716  -9.479  0.00  0.00     0.001 A 
HETATM   29  C           1     -22.352  -4.078  -8.149  0.00  0.00     0.007 A 
ENDBRANCH  23  24
ENDBRANCH  18  23
ENDBRANCH   1  18
TORSDOF 9
ENDMDL
MODEL 6
REMARK VINA RESULT:      -7.5      4.808      6.393
REMARK  9 active torsions:
REMARK  status: ('A' for Active; 'I' for Inactive)
REMARK       I    between atoms: C_2  and  N_10 
REMARK    1  A    between atoms: C_2  and  C_26 
REMARK    2  A    between atoms: C_8  and  C_11 
REMARK    3  A    between atoms: C_8  and  C_13 
REMARK    4  A    between atoms: N_10  and  C_13 
REMARK    5  A    between atoms: C_13  and  C_14 
REMARK    6  A    between atoms: O_19  and  C_20 
REMARK    7  A    between atoms: N_24  and  C_26 
REMARK    8  A    between atoms: C_26  and  C_27 
REMARK    9  A    between atoms: C_27  and  C_28 
ROOT
HETATM    1  C           1     -22.175 -11.460  -3.252  0.00  0.00     0.249 C 
HETATM    2  N           1     -20.879 -11.399  -3.687  0.00  0.00    -0.344 N 
HETATM    3  O           1     -23.066 -11.031  -3.946  0.00  0.00    -0.271 OA
HETATM    4  H           1     -20.132 -11.758  -3.106  0.00  0.00     0.163 HD
ENDROOT
BRANCH   2   5
HETATM    5  C           1     -20.574 -10.819  -4.981  0.00  0.00     0.189 C 
BRANCH   5   6
HETATM    6  C           1     -19.670  -9.609  -4.794  0.00  0.00     0.074 C 
BRANCH   6   7
HETATM    7  C           1     -20.409  -8.544  -4.045  0.00  0.00    -0.056 A 
HETATM    8  C           1     -20.099  -8.289  -2.708  0.00  0.00     0.010 A 
HETATM    9  C           1     -20.787  -7.297  -2.011  0.00  0.00     0.037 A 
HETATM   10  C           1     -21.785  -6.559  -2.648  0.00  0.00     0.065 A 
HETATM   11  C           1     -22.094  -6.815  -3.984  0.00  0.00     0.037 A 
HETATM   12  C           1     -21.406  -7.807  -4.683  0.00  0.00     0.010 A 
BRANCH  10  13
HETATM   13  O           1     -22.454  -5.596  -1.970  0.00  0.00    -0.361 OA
HETATM   14  H           1     -23.032  -5.132  -2.598  0.00  0.00     0.217 HD
ENDBRANCH  10  13
ENDBRANCH   6   7
ENDBRANCH   5   6
BRANCH   5  15
HETATM   15  C           1     -19.873 -11.845  -5.837  0.00  0.00     0.197 C 
HETATM   16  O           1     -19.384 -12.869  -5.313  0.00  0.00    -0.646 OA
HETATM   17  O           1     -19.781 -11.670  -7.072  0.00  0.00    -0.646 OA
ENDBRANCH   5  15
ENDBRANCH   2   5
BRANCH   1  18
HETATM   18  C           1     -22.492 -12.063  -1.905  0.00  0.00     0.278 C 
BRANCH  18  19
HETATM   19  N           1     -22.602 -13.553  -2.040  0.00  0.00    -0.066 N 
HETATM   20  H           1     -23.157 -13.785  -2.896  0.00  0.00     0.275 HD
HETATM   21  H           1     -23.080 -13.945  -1.198  0.00  0.00     0.275 HD
HETATM   22  H           1     -21.646 -13.968  -2.123  0.00  0.00     0.275 HD
ENDBRANCH  18  19
BRANCH  18  23
HETATM   23  C           1     -21.381 -11.724  -0.921  0.00  0.00     0.081 C 
BRANCH  23  24
HETATM   24  C           1     -21.725 -10.460  -0.196  0.00  0.00    -0.056 A 
HETATM   25  C           1     -22.954  -9.839  -0.422  0.00  0.00     0.007 A 
HETATM   26  C           1     -23.274  -8.662   0.255  0.00  0.00     0.001 A 
HETATM   27  C           1     -22.366  -8.106   1.156  0.00  0.00     0.000 A 
HETATM   28  C           1     -21.138  -8.728   1.382  0.00  0.00     0.001 A 
HETATM   29  C           1     -20.818  -9.904   0.707  0.00  0.00     0.007 A 
ENDBRANCH  23  24
ENDBRANCH  18  23
ENDBRANCH   1  18
TORSDOF 9
ENDMDL
MODEL 7
REMARK VINA RESULT:      -7.5      2.514      8.256
REMARK  9 active torsions:
REMARK  status: ('A' for Active; 'I' for Inactive)
REMARK       I    between atoms: C_2  and  N_10 
REMARK    1  A    between atoms: C_2  and  C_26 
REMARK    2  A    between atoms: C_8  and  C_11 
REMARK    3  A    between atoms: C_8  and  C_13 
REMARK    4  A    between atoms: N_10  and  C_13 
REMARK    5  A    between atoms: C_13  and  C_14 
REMARK    6  A    between atoms: O_19  and  C_20 
REMARK    7  A    between atoms: N_24  and  C_26 
REMARK    8  A    between atoms: C_26  and  C_27 
REMARK    9  A    between atoms: C_27  and  C_28 
ROOT
HETATM    1  C           1     -20.813  -6.435  -5.461  0.00  0.00     0.249 C 
HETATM    2  N           1     -20.285  -7.640  -5.836  0.00  0.00    -0.344 N 
HETATM    3  O           1     -21.100  -6.235  -4.305  0.00  0.00    -0.271 OA
HETATM    4  H           1     -20.044  -7.808  -6.805  0.00  0.00     0.163 HD
ENDROOT
BRANCH   2   5
HETATM    5  C           1     -20.069  -8.678  -4.847  0.00  0.00     0.189 C 
BRANCH   5   6
HETATM    6  C           1     -21.146  -9.744  -4.987  0.00  0.00     0.074 C 
BRANCH   6   7
HETATM    7  C           1     -21.770 -10.004  -3.650  0.00  0.00    -0.056 A 
HETATM    8  C           1     -22.687 -11.045  -3.499  0.00  0.00     0.010 A 
HETATM    9  C           1     -23.268 -11.286  -2.255  0.00  0.00     0.037 A 
HETATM   10  C           1     -22.933 -10.487  -1.161  0.00  0.00     0.065 A 
HETATM   11  C           1     -22.017  -9.447  -1.313  0.00  0.00     0.037 A 
HETATM   12  C           1     -21.435  -9.204  -2.558  0.00  0.00     0.010 A 
BRANCH  10  13
HETATM   13  O           1     -23.498 -10.721   0.048  0.00  0.00    -0.361 OA
HETATM   14  H           1     -23.763  -9.867   0.426  0.00  0.00     0.217 HD
ENDBRANCH  10  13
ENDBRANCH   6   7
ENDBRANCH   5   6
BRANCH   5  15
HETATM   15  C           1     -18.712  -9.301  -5.060  0.00  0.00     0.197 C 
HETATM   16  O           1     -17.927  -9.435  -4.097  0.00  0.00    -0.646 OA
HETATM   17  O           1     -18.372  -9.682  -6.201  0.00  0.00    -0.646 OA
ENDBRANCH   5  15
ENDBRANCH   2   5
BRANCH   1  18
HETATM   18  C           1     -21.037  -5.354  -6.491  0.00  0.00     0.278 C 
BRANCH  18  19
HETATM   19  N           1     -20.486  -4.056  -5.980  0.00  0.00    -0.066 N 
HETATM   20  H           1     -19.921  -4.233  -5.118  0.00  0.00     0.275 HD
HETATM   21  H           1     -21.274  -3.409  -5.753  0.00  0.00     0.275 HD
HETATM   22  H           1     -19.878  -3.623  -6.711  0.00  0.00     0.275 HD
ENDBRANCH  18  19
BRANCH  18  23
HETATM   23  C           1     -20.328  -5.731  -7.785  0.00  0.00     0.081 C 
BRANCH  23  24
HETATM   24  C           1     -20.895  -4.930  -8.916  0.00  0.00    -0.056 A 
HETATM   25  C           1     -20.074  -4.540  -9.974  0.00  0.00     0.007 A 
HETATM   26  C           1     -20.602  -3.794 -11.027  0.00  0.00     0.001 A 
HETATM   27  C           1     -21.950  -3.436 -11.022  0.00  0.00     0.000 A 
HETATM   28  C           1     -22.771  -3.825  -9.963  0.00  0.00     0.001 A 
HETATM   29  C           1     -22.244  -4.572  -8.911  0.00  0.00     0.007 A 
ENDBRANCH  23  24
ENDBRANCH  18  23
ENDBRANCH   1  18
TORSDOF 9
ENDMDL
MODEL 8
REMARK VINA RESULT:      -7.5      3.392      8.086
REMARK  9 active torsions:
REMARK  status: ('A' for Active; 'I' for Inactive)
REMARK       I    between atoms: C_2  and  N_10 
REMARK    1  A    between atoms: C_2  and  C_26 
REMARK    2  A    between atoms: C_8  and  C_11 
REMARK    3  A    between atoms: C_8  and  C_13 
REMARK    4  A    between atoms: N_10  and  C_13 
REMARK    5  A    between atoms: C_13  and  C_14 
REMARK    6  A    between atoms: O_19  and  C_20 
REMARK    7  A    between atoms: N_24  and  C_26 
REMARK    8  A    between atoms: C_26  and  C_27 
REMARK    9  A    between atoms: C_27  and  C_28 
ROOT
HETATM    1  C           1     -20.372  -7.523  -5.054  0.00  0.00     0.249 C 
HETATM    2  N           1     -20.356  -8.337  -3.954  0.00  0.00    -0.344 N 
HETATM    3  O           1     -19.707  -7.804  -6.023  0.00  0.00    -0.271 OA
HETATM    4  H           1     -20.913  -8.102  -3.143  0.00  0.00     0.163 HD
ENDROOT
BRANCH   2   5
HETATM    5  C           1     -19.542  -9.537  -3.950  0.00  0.00     0.189 C 
BRANCH   5   6
HETATM    6  C           1     -18.278  -9.289  -3.140  0.00  0.00     0.074 C 
BRANCH   6   7
HETATM    7  C           1     -17.125  -9.997  -3.783  0.00  0.00    -0.056 A 
HETATM    8  C           1     -16.238 -10.738  -3.002  0.00  0.00     0.010 A 
HETATM    9  C           1     -15.165 -11.397  -3.602  0.00  0.00     0.037 A 
HETATM   10  C           1     -14.978 -11.315  -4.982  0.00  0.00     0.065 A 
HETATM   11  C           1     -15.865 -10.574  -5.762  0.00  0.00     0.037 A 
HETATM   12  C           1     -16.939  -9.914  -5.163  0.00  0.00     0.010 A 
BRANCH  10  13
HETATM   13  O           1     -13.935 -11.955  -5.564  0.00  0.00    -0.361 OA
HETATM   14  H           1     -14.188 -12.172  -6.476  0.00  0.00     0.217 HD
ENDBRANCH  10  13
ENDBRANCH   6   7
ENDBRANCH   5   6
BRANCH   5  15
HETATM   15  C           1     -20.322 -10.671  -3.333  0.00  0.00     0.197 C 
HETATM   16  O           1     -21.218 -10.430  -2.494  0.00  0.00    -0.646 OA
HETATM   17  O           1     -20.072 -11.852  -3.658  0.00  0.00    -0.646 OA
ENDBRANCH   5  15
ENDBRANCH   2   5
BRANCH   1  18
HETATM   18  C           1     -21.220  -6.274  -5.058  0.00  0.00     0.278 C 
BRANCH  18  19
HETATM   19  N           1     -21.709  -6.000  -3.667  0.00  0.00    -0.066 N 
HETATM   20  H           1     -21.305  -6.706  -3.010  0.00  0.00     0.275 HD
HETATM   21  H           1     -22.752  -6.060  -3.646  0.00  0.00     0.275 HD
HETATM   22  H           1     -21.409  -5.042  -3.374  0.00  0.00     0.275 HD
ENDBRANCH  18  19
BRANCH  18  23
HETATM   23  C           1     -20.387  -5.096  -5.544  0.00  0.00     0.081 C 
BRANCH  23  24
HETATM   24  C           1     -20.810  -4.725  -6.932  0.00  0.00    -0.056 A 
HETATM   25  C           1     -22.150  -4.447  -7.202  0.00  0.00     0.007 A 
HETATM   26  C           1     -22.544  -4.101  -8.494  0.00  0.00     0.001 A 
HETATM   27  C           1     -21.598  -4.035  -9.517  0.00  0.00     0.000 A 
HETATM   28  C           1     -20.258  -4.313  -9.248  0.00  0.00     0.001 A 
HETATM   29  C           1     -19.864  -4.658  -7.955  0.00  0.00     0.007 A 
ENDBRANCH  23  24
ENDBRANCH  18  23
ENDBRANCH   1  18
TORSDOF 9
ENDMDL
MODEL 9
REMARK VINA RESULT:      -7.4      5.193      8.665
REMARK  9 active torsions:
REMARK  status: ('A' for Active; 'I' for Inactive)
REMARK       I    between atoms: C_2  and  N_10 
REMARK    1  A    between atoms: C_2  and  C_26 
REMARK    2  A    between atoms: C_8  and  C_11 
REMARK    3  A    between atoms: C_8  and  C_13 
REMARK    4  A    between atoms: N_10  and  C_13 
REMARK    5  A    between atoms: C_13  and  C_14 
REMARK    6  A    between atoms: O_19  and  C_20 
REMARK    7  A    between atoms: N_24  and  C_26 
REMARK    8  A    between atoms: C_26  and  C_27 
REMARK    9  A    between atoms: C_27  and  C_28 
ROOT
HETATM    1  C           1     -21.242  -9.637  -3.756  0.00  0.00     0.249 C 
HETATM    2  N           1     -20.943  -8.634  -2.875  0.00  0.00    -0.344 N 
HETATM    3  O           1     -22.333 -10.155  -3.735  0.00  0.00    -0.271 OA
HETATM    4  H           1     -20.029  -8.201  -2.892  0.00  0.00     0.163 HD
ENDROOT
BRANCH   2   5
HETATM    5  C           1     -21.935  -8.193  -1.914  0.00  0.00     0.189 C 
BRANCH   5   6
HETATM    6  C           1     -21.470  -8.542  -0.507  0.00  0.00     0.074 C 
BRANCH   6   7
HETATM    7  C           1     -21.995  -9.892  -0.128  0.00  0.00    -0.056 A 
HETATM    8  C           1     -21.136 -10.846   0.417  0.00  0.00     0.010 A 
HETATM    9  C           1     -21.625 -12.103   0.771  0.00  0.00     0.037 A 
HETATM   10  C           1     -22.973 -12.407   0.579  0.00  0.00     0.065 A 
HETATM   11  C           1     -23.831 -11.453   0.033  0.00  0.00     0.037 A 
HETATM   12  C           1     -23.343 -10.195  -0.321  0.00  0.00     0.010 A 
BRANCH  10  13
HETATM   13  O           1     -23.449 -13.629   0.921  0.00  0.00    -0.361 OA
HETATM   14  H           1     -23.313 -14.226   0.166  0.00  0.00     0.217 HD
ENDBRANCH  10  13
ENDBRANCH   6   7
ENDBRANCH   5   6
BRANCH   5  15
HETATM   15  C           1     -22.115  -6.699  -2.029  0.00  0.00     0.197 C 
HETATM   16  O           1     -22.014  -6.141  -3.143  0.00  0.00    -0.646 OA
HETATM   17  O           1     -22.365  -6.019  -1.010  0.00  0.00    -0.646 OA
ENDBRANCH   5  15
ENDBRANCH   2   5
BRANCH   1  18
HETATM   18  C           1     -20.209 -10.097  -4.757  0.00  0.00     0.278 C 
BRANCH  18  19
HETATM   19  N           1     -20.868 -10.326  -6.085  0.00  0.00    -0.066 N 
HETATM   20  H           1     -20.338  -9.817  -6.829  0.00  0.00     0.275 HD
HETATM   21  H           1     -21.850  -9.971  -6.052  0.00  0.00     0.275 HD
HETATM   22  H           1     -20.874 -11.348  -6.300  0.00  0.00     0.275 HD
ENDBRANCH  18  19
BRANCH  18  23
HETATM   23  C           1     -19.132  -9.030  -4.902  0.00  0.00     0.081 C 
BRANCH  23  24
HETATM   24  C           1     -17.817  -9.583  -4.449  0.00  0.00    -0.056 A 
HETATM   25  C           1     -16.955 -10.177  -5.371  0.00  0.00     0.007 A 
HETATM   26  C           1     -15.730 -10.692  -4.949  0.00  0.00     0.001 A 
HETATM   27  C           1     -15.367 -10.615  -3.604  0.00  0.00     0.000 A 
HETATM   28  C           1     -16.229 -10.022  -2.682  0.00  0.00     0.001 A 
HETATM   29  C           1     -17.454  -9.506  -3.104  0.00  0.00     0.007 A 
ENDBRANCH  23  24
ENDBRANCH  18  23
ENDBRANCH   1  18
TORSDOF 9
ENDMDL
