MODEL 1
REMARK VINA RESULT:      -6.7      0.000      0.000
REMARK  6 active torsions:
REMARK  status: ('A' for Active; 'I' for Inactive)
REMARK       I    between atoms: N_1  and  C_6 
REMARK    1  A    between atoms: C_3  and  C_13 
REMARK    2  A    between atoms: C_6  and  C_15 
REMARK    3  A    between atoms: N_8  and  C_15 
REMARK    4  A    between atoms: C_13  and  C_14 
REMARK    5  A    between atoms: C_14  and  C_15 
REMARK    6  A    between atoms: C_16  and  C_19 
ROOT
HETATM    1  N           1     -21.292  -4.472  -8.714  0.00  0.00    -0.336 N 
HETATM    2  C           1     -22.003  -4.319  -9.874  0.00  0.00     0.251 C 
HETATM    3  O           1     -22.834  -5.139 -10.187  0.00  0.00    -0.271 OA
HETATM    4  C           1     -20.258  -3.589  -8.182  0.00  0.00     0.127 C 
HETATM    5  C           1     -19.210  -4.544  -7.637  0.00  0.00     0.022 C 
HETATM    6  C           1     -19.962  -5.838  -7.351  0.00  0.00     0.038 C 
HETATM    7  C           1     -21.402  -5.554  -7.739  0.00  0.00     0.188 C 
ENDROOT
BRANCH   2   8
HETATM    8  C           1     -21.750  -3.126 -10.762  0.00  0.00     0.275 C 
BRANCH   8   9
HETATM    9  N           1     -20.495  -3.350 -11.553  0.00  0.00    -0.066 N 
HETATM   10  H           1     -19.995  -4.190 -11.185  0.00  0.00     0.275 HD
HETATM   11  H           1     -20.740  -3.504 -12.558  0.00  0.00     0.275 HD
HETATM   12  H           1     -19.877  -2.512 -11.470  0.00  0.00     0.275 HD
ENDBRANCH   8   9
BRANCH   8  13
HETATM   13  C           1     -22.923  -2.945 -11.717  0.00  0.00     0.053 C 
BRANCH  13  14
HETATM   14  C           1     -22.516  -3.392 -13.114  0.00  0.00     0.115 C 
BRANCH  14  15
HETATM   15  C           1     -23.259  -2.574 -14.142  0.00  0.00     0.172 C 
HETATM   16  O           1     -22.769  -2.404 -15.279  0.00  0.00    -0.648 OA
HETATM   17  O           1     -24.367  -2.069 -13.856  0.00  0.00    -0.648 OA
ENDBRANCH  14  15
ENDBRANCH  13  14
ENDBRANCH   8  13
ENDBRANCH   2   8
BRANCH   7  18
HETATM   18  C           1     -22.206  -5.117  -6.540  0.00  0.00     0.196 C 
HETATM   19  O           1     -23.303  -4.540  -6.701  0.00  0.00    -0.646 OA
HETATM   20  O           1     -21.775  -5.330  -5.386  0.00  0.00    -0.646 OA
ENDBRANCH   7  18
TORSDOF 6
ENDMDL
MODEL 2
REMARK VINA RESULT:      -6.6     12.517     15.112
REMARK  6 active torsions:
REMARK  status: ('A' for Active; 'I' for Inactive)
REMARK       I    between atoms: N_1  and  C_6 
REMARK    1  A    between atoms: C_3  and  C_13 
REMARK    2  A    between atoms: C_6  and  C_15 
REMARK    3  A    between atoms: N_8  and  C_15 
REMARK    4  A    between atoms: C_13  and  C_14 
REMARK    5  A    between atoms: C_14  and  C_15 
REMARK    6  A    between atoms: C_16  and  C_19 
ROOT
HETATM    1  N           1     -35.828  -0.999 -13.313  0.00  0.00    -0.336 N 
HETATM    2  C           1     -34.980  -2.013 -12.959  0.00  0.00     0.251 C 
HETATM    3  O           1     -34.520  -2.742 -13.806  0.00  0.00    -0.271 OA
HETATM    4  C           1     -36.473  -0.030 -12.432  0.00  0.00     0.127 C 
HETATM    5  C           1     -37.876   0.100 -13.001  0.00  0.00     0.022 C 
HETATM    6  C           1     -37.752  -0.312 -14.463  0.00  0.00     0.038 C 
HETATM    7  C           1     -36.284  -0.650 -14.656  0.00  0.00     0.188 C 
ENDROOT
BRANCH   2   8
HETATM    8  C           1     -34.620  -2.223 -11.509  0.00  0.00     0.275 C 
BRANCH   8   9
HETATM    9  N           1     -35.807  -2.770 -10.772  0.00  0.00    -0.066 N 
HETATM   10  H           1     -36.623  -2.828 -11.421  0.00  0.00     0.275 HD
HETATM   11  H           1     -35.582  -3.725 -10.411  0.00  0.00     0.275 HD
HETATM   12  H           1     -36.041  -2.141  -9.972  0.00  0.00     0.275 HD
ENDBRANCH   8   9
BRANCH   8  13
HETATM   13  C           1     -33.464  -3.211 -11.409  0.00  0.00     0.053 C 
BRANCH  13  14
HETATM   14  C           1     -33.829  -4.324 -10.436  0.00  0.00     0.115 C 
BRANCH  14  15
HETATM   15  C           1     -34.089  -5.598 -11.202  0.00  0.00     0.172 C 
HETATM   16  O           1     -33.562  -6.669 -10.831  0.00  0.00    -0.648 OA
HETATM   17  O           1     -34.833  -5.582 -12.207  0.00  0.00    -0.648 OA
ENDBRANCH  14  15
ENDBRANCH  13  14
ENDBRANCH   8  13
ENDBRANCH   2   8
BRANCH   7  18
HETATM   18  C           1     -35.525   0.540 -15.188  0.00  0.00     0.196 C 
HETATM   19  O           1     -36.103   1.376 -15.916  0.00  0.00    -0.646 OA
HETATM   20  O           1     -34.317   0.691 -14.902  0.00  0.00    -0.646 OA
ENDBRANCH   7  18
TORSDOF 6
ENDMDL
MODEL 3
REMARK VINA RESULT:      -6.5     12.665     14.334
REMARK  6 active torsions:
REMARK  status: ('A' for Active; 'I' for Inactive)
REMARK       I    between atoms: N_1  and  C_6 
REMARK    1  A    between atoms: C_3  and  C_13 
REMARK    2  A    between atoms: C_6  and  C_15 
REMARK    3  A    between atoms: N_8  and  C_15 
REMARK    4  A    between atoms: C_13  and  C_14 
REMARK    5  A    between atoms: C_14  and  C_15 
REMARK    6  A    between atoms: C_16  and  C_19 
ROOT
HETATM    1  N           1     -34.712  -2.141 -12.314  0.00  0.00    -0.336 N 
HETATM    2  C           1     -35.183  -1.424 -13.381  0.00  0.00     0.251 C 
HETATM    3  O           1     -34.923  -1.775 -14.507  0.00  0.00    -0.271 OA
HETATM    4  C           1     -34.924  -1.868 -10.895  0.00  0.00     0.127 C 
HETATM    5  C           1     -33.575  -2.165 -10.263  0.00  0.00     0.022 C 
HETATM    6  C           1     -32.892  -3.135 -11.221  0.00  0.00     0.038 C 
HETATM    7  C           1     -33.888  -3.347 -12.347  0.00  0.00     0.188 C 
ENDROOT
BRANCH   2   8
HETATM    8  C           1     -36.027  -0.195 -13.150  0.00  0.00     0.275 C 
BRANCH   8   9
HETATM    9  N           1     -35.422   0.970 -13.877  0.00  0.00    -0.066 N 
HETATM   10  H           1     -34.913   0.628 -14.722  0.00  0.00     0.275 HD
HETATM   11  H           1     -36.180   1.628 -14.170  0.00  0.00     0.275 HD
HETATM   12  H           1     -34.755   1.467 -13.245  0.00  0.00     0.275 HD
ENDBRANCH   8   9
BRANCH   8  13
HETATM   13  C           1     -37.437  -0.440 -13.671  0.00  0.00     0.053 C 
BRANCH  13  14
HETATM   14  C           1     -37.661   0.379 -14.935  0.00  0.00     0.115 C 
BRANCH  14  15
HETATM   15  C           1     -37.346  -0.464 -16.145  0.00  0.00     0.172 C 
HETATM   16  O           1     -36.355  -0.191 -16.857  0.00  0.00    -0.648 OA
HETATM   17  O           1     -38.075  -1.438 -16.435  0.00  0.00    -0.648 OA
ENDBRANCH  14  15
ENDBRANCH  13  14
ENDBRANCH   8  13
ENDBRANCH   2   8
BRANCH   7  18
HETATM   18  C           1     -34.727  -4.576 -12.098  0.00  0.00     0.196 C 
HETATM   19  O           1     -34.757  -5.092 -10.960  0.00  0.00    -0.646 OA
HETATM   20  O           1     -35.391  -5.080 -13.031  0.00  0.00    -0.646 OA
ENDBRANCH   7  18
TORSDOF 6
ENDMDL
MODEL 4
REMARK VINA RESULT:      -6.3      1.963      6.336
REMARK  6 active torsions:
REMARK  status: ('A' for Active; 'I' for Inactive)
REMARK       I    between atoms: N_1  and  C_6 
REMARK    1  A    between atoms: C_3  and  C_13 
REMARK    2  A    between atoms: C_6  and  C_15 
REMARK    3  A    between atoms: N_8  and  C_15 
REMARK    4  A    between atoms: C_13  and  C_14 
REMARK    5  A    between atoms: C_14  and  C_15 
REMARK    6  A    between atoms: C_16  and  C_19 
ROOT
HETATM    1  N           1     -21.524  -4.373  -9.444  0.00  0.00    -0.336 N 
HETATM    2  C           1     -21.504  -4.576  -8.090  0.00  0.00     0.251 C 
HETATM    3  O           1     -22.373  -4.105  -7.396  0.00  0.00    -0.271 OA
HETATM    4  C           1     -20.564  -4.862 -10.430  0.00  0.00     0.127 C 
HETATM    5  C           1     -20.394  -3.690 -11.383  0.00  0.00     0.022 C 
HETATM    6  C           1     -21.671  -2.872 -11.238  0.00  0.00     0.038 C 
HETATM    7  C           1     -22.508  -3.621 -10.217  0.00  0.00     0.188 C 
ENDROOT
BRANCH   2   8
HETATM    8  C           1     -20.397  -5.388  -7.465  0.00  0.00     0.275 C 
BRANCH   8   9
HETATM    9  N           1     -19.623  -4.526  -6.511  0.00  0.00    -0.066 N 
HETATM   10  H           1     -18.641  -4.422  -6.852  0.00  0.00     0.275 HD
HETATM   11  H           1     -20.072  -3.584  -6.451  0.00  0.00     0.275 HD
HETATM   12  H           1     -19.618  -4.970  -5.565  0.00  0.00     0.275 HD
ENDBRANCH   8   9
BRANCH   8  13
HETATM   13  C           1     -20.995  -6.567  -6.709  0.00  0.00     0.053 C 
BRANCH  13  14
HETATM   14  C           1     -20.648  -6.453  -5.231  0.00  0.00     0.115 C 
BRANCH  14  15
HETATM   15  C           1     -21.908  -6.218  -4.435  0.00  0.00     0.172 C 
HETATM   16  O           1     -21.841  -6.023  -3.202  0.00  0.00    -0.648 OA
HETATM   17  O           1     -23.019  -6.218  -5.009  0.00  0.00    -0.648 OA
ENDBRANCH  14  15
ENDBRANCH  13  14
ENDBRANCH   8  13
ENDBRANCH   2   8
BRANCH   7  18
HETATM   18  C           1     -23.481  -4.552 -10.897  0.00  0.00     0.196 C 
HETATM   19  O           1     -23.600  -4.530 -12.141  0.00  0.00    -0.646 OA
HETATM   20  O           1     -24.168  -5.345 -10.218  0.00  0.00    -0.646 OA
ENDBRANCH   7  18
TORSDOF 6
ENDMDL
MODEL 5
REMARK VINA RESULT:      -6.3      2.222      6.537
REMARK  6 active torsions:
REMARK  status: ('A' for Active; 'I' for Inactive)
REMARK       I    between atoms: N_1  and  C_6 
REMARK    1  A    between atoms: C_3  and  C_13 
REMARK    2  A    between atoms: C_6  and  C_15 
REMARK    3  A    between atoms: N_8  and  C_15 
REMARK    4  A    between atoms: C_13  and  C_14 
REMARK    5  A    between atoms: C_14  and  C_15 
REMARK    6  A    between atoms: C_16  and  C_19 
ROOT
HETATM    1  N           1     -22.153  -4.266  -9.357  0.00  0.00    -0.336 N 
HETATM    2  C           1     -21.260  -4.643  -8.391  0.00  0.00     0.251 C 
HETATM    3  O           1     -20.276  -5.276  -8.691  0.00  0.00    -0.271 OA
HETATM    4  C           1     -23.387  -3.505  -9.179  0.00  0.00     0.127 C 
HETATM    5  C           1     -24.373  -4.189 -10.111  0.00  0.00     0.022 C 
HETATM    6  C           1     -23.513  -4.871 -11.167  0.00  0.00     0.038 C 
HETATM    7  C           1     -22.081  -4.537 -10.790  0.00  0.00     0.188 C 
ENDROOT
BRANCH   2   8
HETATM    8  C           1     -21.504  -4.269  -6.950  0.00  0.00     0.275 C 
BRANCH   8   9
HETATM    9  N           1     -22.782  -4.899  -6.479  0.00  0.00    -0.066 N 
HETATM   10  H           1     -23.553  -4.662  -7.143  0.00  0.00     0.275 HD
HETATM   11  H           1     -22.663  -5.937  -6.440  0.00  0.00     0.275 HD
HETATM   12  H           1     -23.018  -4.539  -5.527  0.00  0.00     0.275 HD
ENDBRANCH   8   9
BRANCH   8  13
HETATM   13  C           1     -20.349  -4.768  -6.091  0.00  0.00     0.053 C 
BRANCH  13  14
HETATM   14  C           1     -20.880  -5.711  -5.021  0.00  0.00     0.115 C 
BRANCH  14  15
HETATM   15  C           1     -20.588  -7.138  -5.416  0.00  0.00     0.172 C 
HETATM   16  O           1     -19.753  -7.807  -4.769  0.00  0.00    -0.648 OA
HETATM   17  O           1     -21.182  -7.651  -6.390  0.00  0.00    -0.648 OA
ENDBRANCH  14  15
ENDBRANCH  13  14
ENDBRANCH   8  13
ENDBRANCH   2   8
BRANCH   7  18
HETATM   18  C           1     -21.596  -3.322 -11.542  0.00  0.00     0.196 C 
HETATM   19  O           1     -20.460  -2.856 -11.310  0.00  0.00    -0.646 OA
HETATM   20  O           1     -22.331  -2.781 -12.397  0.00  0.00    -0.646 OA
ENDBRANCH   7  18
TORSDOF 6
ENDMDL
MODEL 6
REMARK VINA RESULT:      -5.6      3.029      4.667
REMARK  6 active torsions:
REMARK  status: ('A' for Active; 'I' for Inactive)
REMARK       I    between atoms: N_1  and  C_6 
REMARK    1  A    between atoms: C_3  and  C_13 
REMARK    2  A    between atoms: C_6  and  C_15 
REMARK    3  A    between atoms: N_8  and  C_15 
REMARK    4  A    between atoms: C_13  and  C_14 
REMARK    5  A    between atoms: C_14  and  C_15 
REMARK    6  A    between atoms: C_16  and  C_19 
ROOT
HETATM    1  N           1     -21.133  -6.759  -5.456  0.00  0.00    -0.336 N 
HETATM    2  C           1     -20.698  -6.173  -6.615  0.00  0.00     0.251 C 
HETATM    3  O           1     -19.653  -6.519  -7.112  0.00  0.00    -0.271 OA
HETATM    4  C           1     -22.360  -6.469  -4.719  0.00  0.00     0.127 C 
HETATM    5  C           1     -21.927  -6.512  -3.263  0.00  0.00     0.022 C 
HETATM    6  C           1     -20.682  -7.390  -3.244  0.00  0.00     0.038 C 
HETATM    7  C           1     -20.471  -7.810  -4.688  0.00  0.00     0.188 C 
ENDROOT
BRANCH   2   8
HETATM    8  C           1     -21.525  -5.094  -7.270  0.00  0.00     0.275 C 
BRANCH   8   9
HETATM    9  N           1     -21.072  -3.750  -6.779  0.00  0.00    -0.066 N 
HETATM   10  H           1     -21.113  -3.728  -5.736  0.00  0.00     0.275 HD
HETATM   11  H           1     -20.090  -3.579  -7.093  0.00  0.00     0.275 HD
HETATM   12  H           1     -21.697  -3.009  -7.169  0.00  0.00     0.275 HD
ENDBRANCH   8   9
BRANCH   8  13
HETATM   13  C           1     -21.348  -5.165  -8.782  0.00  0.00     0.053 C 
BRANCH  13  14
HETATM   14  C           1     -21.985  -3.942  -9.427  0.00  0.00     0.115 C 
BRANCH  14  15
HETATM   15  C           1     -23.441  -4.219  -9.705  0.00  0.00     0.172 C 
HETATM   16  O           1     -24.325  -3.502  -9.188  0.00  0.00    -0.648 OA
HETATM   17  O           1     -23.765  -5.167 -10.455  0.00  0.00    -0.648 OA
ENDBRANCH  14  15
ENDBRANCH  13  14
ENDBRANCH   8  13
ENDBRANCH   2   8
BRANCH   7  18
HETATM   18  C           1     -21.106  -9.152  -4.956  0.00  0.00     0.196 C 
HETATM   19  O           1     -21.119  -9.616  -6.117  0.00  0.00    -0.646 OA
HETATM   20  O           1     -21.620  -9.799  -4.018  0.00  0.00    -0.646 OA
ENDBRANCH   7  18
TORSDOF 6
ENDMDL
MODEL 7
REMARK VINA RESULT:      -5.4      6.330      9.043
REMARK  6 active torsions:
REMARK  status: ('A' for Active; 'I' for Inactive)
REMARK       I    between atoms: N_1  and  C_6 
REMARK    1  A    between atoms: C_3  and  C_13 
REMARK    2  A    between atoms: C_6  and  C_15 
REMARK    3  A    between atoms: N_8  and  C_15 
REMARK    4  A    between atoms: C_13  and  C_14 
REMARK    5  A    between atoms: C_14  and  C_15 
REMARK    6  A    between atoms: C_16  and  C_19 
ROOT
HETATM    1  N           1     -21.628  -8.298  -1.001  0.00  0.00    -0.336 N 
HETATM    2  C           1     -21.222  -7.726  -2.177  0.00  0.00     0.251 C 
HETATM    3  O           1     -20.250  -8.152  -2.753  0.00  0.00    -0.271 OA
HETATM    4  C           1     -22.770  -7.918  -0.175  0.00  0.00     0.127 C 
HETATM    5  C           1     -22.243  -8.034   1.246  0.00  0.00     0.022 C 
HETATM    6  C           1     -21.085  -9.020   1.162  0.00  0.00     0.038 C 
HETATM    7  C           1     -21.013  -9.422  -0.300  0.00  0.00     0.188 C 
ENDROOT
BRANCH   2   8
HETATM    8  C           1     -21.990  -6.562  -2.754  0.00  0.00     0.275 C 
BRANCH   8   9
HETATM    9  N           1     -22.139  -5.495  -1.710  0.00  0.00    -0.066 N 
HETATM   10  H           1     -23.152  -5.347  -1.504  0.00  0.00     0.275 HD
HETATM   11  H           1     -21.646  -5.792  -0.837  0.00  0.00     0.275 HD
HETATM   12  H           1     -21.720  -4.604  -2.060  0.00  0.00     0.275 HD
ENDBRANCH   8   9
BRANCH   8  13
HETATM   13  C           1     -21.235  -5.997  -3.950  0.00  0.00     0.053 C 
BRANCH  13  14
HETATM   14  C           1     -22.000  -6.309  -5.229  0.00  0.00     0.115 C 
BRANCH  14  15
HETATM   15  C           1     -21.146  -7.164  -6.132  0.00  0.00     0.172 C 
HETATM   16  O           1     -20.378  -6.626  -6.959  0.00  0.00    -0.648 OA
HETATM   17  O           1     -21.206  -8.410  -6.052  0.00  0.00    -0.648 OA
ENDBRANCH  14  15
ENDBRANCH  13  14
ENDBRANCH   8  13
ENDBRANCH   2   8
BRANCH   7  18
HETATM   18  C           1     -21.784 -10.695  -0.546  0.00  0.00     0.196 C 
HETATM   19  O           1     -22.122 -11.417   0.417  0.00  0.00    -0.646 OA
HETATM   20  O           1     -22.086 -11.029  -1.713  0.00  0.00    -0.646 OA
ENDBRANCH   7  18
TORSDOF 6
ENDMDL
MODEL 8
REMARK VINA RESULT:      -5.4      6.848      9.939
REMARK  6 active torsions:
REMARK  status: ('A' for Active; 'I' for Inactive)
REMARK       I    between atoms: N_1  and  C_6 
REMARK    1  A    between atoms: C_3  and  C_13 
REMARK    2  A    between atoms: C_6  and  C_15 
REMARK    3  A    between atoms: N_8  and  C_15 
REMARK    4  A    between atoms: C_13  and  C_14 
REMARK    5  A    between atoms: C_14  and  C_15 
REMARK    6  A    between atoms: C_16  and  C_19 
ROOT
HETATM    1  N           1     -22.397  -9.501  -0.884  0.00  0.00    -0.336 N 
HETATM    2  C           1     -22.109  -8.163  -0.907  0.00  0.00     0.251 C 
HETATM    3  O           1     -21.930  -7.565   0.128  0.00  0.00    -0.271 OA
HETATM    4  C           1     -22.641 -10.378  -2.026  0.00  0.00     0.127 C 
HETATM    5  C           1     -23.788 -11.262  -1.565  0.00  0.00     0.022 C 
HETATM    6  C           1     -23.714 -11.248  -0.043  0.00  0.00     0.038 C 
HETATM    7  C           1     -22.525 -10.363   0.288  0.00  0.00     0.188 C 
ENDROOT
BRANCH   2   8
HETATM    8  C           1     -22.016  -7.434  -2.224  0.00  0.00     0.275 C 
BRANCH   8   9
HETATM    9  N           1     -22.370  -5.990  -2.023  0.00  0.00    -0.066 N 
HETATM   10  H           1     -22.524  -5.807  -1.006  0.00  0.00     0.275 HD
HETATM   11  H           1     -21.588  -5.389  -2.369  0.00  0.00     0.275 HD
HETATM   12  H           1     -23.242  -5.767  -2.554  0.00  0.00     0.275 HD
ENDBRANCH   8   9
BRANCH   8  13
HETATM   13  C           1     -20.595  -7.535  -2.763  0.00  0.00     0.053 C 
BRANCH  13  14
HETATM   14  C           1     -20.629  -8.061  -4.192  0.00  0.00     0.115 C 
BRANCH  14  15
HETATM   15  C           1     -20.672  -6.900  -5.155  0.00  0.00     0.172 C 
HETATM   16  O           1     -20.791  -5.733  -4.722  0.00  0.00    -0.648 OA
HETATM   17  O           1     -20.589  -7.106  -6.385  0.00  0.00    -0.648 OA
ENDBRANCH  14  15
ENDBRANCH  13  14
ENDBRANCH   8  13
ENDBRANCH   2   8
BRANCH   7  18
HETATM   18  C           1     -21.278 -11.190   0.486  0.00  0.00     0.196 C 
HETATM   19  O           1     -20.153 -10.657   0.377  0.00  0.00    -0.646 OA
HETATM   20  O           1     -21.371 -12.407   0.758  0.00  0.00    -0.646 OA
ENDBRANCH   7  18
TORSDOF 6
ENDMDL
MODEL 9
REMARK VINA RESULT:      -5.2      6.019      8.651
REMARK  6 active torsions:
REMARK  status: ('A' for Active; 'I' for Inactive)
REMARK       I    between atoms: N_1  and  C_6 
REMARK    1  A    between atoms: C_3  and  C_13 
REMARK    2  A    between atoms: C_6  and  C_15 
REMARK    3  A    between atoms: N_8  and  C_15 
REMARK    4  A    between atoms: C_13  and  C_14 
REMARK    5  A    between atoms: C_14  and  C_15 
REMARK    6  A    between atoms: C_16  and  C_19 
ROOT
HETATM    1  N           1     -21.445  -9.244  -1.741  0.00  0.00    -0.336 N 
HETATM    2  C           1     -20.780  -9.426  -2.924  0.00  0.00     0.251 C 
HETATM    3  O           1     -20.425 -10.533  -3.253  0.00  0.00    -0.271 OA
HETATM    4  C           1     -21.944  -7.989  -1.186  0.00  0.00     0.127 C 
HETATM    5  C           1     -21.629  -8.097   0.296  0.00  0.00     0.022 C 
HETATM    6  C           1     -21.537  -9.592   0.575  0.00  0.00     0.038 C 
HETATM    7  C           1     -21.811 -10.261  -0.760  0.00  0.00     0.188 C 
ENDROOT
BRANCH   2   8
HETATM    8  C           1     -20.489  -8.245  -3.815  0.00  0.00     0.275 C 
BRANCH   8   9
HETATM    9  N           1     -19.320  -8.563  -4.701  0.00  0.00    -0.066 N 
HETATM   10  H           1     -19.592  -9.304  -5.385  0.00  0.00     0.275 HD
HETATM   11  H           1     -19.032  -7.702  -5.219  0.00  0.00     0.275 HD
HETATM   12  H           1     -18.523  -8.902  -4.118  0.00  0.00     0.275 HD
ENDBRANCH   8   9
BRANCH   8  13
HETATM   13  C           1     -21.709  -7.944  -4.677  0.00  0.00     0.053 C 
BRANCH  13  14
HETATM   14  C           1     -21.884  -6.437  -4.801  0.00  0.00     0.115 C 
BRANCH  14  15
HETATM   15  C           1     -21.521  -6.001  -6.199  0.00  0.00     0.172 C 
HETATM   16  O           1     -22.050  -4.981  -6.693  0.00  0.00    -0.648 OA
HETATM   17  O           1     -20.690  -6.659  -6.863  0.00  0.00    -0.648 OA
ENDBRANCH  14  15
ENDBRANCH  13  14
ENDBRANCH   8  13
ENDBRANCH   2   8
BRANCH   7  18
HETATM   18  C           1     -23.268 -10.631  -0.887  0.00  0.00     0.196 C 
HETATM   19  O           1     -23.700 -11.108  -1.958  0.00  0.00    -0.646 OA
HETATM   20  O           1     -24.044 -10.459   0.078  0.00  0.00    -0.646 OA
ENDBRANCH   7  18
TORSDOF 6
ENDMDL
