MODEL 1
REMARK VINA RESULT:      -6.5      0.000      0.000
REMARK  12 active torsions:
REMARK  status: ('A' for Active; 'I' for Inactive)
REMARK    1  A    between atoms: N_1  and  C_11 
REMARK    2  A    between atoms: C_2  and  C_3 
REMARK    3  A    between atoms: C_2  and  C_14 
REMARK    4  A    between atoms: C_3  and  C_4 
REMARK    5  A    between atoms: C_4  and  C_11 
REMARK    6  A    between atoms: N_5  and  C_20 
REMARK    7  A    between atoms: N_6  and  C_14 
REMARK       I    between atoms: N_6  and  C_19 
REMARK    8  A    between atoms: C_13  and  C_14 
REMARK    9  A    between atoms: C_19  and  C_20 
REMARK   10  A    between atoms: C_20  and  C_21 
REMARK   11  A    between atoms: C_21  and  C_23 
REMARK   12  A    between atoms: C_23  and  C_24 
ROOT
HETATM    1  N           1     -22.170  -4.936  -8.743  0.00  0.00    -0.345 N 
HETATM    2  O           1     -21.278  -3.651  -7.149  0.00  0.00    -0.271 OA
HETATM    3  C           1     -21.519  -4.764  -7.551  0.00  0.00     0.249 C 
HETATM    4  H           1     -22.372  -5.868  -9.080  0.00  0.00     0.163 HD
ENDROOT
BRANCH   1   5
HETATM    5  C           1     -22.572  -3.781  -9.522  0.00  0.00     0.185 C 
BRANCH   5   6
HETATM    6  C           1     -21.827  -3.782 -10.851  0.00  0.00     0.036 C 
BRANCH   6   7
HETATM    7  C           1     -22.256  -2.576 -11.675  0.00  0.00     0.004 C 
BRANCH   7   8
HETATM    8  C           1     -22.686  -3.034 -13.063  0.00  0.00     0.027 C 
BRANCH   8   9
HETATM    9  C           1     -24.094  -2.528 -13.351  0.00  0.00     0.229 C 
BRANCH   9  10
HETATM   10  N           1     -24.015  -1.242 -14.119  0.00  0.00    -0.079 N 
HETATM   11  H           1     -23.387  -1.366 -14.944  0.00  0.00     0.274 HD
HETATM   12  H           1     -24.971  -0.973 -14.447  0.00  0.00     0.274 HD
HETATM   13  H           1     -23.634  -0.490 -13.501  0.00  0.00     0.274 HD
ENDBRANCH   9  10
ENDBRANCH   8   9
ENDBRANCH   7   8
ENDBRANCH   6   7
ENDBRANCH   5   6
BRANCH   5  14
HETATM   14  C           1     -24.058  -3.838  -9.777  0.00  0.00     0.196 C 
HETATM   15  O           1     -24.774  -2.846  -9.523  0.00  0.00    -0.646 OA
HETATM   16  O           1     -24.572  -4.877 -10.244  0.00  0.00    -0.646 OA
ENDBRANCH   5  14
ENDBRANCH   1   5
BRANCH   3  17
HETATM   17  C           1     -21.101  -5.966  -6.740  0.00  0.00     0.275 C 
BRANCH  17  18
HETATM   18  N           1     -19.712  -6.376  -7.134  0.00  0.00    -0.066 N 
HETATM   19  H           1     -19.030  -5.658  -6.799  0.00  0.00     0.275 HD
HETATM   20  H           1     -19.486  -7.299  -6.701  0.00  0.00     0.275 HD
HETATM   21  H           1     -19.654  -6.452  -8.174  0.00  0.00     0.275 HD
ENDBRANCH  17  18
BRANCH  17  22
HETATM   22  C           1     -21.125  -5.613  -5.260  0.00  0.00     0.053 C 
BRANCH  22  23
HETATM   23  C           1     -22.106  -6.525  -4.535  0.00  0.00     0.115 C 
BRANCH  23  24
HETATM   24  C           1     -21.760  -6.574  -3.068  0.00  0.00     0.172 C 
HETATM   25  O           1     -20.828  -7.306  -2.669  0.00  0.00    -0.648 OA
HETATM   26  O           1     -22.406  -5.884  -2.249  0.00  0.00    -0.648 OA
ENDBRANCH  23  24
ENDBRANCH  22  23
ENDBRANCH  17  22
ENDBRANCH   3  17
TORSDOF 12
ENDMDL
MODEL 2
REMARK VINA RESULT:      -6.2      1.685      1.890
REMARK  12 active torsions:
REMARK  status: ('A' for Active; 'I' for Inactive)
REMARK    1  A    between atoms: N_1  and  C_11 
REMARK    2  A    between atoms: C_2  and  C_3 
REMARK    3  A    between atoms: C_2  and  C_14 
REMARK    4  A    between atoms: C_3  and  C_4 
REMARK    5  A    between atoms: C_4  and  C_11 
REMARK    6  A    between atoms: N_5  and  C_20 
REMARK    7  A    between atoms: N_6  and  C_14 
REMARK       I    between atoms: N_6  and  C_19 
REMARK    8  A    between atoms: C_13  and  C_14 
REMARK    9  A    between atoms: C_19  and  C_20 
REMARK   10  A    between atoms: C_20  and  C_21 
REMARK   11  A    between atoms: C_21  and  C_23 
REMARK   12  A    between atoms: C_23  and  C_24 
ROOT
HETATM    1  N           1     -22.580  -4.730  -8.099  0.00  0.00    -0.345 N 
HETATM    2  O           1     -21.254  -3.330  -6.970  0.00  0.00    -0.271 OA
HETATM    3  C           1     -21.776  -4.418  -7.035  0.00  0.00     0.249 C 
HETATM    4  H           1     -23.017  -5.640  -8.153  0.00  0.00     0.163 HD
ENDROOT
BRANCH   1   5
HETATM    5  C           1     -22.804  -3.754  -9.148  0.00  0.00     0.185 C 
BRANCH   5   6
HETATM    6  C           1     -21.904  -4.071 -10.335  0.00  0.00     0.036 C 
BRANCH   6   7
HETATM    7  C           1     -21.954  -2.921 -11.333  0.00  0.00     0.004 C 
BRANCH   7   8
HETATM    8  C           1     -22.286  -3.462 -12.717  0.00  0.00     0.027 C 
BRANCH   8   9
HETATM    9  C           1     -23.406  -2.633 -13.332  0.00  0.00     0.229 C 
BRANCH   9  10
HETATM   10  N           1     -24.704  -2.967 -12.658  0.00  0.00    -0.079 N 
HETATM   11  H           1     -24.520  -3.578 -11.831  0.00  0.00     0.274 HD
HETATM   12  H           1     -25.169  -2.086 -12.342  0.00  0.00     0.274 HD
HETATM   13  H           1     -25.326  -3.468 -13.331  0.00  0.00     0.274 HD
ENDBRANCH   9  10
ENDBRANCH   8   9
ENDBRANCH   7   8
ENDBRANCH   6   7
ENDBRANCH   5   6
BRANCH   5  14
HETATM   14  C           1     -24.248  -3.805  -9.583  0.00  0.00     0.196 C 
HETATM   15  O           1     -24.963  -2.784  -9.497  0.00  0.00    -0.646 OA
HETATM   16  O           1     -24.729  -4.869 -10.029  0.00  0.00    -0.646 OA
ENDBRANCH   5  14
ENDBRANCH   1   5
BRANCH   3  17
HETATM   17  C           1     -21.543  -5.433  -5.943  0.00  0.00     0.275 C 
BRANCH  17  18
HETATM   18  N           1     -22.863  -5.865  -5.374  0.00  0.00    -0.066 N 
HETATM   19  H           1     -23.638  -5.449  -5.938  0.00  0.00     0.275 HD
HETATM   20  H           1     -22.930  -6.907  -5.406  0.00  0.00     0.275 HD
HETATM   21  H           1     -22.939  -5.539  -4.385  0.00  0.00     0.275 HD
ENDBRANCH  17  18
BRANCH  17  22
HETATM   22  C           1     -20.819  -6.641  -6.520  0.00  0.00     0.053 C 
BRANCH  22  23
HETATM   23  C           1     -20.142  -7.413  -5.395  0.00  0.00     0.115 C 
BRANCH  23  24
HETATM   24  C           1     -20.919  -8.674  -5.109  0.00  0.00     0.172 C 
HETATM   25  O           1     -20.645  -9.730  -5.717  0.00  0.00    -0.648 OA
HETATM   26  O           1     -21.840  -8.661  -4.263  0.00  0.00    -0.648 OA
ENDBRANCH  23  24
ENDBRANCH  22  23
ENDBRANCH  17  22
ENDBRANCH   3  17
TORSDOF 12
ENDMDL
MODEL 3
REMARK VINA RESULT:      -6.1      2.819      7.600
REMARK  12 active torsions:
REMARK  status: ('A' for Active; 'I' for Inactive)
REMARK    1  A    between atoms: N_1  and  C_11 
REMARK    2  A    between atoms: C_2  and  C_3 
REMARK    3  A    between atoms: C_2  and  C_14 
REMARK    4  A    between atoms: C_3  and  C_4 
REMARK    5  A    between atoms: C_4  and  C_11 
REMARK    6  A    between atoms: N_5  and  C_20 
REMARK    7  A    between atoms: N_6  and  C_14 
REMARK       I    between atoms: N_6  and  C_19 
REMARK    8  A    between atoms: C_13  and  C_14 
REMARK    9  A    between atoms: C_19  and  C_20 
REMARK   10  A    between atoms: C_20  and  C_21 
REMARK   11  A    between atoms: C_21  and  C_23 
REMARK   12  A    between atoms: C_23  and  C_24 
ROOT
HETATM    1  N           1     -22.122  -4.876  -8.330  0.00  0.00    -0.345 N 
HETATM    2  O           1     -23.042  -2.893  -8.790  0.00  0.00    -0.271 OA
HETATM    3  C           1     -23.080  -4.093  -8.918  0.00  0.00     0.249 C 
HETATM    4  H           1     -22.154  -5.881  -8.438  0.00  0.00     0.163 HD
ENDROOT
BRANCH   1   5
HETATM    5  C           1     -21.062  -4.262  -7.554  0.00  0.00     0.185 C 
BRANCH   5   6
HETATM    6  C           1     -21.022  -4.890  -6.167  0.00  0.00     0.036 C 
BRANCH   6   7
HETATM    7  C           1     -21.373  -6.368  -6.266  0.00  0.00     0.004 C 
BRANCH   7   8
HETATM    8  C           1     -22.088  -6.808  -4.995  0.00  0.00     0.027 C 
BRANCH   8   9
HETATM    9  C           1     -21.368  -6.233  -3.783  0.00  0.00     0.229 C 
BRANCH   9  10
HETATM   10  N           1     -22.343  -6.061  -2.656  0.00  0.00    -0.079 N 
HETATM   11  H           1     -22.531  -5.044  -2.509  0.00  0.00     0.274 HD
HETATM   12  H           1     -23.237  -6.549  -2.892  0.00  0.00     0.274 HD
HETATM   13  H           1     -21.942  -6.472  -1.783  0.00  0.00     0.274 HD
ENDBRANCH   9  10
ENDBRANCH   8   9
ENDBRANCH   7   8
ENDBRANCH   6   7
ENDBRANCH   5   6
BRANCH   5  14
HETATM   14  C           1     -19.739  -4.484  -8.245  0.00  0.00     0.196 C 
HETATM   15  O           1     -19.710  -4.781  -9.458  0.00  0.00    -0.646 OA
HETATM   16  O           1     -18.672  -4.369  -7.604  0.00  0.00    -0.646 OA
ENDBRANCH   5  14
ENDBRANCH   1   5
BRANCH   3  17
HETATM   17  C           1     -24.183  -4.732  -9.726  0.00  0.00     0.275 C 
BRANCH  17  18
HETATM   18  N           1     -25.378  -3.825  -9.743  0.00  0.00    -0.066 N 
HETATM   19  H           1     -26.103  -4.192  -9.086  0.00  0.00     0.275 HD
HETATM   20  H           1     -25.091  -2.866  -9.443  0.00  0.00     0.275 HD
HETATM   21  H           1     -25.772  -3.786 -10.709  0.00  0.00     0.275 HD
ENDBRANCH  17  18
BRANCH  17  22
HETATM   22  C           1     -23.701  -4.961 -11.151  0.00  0.00     0.053 C 
BRANCH  22  23
HETATM   23  C           1     -23.237  -3.641 -11.751  0.00  0.00     0.115 C 
BRANCH  23  24
HETATM   24  C           1     -24.161  -3.245 -12.875  0.00  0.00     0.172 C 
HETATM   25  O           1     -25.345  -2.926 -12.630  0.00  0.00    -0.648 OA
HETATM   26  O           1     -23.744  -3.236 -14.054  0.00  0.00    -0.648 OA
ENDBRANCH  23  24
ENDBRANCH  22  23
ENDBRANCH  17  22
ENDBRANCH   3  17
TORSDOF 12
ENDMDL
MODEL 4
REMARK VINA RESULT:      -6.0      2.374      8.089
REMARK  12 active torsions:
REMARK  status: ('A' for Active; 'I' for Inactive)
REMARK    1  A    between atoms: N_1  and  C_11 
REMARK    2  A    between atoms: C_2  and  C_3 
REMARK    3  A    between atoms: C_2  and  C_14 
REMARK    4  A    between atoms: C_3  and  C_4 
REMARK    5  A    between atoms: C_4  and  C_11 
REMARK    6  A    between atoms: N_5  and  C_20 
REMARK    7  A    between atoms: N_6  and  C_14 
REMARK       I    between atoms: N_6  and  C_19 
REMARK    8  A    between atoms: C_13  and  C_14 
REMARK    9  A    between atoms: C_19  and  C_20 
REMARK   10  A    between atoms: C_20  and  C_21 
REMARK   11  A    between atoms: C_21  and  C_23 
REMARK   12  A    between atoms: C_23  and  C_24 
ROOT
HETATM    1  N           1     -21.561  -6.033  -6.526  0.00  0.00    -0.345 N 
HETATM    2  O           1     -20.351  -4.417  -7.480  0.00  0.00    -0.271 OA
HETATM    3  C           1     -21.376  -5.056  -7.466  0.00  0.00     0.249 C 
HETATM    4  H           1     -22.419  -6.568  -6.514  0.00  0.00     0.163 HD
ENDROOT
BRANCH   1   5
HETATM    5  C           1     -20.525  -6.302  -5.547  0.00  0.00     0.185 C 
BRANCH   5   6
HETATM    6  C           1     -20.908  -5.667  -4.217  0.00  0.00     0.036 C 
BRANCH   6   7
HETATM    7  C           1     -22.005  -6.492  -3.556  0.00  0.00     0.004 C 
BRANCH   7   8
HETATM    8  C           1     -22.083  -6.142  -2.076  0.00  0.00     0.027 C 
BRANCH   8   9
HETATM    9  C           1     -21.895  -7.404  -1.245  0.00  0.00     0.229 C 
BRANCH   9  10
HETATM   10  N           1     -20.615  -8.079  -1.643  0.00  0.00    -0.079 N 
HETATM   11  H           1     -20.073  -8.333  -0.786  0.00  0.00     0.274 HD
HETATM   12  H           1     -20.833  -8.945  -2.186  0.00  0.00     0.274 HD
HETATM   13  H           1     -20.049  -7.429  -2.234  0.00  0.00     0.274 HD
ENDBRANCH   9  10
ENDBRANCH   8   9
ENDBRANCH   7   8
ENDBRANCH   6   7
ENDBRANCH   5   6
BRANCH   5  14
HETATM   14  C           1     -20.376  -7.793  -5.369  0.00  0.00     0.196 C 
HETATM   15  O           1     -21.131  -8.575  -5.986  0.00  0.00    -0.646 OA
HETATM   16  O           1     -19.496  -8.246  -4.605  0.00  0.00    -0.646 OA
ENDBRANCH   5  14
ENDBRANCH   1   5
BRANCH   3  17
HETATM   17  C           1     -22.453  -4.776  -8.485  0.00  0.00     0.275 C 
BRANCH  17  18
HETATM   18  N           1     -23.632  -4.144  -7.804  0.00  0.00    -0.066 N 
HETATM   19  H           1     -23.689  -4.487  -6.819  0.00  0.00     0.275 HD
HETATM   20  H           1     -23.519  -3.106  -7.806  0.00  0.00     0.275 HD
HETATM   21  H           1     -24.507  -4.402  -8.313  0.00  0.00     0.275 HD
ENDBRANCH  17  18
BRANCH  17  22
HETATM   22  C           1     -21.914  -3.829  -9.548  0.00  0.00     0.053 C 
BRANCH  22  23
HETATM   23  C           1     -22.497  -4.200 -10.904  0.00  0.00     0.115 C 
BRANCH  23  24
HETATM   24  C           1     -23.547  -3.190 -11.296  0.00  0.00     0.172 C 
HETATM   25  O           1     -23.408  -2.517 -12.340  0.00  0.00    -0.648 OA
HETATM   26  O           1     -24.556  -3.025 -10.576  0.00  0.00    -0.648 OA
ENDBRANCH  23  24
ENDBRANCH  22  23
ENDBRANCH  17  22
ENDBRANCH   3  17
TORSDOF 12
ENDMDL
MODEL 5
REMARK VINA RESULT:      -5.6      2.272      3.077
REMARK  12 active torsions:
REMARK  status: ('A' for Active; 'I' for Inactive)
REMARK    1  A    between atoms: N_1  and  C_11 
REMARK    2  A    between atoms: C_2  and  C_3 
REMARK    3  A    between atoms: C_2  and  C_14 
REMARK    4  A    between atoms: C_3  and  C_4 
REMARK    5  A    between atoms: C_4  and  C_11 
REMARK    6  A    between atoms: N_5  and  C_20 
REMARK    7  A    between atoms: N_6  and  C_14 
REMARK       I    between atoms: N_6  and  C_19 
REMARK    8  A    between atoms: C_13  and  C_14 
REMARK    9  A    between atoms: C_19  and  C_20 
REMARK   10  A    between atoms: C_20  and  C_21 
REMARK   11  A    between atoms: C_21  and  C_23 
REMARK   12  A    between atoms: C_23  and  C_24 
ROOT
HETATM    1  N           1     -21.237  -4.981  -6.801  0.00  0.00    -0.345 N 
HETATM    2  O           1     -21.123  -7.211  -6.828  0.00  0.00    -0.271 OA
HETATM    3  C           1     -21.050  -6.190  -6.187  0.00  0.00     0.249 C 
HETATM    4  H           1     -21.176  -4.126  -6.264  0.00  0.00     0.163 HD
ENDROOT
BRANCH   1   5
HETATM    5  C           1     -21.522  -4.926  -8.222  0.00  0.00     0.185 C 
BRANCH   5   6
HETATM    6  C           1     -22.669  -3.956  -8.472  0.00  0.00     0.036 C 
BRANCH   6   7
HETATM    7  C           1     -23.538  -4.477  -9.608  0.00  0.00     0.004 C 
BRANCH   7   8
HETATM    8  C           1     -23.571  -3.453 -10.735  0.00  0.00     0.027 C 
BRANCH   8   9
HETATM    9  C           1     -23.225  -4.136 -12.052  0.00  0.00     0.229 C 
BRANCH   9  10
HETATM   10  N           1     -21.816  -3.795 -12.437  0.00  0.00    -0.079 N 
HETATM   11  H           1     -21.151  -4.363 -11.865  0.00  0.00     0.274 HD
HETATM   12  H           1     -21.672  -4.006 -13.450  0.00  0.00     0.274 HD
HETATM   13  H           1     -21.645  -2.779 -12.264  0.00  0.00     0.274 HD
ENDBRANCH   9  10
ENDBRANCH   8   9
ENDBRANCH   7   8
ENDBRANCH   6   7
ENDBRANCH   5   6
BRANCH   5  14
HETATM   14  C           1     -20.294  -4.458  -8.963  0.00  0.00     0.196 C 
HETATM   15  O           1     -20.143  -4.749 -10.169  0.00  0.00    -0.646 OA
HETATM   16  O           1     -19.428  -3.778  -8.371  0.00  0.00    -0.646 OA
ENDBRANCH   5  14
ENDBRANCH   1   5
BRANCH   3  17
HETATM   17  C           1     -20.754  -6.247  -4.708  0.00  0.00     0.275 C 
BRANCH  17  18
HETATM   18  N           1     -20.312  -4.893  -4.236  0.00  0.00    -0.066 N 
HETATM   19  H           1     -21.046  -4.485  -3.614  0.00  0.00     0.275 HD
HETATM   20  H           1     -19.417  -4.986  -3.703  0.00  0.00     0.275 HD
HETATM   21  H           1     -20.166  -4.268  -5.060  0.00  0.00     0.275 HD
ENDBRANCH  17  18
BRANCH  17  22
HETATM   22  C           1     -22.009  -6.662  -3.954  0.00  0.00     0.053 C 
BRANCH  22  23
HETATM   23  C           1     -22.005  -6.026  -2.571  0.00  0.00     0.115 C 
BRANCH  23  24
HETATM   24  C           1     -22.015  -7.107  -1.518  0.00  0.00     0.172 C 
HETATM   25  O           1     -22.802  -7.029  -0.550  0.00  0.00    -0.648 OA
HETATM   26  O           1     -21.235  -8.079  -1.613  0.00  0.00    -0.648 OA
ENDBRANCH  23  24
ENDBRANCH  22  23
ENDBRANCH  17  22
ENDBRANCH   3  17
TORSDOF 12
ENDMDL
MODEL 6
REMARK VINA RESULT:      -5.6      3.011      4.108
REMARK  12 active torsions:
REMARK  status: ('A' for Active; 'I' for Inactive)
REMARK    1  A    between atoms: N_1  and  C_11 
REMARK    2  A    between atoms: C_2  and  C_3 
REMARK    3  A    between atoms: C_2  and  C_14 
REMARK    4  A    between atoms: C_3  and  C_4 
REMARK    5  A    between atoms: C_4  and  C_11 
REMARK    6  A    between atoms: N_5  and  C_20 
REMARK    7  A    between atoms: N_6  and  C_14 
REMARK       I    between atoms: N_6  and  C_19 
REMARK    8  A    between atoms: C_13  and  C_14 
REMARK    9  A    between atoms: C_19  and  C_20 
REMARK   10  A    between atoms: C_20  and  C_21 
REMARK   11  A    between atoms: C_21  and  C_23 
REMARK   12  A    between atoms: C_23  and  C_24 
ROOT
HETATM    1  N           1     -21.855  -6.205  -5.665  0.00  0.00    -0.345 N 
HETATM    2  O           1     -20.445  -7.885  -6.089  0.00  0.00    -0.271 OA
HETATM    3  C           1     -21.297  -7.420  -5.370  0.00  0.00     0.249 C 
HETATM    4  H           1     -22.568  -5.816  -5.062  0.00  0.00     0.163 HD
ENDROOT
BRANCH   1   5
HETATM    5  C           1     -21.424  -5.477  -6.842  0.00  0.00     0.185 C 
BRANCH   5   6
HETATM    6  C           1     -22.491  -4.460  -7.228  0.00  0.00     0.036 C 
BRANCH   6   7
HETATM    7  C           1     -22.200  -3.922  -8.623  0.00  0.00     0.004 C 
BRANCH   7   8
HETATM    8  C           1     -23.133  -4.584  -9.628  0.00  0.00     0.027 C 
BRANCH   8   9
HETATM    9  C           1     -24.031  -3.528 -10.259  0.00  0.00     0.229 C 
BRANCH   9  10
HETATM   10  N           1     -25.389  -3.583  -9.625  0.00  0.00    -0.079 N 
HETATM   11  H           1     -25.443  -4.407  -8.985  0.00  0.00     0.274 HD
HETATM   12  H           1     -25.553  -2.707  -9.078  0.00  0.00     0.274 HD
HETATM   13  H           1     -26.118  -3.671 -10.369  0.00  0.00     0.274 HD
ENDBRANCH   9  10
ENDBRANCH   8   9
ENDBRANCH   7   8
ENDBRANCH   6   7
ENDBRANCH   5   6
BRANCH   5  14
HETATM   14  C           1     -20.130  -4.761  -6.545  0.00  0.00     0.196 C 
HETATM   15  O           1     -19.258  -4.651  -7.433  0.00  0.00    -0.646 OA
HETATM   16  O           1     -19.930  -4.277  -5.410  0.00  0.00    -0.646 OA
ENDBRANCH   5  14
ENDBRANCH   1   5
BRANCH   3  17
HETATM   17  C           1     -21.745  -8.178  -4.144  0.00  0.00     0.275 C 
BRANCH  17  18
HETATM   18  N           1     -21.426  -9.635  -4.314  0.00  0.00    -0.066 N 
HETATM   19  H           1     -22.184 -10.209  -3.881  0.00  0.00     0.275 HD
HETATM   20  H           1     -21.359  -9.859  -5.332  0.00  0.00     0.275 HD
HETATM   21  H           1     -20.517  -9.848  -3.847  0.00  0.00     0.275 HD
ENDBRANCH  17  18
BRANCH  17  22
HETATM   22  C           1     -21.019  -7.640  -2.920  0.00  0.00     0.053 C 
BRANCH  22  23
HETATM   23  C           1     -21.479  -8.397  -1.681  0.00  0.00     0.115 C 
BRANCH  23  24
HETATM   24  C           1     -22.177  -7.447  -0.740  0.00  0.00     0.172 C 
HETATM   25  O           1     -22.575  -6.337  -1.152  0.00  0.00    -0.648 OA
HETATM   26  O           1     -22.355  -7.771   0.455  0.00  0.00    -0.648 OA
ENDBRANCH  23  24
ENDBRANCH  22  23
ENDBRANCH  17  22
ENDBRANCH   3  17
TORSDOF 12
ENDMDL
MODEL 7
REMARK VINA RESULT:      -5.4      2.324      7.965
REMARK  12 active torsions:
REMARK  status: ('A' for Active; 'I' for Inactive)
REMARK    1  A    between atoms: N_1  and  C_11 
REMARK    2  A    between atoms: C_2  and  C_3 
REMARK    3  A    between atoms: C_2  and  C_14 
REMARK    4  A    between atoms: C_3  and  C_4 
REMARK    5  A    between atoms: C_4  and  C_11 
REMARK    6  A    between atoms: N_5  and  C_20 
REMARK    7  A    between atoms: N_6  and  C_14 
REMARK       I    between atoms: N_6  and  C_19 
REMARK    8  A    between atoms: C_13  and  C_14 
REMARK    9  A    between atoms: C_19  and  C_20 
REMARK   10  A    between atoms: C_20  and  C_21 
REMARK   11  A    between atoms: C_21  and  C_23 
REMARK   12  A    between atoms: C_23  and  C_24 
ROOT
HETATM    1  N           1     -21.145  -4.894  -8.099  0.00  0.00    -0.345 N 
HETATM    2  O           1     -23.192  -4.007  -7.994  0.00  0.00    -0.271 OA
HETATM    3  C           1     -22.227  -4.277  -8.668  0.00  0.00     0.249 C 
HETATM    4  H           1     -20.337  -5.121  -8.663  0.00  0.00     0.163 HD
ENDROOT
BRANCH   1   5
HETATM    5  C           1     -21.159  -5.224  -6.687  0.00  0.00     0.185 C 
BRANCH   5   6
HETATM    6  C           1     -21.226  -6.736  -6.519  0.00  0.00     0.036 C 
BRANCH   6   7
HETATM    7  C           1     -21.983  -7.073  -5.241  0.00  0.00     0.004 C 
BRANCH   7   8
HETATM    8  C           1     -21.032  -7.721  -4.243  0.00  0.00     0.027 C 
BRANCH   8   9
HETATM    9  C           1     -21.256  -7.118  -2.863  0.00  0.00     0.229 C 
BRANCH   9  10
HETATM   10  N           1     -20.532  -7.937  -1.835  0.00  0.00    -0.079 N 
HETATM   11  H           1     -20.401  -7.371  -0.967  0.00  0.00     0.274 HD
HETATM   12  H           1     -21.094  -8.790  -1.613  0.00  0.00     0.274 HD
HETATM   13  H           1     -19.599  -8.221  -2.210  0.00  0.00     0.274 HD
ENDBRANCH   9  10
ENDBRANCH   8   9
ENDBRANCH   7   8
ENDBRANCH   6   7
ENDBRANCH   5   6
BRANCH   5  14
HETATM   14  C           1     -19.902  -4.700  -6.036  0.00  0.00     0.196 C 
HETATM   15  O           1     -18.860  -4.561  -6.711  0.00  0.00    -0.646 OA
HETATM   16  O           1     -19.904  -4.406  -4.821  0.00  0.00    -0.646 OA
ENDBRANCH   5  14
ENDBRANCH   1   5
BRANCH   3  17
HETATM   17  C           1     -22.213  -3.935 -10.137  0.00  0.00     0.275 C 
BRANCH  17  18
HETATM   18  N           1     -20.997  -4.537 -10.779  0.00  0.00    -0.066 N 
HETATM   19  H           1     -20.685  -5.365 -10.222  0.00  0.00     0.275 HD
HETATM   20  H           1     -21.230  -4.839 -11.751  0.00  0.00     0.275 HD
HETATM   21  H           1     -20.231  -3.828 -10.806  0.00  0.00     0.275 HD
ENDBRANCH  17  18
BRANCH  17  22
HETATM   22  C           1     -23.464  -4.492 -10.801  0.00  0.00     0.053 C 
BRANCH  22  23
HETATM   23  C           1     -24.322  -3.343 -11.315  0.00  0.00     0.115 C 
BRANCH  23  24
HETATM   24  C           1     -23.901  -2.989 -12.720  0.00  0.00     0.172 C 
HETATM   25  O           1     -22.755  -3.283 -13.123  0.00  0.00    -0.648 OA
HETATM   26  O           1     -24.699  -2.399 -13.481  0.00  0.00    -0.648 OA
ENDBRANCH  23  24
ENDBRANCH  22  23
ENDBRANCH  17  22
ENDBRANCH   3  17
TORSDOF 12
ENDMDL
MODEL 8
REMARK VINA RESULT:      -5.3      4.057      8.884
REMARK  12 active torsions:
REMARK  status: ('A' for Active; 'I' for Inactive)
REMARK    1  A    between atoms: N_1  and  C_11 
REMARK    2  A    between atoms: C_2  and  C_3 
REMARK    3  A    between atoms: C_2  and  C_14 
REMARK    4  A    between atoms: C_3  and  C_4 
REMARK    5  A    between atoms: C_4  and  C_11 
REMARK    6  A    between atoms: N_5  and  C_20 
REMARK    7  A    between atoms: N_6  and  C_14 
REMARK       I    between atoms: N_6  and  C_19 
REMARK    8  A    between atoms: C_13  and  C_14 
REMARK    9  A    between atoms: C_19  and  C_20 
REMARK   10  A    between atoms: C_20  and  C_21 
REMARK   11  A    between atoms: C_21  and  C_23 
REMARK   12  A    between atoms: C_23  and  C_24 
ROOT
HETATM    1  N           1     -20.922  -7.721  -3.863  0.00  0.00    -0.345 N 
HETATM    2  O           1     -19.498  -8.104  -5.541  0.00  0.00    -0.271 OA
HETATM    3  C           1     -20.416  -7.451  -5.106  0.00  0.00     0.249 C 
HETATM    4  H           1     -21.691  -7.174  -3.500  0.00  0.00     0.163 HD
ENDROOT
BRANCH   1   5
HETATM    5  C           1     -20.355  -8.793  -3.068  0.00  0.00     0.185 C 
BRANCH   5   6
HETATM    6  C           1     -20.498  -8.458  -1.589  0.00  0.00     0.036 C 
BRANCH   6   7
HETATM    7  C           1     -21.563  -7.383  -1.412  0.00  0.00     0.004 C 
BRANCH   7   8
HETATM    8  C           1     -22.481  -7.762  -0.257  0.00  0.00     0.027 C 
BRANCH   8   9
HETATM    9  C           1     -22.247  -9.219   0.121  0.00  0.00     0.229 C 
BRANCH   9  10
HETATM   10  N           1     -23.394 -10.053  -0.367  0.00  0.00    -0.079 N 
HETATM   11  H           1     -23.701  -9.710  -1.305  0.00  0.00     0.274 HD
HETATM   12  H           1     -23.092 -11.051  -0.442  0.00  0.00     0.274 HD
HETATM   13  H           1     -24.189  -9.979   0.308  0.00  0.00     0.274 HD
ENDBRANCH   9  10
ENDBRANCH   8   9
ENDBRANCH   7   8
ENDBRANCH   6   7
ENDBRANCH   5   6
BRANCH   5  14
HETATM   14  C           1     -21.083 -10.080  -3.366  0.00  0.00     0.196 C 
HETATM   15  O           1     -22.332 -10.114  -3.330  0.00  0.00    -0.646 OA
HETATM   16  O           1     -20.438 -11.113  -3.648  0.00  0.00    -0.646 OA
ENDBRANCH   5  14
ENDBRANCH   1   5
BRANCH   3  17
HETATM   17  C           1     -21.006  -6.335  -5.934  0.00  0.00     0.275 C 
BRANCH  17  18
HETATM   18  N           1     -22.353  -5.966  -5.385  0.00  0.00    -0.066 N 
HETATM   19  H           1     -23.033  -5.863  -6.172  0.00  0.00     0.275 HD
HETATM   20  H           1     -22.682  -6.716  -4.737  0.00  0.00     0.275 HD
HETATM   21  H           1     -22.281  -5.062  -4.867  0.00  0.00     0.275 HD
ENDBRANCH  17  18
BRANCH  17  22
HETATM   22  C           1     -20.087  -5.123  -5.882  0.00  0.00     0.053 C 
BRANCH  22  23
HETATM   23  C           1     -19.644  -4.759  -7.292  0.00  0.00     0.115 C 
BRANCH  23  24
HETATM   24  C           1     -20.770  -4.057  -8.010  0.00  0.00     0.172 C 
HETATM   25  O           1     -20.844  -4.107  -9.257  0.00  0.00    -0.648 OA
HETATM   26  O           1     -21.628  -3.423  -7.357  0.00  0.00    -0.648 OA
ENDBRANCH  23  24
ENDBRANCH  22  23
ENDBRANCH  17  22
ENDBRANCH   3  17
TORSDOF 12
ENDMDL
MODEL 9
REMARK VINA RESULT:      -5.3      2.517      7.441
REMARK  12 active torsions:
REMARK  status: ('A' for Active; 'I' for Inactive)
REMARK    1  A    between atoms: N_1  and  C_11 
REMARK    2  A    between atoms: C_2  and  C_3 
REMARK    3  A    between atoms: C_2  and  C_14 
REMARK    4  A    between atoms: C_3  and  C_4 
REMARK    5  A    between atoms: C_4  and  C_11 
REMARK    6  A    between atoms: N_5  and  C_20 
REMARK    7  A    between atoms: N_6  and  C_14 
REMARK       I    between atoms: N_6  and  C_19 
REMARK    8  A    between atoms: C_13  and  C_14 
REMARK    9  A    between atoms: C_19  and  C_20 
REMARK   10  A    between atoms: C_20  and  C_21 
REMARK   11  A    between atoms: C_21  and  C_23 
REMARK   12  A    between atoms: C_23  and  C_24 
ROOT
HETATM    1  N           1     -21.956  -5.100  -8.701  0.00  0.00    -0.345 N 
HETATM    2  O           1     -23.752  -3.923  -8.089  0.00  0.00    -0.271 OA
HETATM    3  C           1     -23.181  -4.544  -8.953  0.00  0.00     0.249 C 
HETATM    4  H           1     -21.478  -5.621  -9.425  0.00  0.00     0.163 HD
ENDROOT
BRANCH   1   5
HETATM    5  C           1     -21.344  -4.944  -7.396  0.00  0.00     0.185 C 
BRANCH   5   6
HETATM    6  C           1     -21.341  -6.284  -6.673  0.00  0.00     0.036 C 
BRANCH   6   7
HETATM    7  C           1     -22.068  -6.146  -5.342  0.00  0.00     0.004 C 
BRANCH   7   8
HETATM    8  C           1     -21.272  -6.851  -4.252  0.00  0.00     0.027 C 
BRANCH   8   9
HETATM    9  C           1     -21.755  -6.381  -2.886  0.00  0.00     0.229 C 
BRANCH   9  10
HETATM   10  N           1     -21.258  -7.322  -1.829  0.00  0.00    -0.079 N 
HETATM   11  H           1     -20.814  -8.152  -2.281  0.00  0.00     0.274 HD
HETATM   12  H           1     -20.554  -6.833  -1.231  0.00  0.00     0.274 HD
HETATM   13  H           1     -22.061  -7.635  -1.237  0.00  0.00     0.274 HD
ENDBRANCH   9  10
ENDBRANCH   8   9
ENDBRANCH   7   8
ENDBRANCH   6   7
ENDBRANCH   5   6
BRANCH   5  14
HETATM   14  C           1     -19.925  -4.458  -7.561  0.00  0.00     0.196 C 
HETATM   15  O           1     -18.981  -5.098  -7.050  0.00  0.00    -0.646 OA
HETATM   16  O           1     -19.693  -3.414  -8.210  0.00  0.00    -0.646 OA
ENDBRANCH   5  14
ENDBRANCH   1   5
BRANCH   3  17
HETATM   17  C           1     -23.818  -4.707 -10.312  0.00  0.00     0.275 C 
BRANCH  17  18
HETATM   18  N           1     -24.735  -3.548 -10.575  0.00  0.00    -0.066 N 
HETATM   19  H           1     -25.726  -3.853 -10.444  0.00  0.00     0.275 HD
HETATM   20  H           1     -24.517  -2.774  -9.908  0.00  0.00     0.275 HD
HETATM   21  H           1     -24.600  -3.214 -11.555  0.00  0.00     0.275 HD
ENDBRANCH  17  18
BRANCH  17  22
HETATM   22  C           1     -22.734  -4.748 -11.380  0.00  0.00     0.053 C 
BRANCH  22  23
HETATM   23  C           1     -22.217  -3.339 -11.635  0.00  0.00     0.115 C 
BRANCH  23  24
HETATM   24  C           1     -20.731  -3.292 -11.380  0.00  0.00     0.172 C 
HETATM   25  O           1     -20.153  -2.192 -11.254  0.00  0.00    -0.648 OA
HETATM   26  O           1     -20.078  -4.355 -11.297  0.00  0.00    -0.648 OA
ENDBRANCH  23  24
ENDBRANCH  22  23
ENDBRANCH  17  22
ENDBRANCH   3  17
TORSDOF 12
ENDMDL
