MODEL 1
REMARK VINA RESULT:      -5.5      0.000      0.000
REMARK  9 active torsions:
REMARK  status: ('A' for Active; 'I' for Inactive)
REMARK    1  A    between atoms: C_1  and  C_12 
REMARK    2  A    between atoms: C_1  and  C_5 
REMARK    3  A    between atoms: C_2  and  Se_10 
REMARK    4  A    between atoms: C_2  and  C_14 
REMARK    5  A    between atoms: N_8  and  C_12 
REMARK    6  A    between atoms: N_11  and  C_20 
REMARK       I    between atoms: N_11  and  C_19 
REMARK    7  A    between atoms: C_12  and  C_19 
REMARK    8  A    between atoms: C_14  and  C_20 
REMARK    9  A    between atoms: C_18  and  C_20 
ROOT
HETATM    1  H           1     -22.592  -6.616  -7.172  0.00  0.00     0.163 HD
HETATM    2  N           1     -22.024  -5.856  -6.821  0.00  0.00    -0.345 N 
HETATM    3  O           1     -21.361  -3.734  -7.035  0.00  0.00    -0.271 OA
HETATM    4  C           1     -22.039  -4.642  -7.454  0.00  0.00     0.249 C 
ENDROOT
BRANCH   4   5
HETATM    5  C           1     -22.902  -4.438  -8.675  0.00  0.00     0.275 C 
BRANCH   5   6
HETATM    6  C           1     -22.202  -3.490  -9.640  0.00  0.00     0.046 C 
BRANCH   6   7
HETATM    7  C           1     -21.741  -4.265 -10.867  0.00  0.00    -0.020 C 
HETATM    8  C           1     -22.113  -3.493 -12.126  0.00  0.00     0.009 C 
HETATM    9  C           1     -20.229  -4.448 -10.814  0.00  0.00     0.009 C 
ENDBRANCH   6   7
ENDBRANCH   5   6
BRANCH   5  10
HETATM   10  N           1     -24.218  -3.848  -8.262  0.00  0.00    -0.066 N 
HETATM   11  H           1     -24.992  -4.491  -8.544  0.00  0.00     0.275 HD
HETATM   12  H           1     -24.346  -2.923  -8.730  0.00  0.00     0.275 HD
HETATM   13  H           1     -24.233  -3.720  -7.225  0.00  0.00     0.275 HD
ENDBRANCH   5  10
ENDBRANCH   4   5
BRANCH   2  14
HETATM   14  C           1     -21.194  -6.052  -5.648  0.00  0.00     0.185 C 
BRANCH  14  15
HETATM   15  C           1     -22.034  -6.648  -4.527  0.00  0.00     0.036 C 
BRANCH  15  16
HETATM   16  C           1     -21.552  -6.106  -3.188  0.00  0.00     0.003 C 
BRANCH  16  17
HETATM   17 Se           1     -21.077  -7.590  -2.017  0.00  0.00     0.000 Se
HETATM   18  C           1     -22.424  -7.174  -0.672  0.00  0.00     0.000 C 
ENDBRANCH  16  17
ENDBRANCH  15  16
ENDBRANCH  14  15
BRANCH  14  19
HETATM   19  C           1     -20.062  -6.992  -5.984  0.00  0.00     0.196 C 
HETATM   20  O           1     -19.949  -8.077  -5.374  0.00  0.00    -0.646 OA
HETATM   21  O           1     -19.239  -6.685  -6.872  0.00  0.00    -0.646 OA
ENDBRANCH  14  19
ENDBRANCH   2  14
TORSDOF 9
ENDMDL
MODEL 2
REMARK VINA RESULT:      -5.1      2.589      3.532
REMARK  9 active torsions:
REMARK  status: ('A' for Active; 'I' for Inactive)
REMARK    1  A    between atoms: C_1  and  C_12 
REMARK    2  A    between atoms: C_1  and  C_5 
REMARK    3  A    between atoms: C_2  and  Se_10 
REMARK    4  A    between atoms: C_2  and  C_14 
REMARK    5  A    between atoms: N_8  and  C_12 
REMARK    6  A    between atoms: N_11  and  C_20 
REMARK       I    between atoms: N_11  and  C_19 
REMARK    7  A    between atoms: C_12  and  C_19 
REMARK    8  A    between atoms: C_14  and  C_20 
REMARK    9  A    between atoms: C_18  and  C_20 
ROOT
HETATM    1  H           1     -19.925  -6.469  -4.945  0.00  0.00     0.163 HD
HETATM    2  N           1     -20.937  -6.493  -4.928  0.00  0.00    -0.345 N 
HETATM    3  O           1     -22.863  -5.689  -5.722  0.00  0.00    -0.271 OA
HETATM    4  C           1     -21.656  -5.659  -5.742  0.00  0.00     0.249 C 
ENDROOT
BRANCH   4   5
HETATM    5  C           1     -20.939  -4.704  -6.665  0.00  0.00     0.275 C 
BRANCH   5   6
HETATM    6  C           1     -21.034  -5.215  -8.097  0.00  0.00     0.046 C 
BRANCH   6   7
HETATM    7  C           1     -21.379  -4.060  -9.027  0.00  0.00    -0.020 C 
HETATM    8  C           1     -20.585  -4.191 -10.319  0.00  0.00     0.009 C 
HETATM    9  C           1     -22.869  -4.089  -9.343  0.00  0.00     0.009 C 
ENDBRANCH   6   7
ENDBRANCH   5   6
BRANCH   5  10
HETATM   10  N           1     -19.498  -4.608  -6.264  0.00  0.00    -0.066 N 
HETATM   11  H           1     -19.382  -4.974  -5.291  0.00  0.00     0.275 HD
HETATM   12  H           1     -19.193  -3.610  -6.298  0.00  0.00     0.275 HD
HETATM   13  H           1     -18.914  -5.175  -6.920  0.00  0.00     0.275 HD
ENDBRANCH   5  10
ENDBRANCH   4   5
BRANCH   2  14
HETATM   14  C           1     -21.625  -7.411  -4.041  0.00  0.00     0.185 C 
BRANCH  14  15
HETATM   15  C           1     -20.940  -8.770  -4.086  0.00  0.00     0.036 C 
BRANCH  15  16
HETATM   16  C           1     -19.641  -8.658  -4.873  0.00  0.00     0.003 C 
BRANCH  16  17
HETATM   17 Se           1     -18.525 -10.214  -4.512  0.00  0.00     0.000 Se
HETATM   18  C           1     -17.680  -9.446  -2.933  0.00  0.00     0.000 C 
ENDBRANCH  16  17
ENDBRANCH  15  16
ENDBRANCH  14  15
BRANCH  14  19
HETATM   19  C           1     -21.585  -6.873  -2.631  0.00  0.00     0.196 C 
HETATM   20  O           1     -20.802  -7.372  -1.794  0.00  0.00    -0.646 OA
HETATM   21  O           1     -22.334  -5.929  -2.302  0.00  0.00    -0.646 OA
ENDBRANCH  14  19
ENDBRANCH   2  14
TORSDOF 9
ENDMDL
MODEL 3
REMARK VINA RESULT:      -5.0      3.545      5.395
REMARK  9 active torsions:
REMARK  status: ('A' for Active; 'I' for Inactive)
REMARK    1  A    between atoms: C_1  and  C_12 
REMARK    2  A    between atoms: C_1  and  C_5 
REMARK    3  A    between atoms: C_2  and  Se_10 
REMARK    4  A    between atoms: C_2  and  C_14 
REMARK    5  A    between atoms: N_8  and  C_12 
REMARK    6  A    between atoms: N_11  and  C_20 
REMARK       I    between atoms: N_11  and  C_19 
REMARK    7  A    between atoms: C_12  and  C_19 
REMARK    8  A    between atoms: C_14  and  C_20 
REMARK    9  A    between atoms: C_18  and  C_20 
ROOT
HETATM    1  H           1     -20.155  -7.018  -2.443  0.00  0.00     0.163 HD
HETATM    2  N           1     -20.858  -7.716  -2.651  0.00  0.00    -0.345 N 
HETATM    3  O           1     -21.862  -8.994  -4.183  0.00  0.00    -0.271 OA
HETATM    4  C           1     -21.022  -8.161  -3.936  0.00  0.00     0.249 C 
ENDROOT
BRANCH   4   5
HETATM    5  C           1     -20.154  -7.612  -5.041  0.00  0.00     0.275 C 
BRANCH   5   6
HETATM    6  C           1     -21.033  -6.958  -6.100  0.00  0.00     0.046 C 
BRANCH   6   7
HETATM    7  C           1     -20.292  -5.782  -6.720  0.00  0.00    -0.020 C 
HETATM    8  C           1     -21.094  -5.236  -7.893  0.00  0.00     0.009 C 
HETATM    9  C           1     -20.112  -4.688  -5.676  0.00  0.00     0.009 C 
ENDBRANCH   6   7
ENDBRANCH   5   6
BRANCH   5  10
HETATM   10  N           1     -19.371  -8.730  -5.662  0.00  0.00    -0.066 N 
HETATM   11  H           1     -18.871  -8.376  -6.509  0.00  0.00     0.275 HD
HETATM   12  H           1     -20.022  -9.499  -5.938  0.00  0.00     0.275 HD
HETATM   13  H           1     -18.674  -9.093  -4.973  0.00  0.00     0.275 HD
ENDBRANCH   5  10
ENDBRANCH   4   5
BRANCH   2  14
HETATM   14  C           1     -21.692  -8.243  -1.588  0.00  0.00     0.185 C 
BRANCH  14  15
HETATM   15  C           1     -20.815  -8.913  -0.540  0.00  0.00     0.036 C 
BRANCH  15  16
HETATM   16  C           1     -21.382 -10.286  -0.204  0.00  0.00     0.003 C 
BRANCH  16  17
HETATM   17 Se           1     -21.067 -11.502  -1.694  0.00  0.00     0.000 Se
HETATM   18  C           1     -22.954 -11.707  -2.138  0.00  0.00     0.000 C 
ENDBRANCH  16  17
ENDBRANCH  15  16
ENDBRANCH  14  15
BRANCH  14  19
HETATM   19  C           1     -22.468  -7.116  -0.951  0.00  0.00     0.196 C 
HETATM   20  O           1     -22.385  -5.959  -1.417  0.00  0.00    -0.646 OA
HETATM   21  O           1     -23.192  -7.340   0.042  0.00  0.00    -0.646 OA
ENDBRANCH  14  19
ENDBRANCH   2  14
TORSDOF 9
ENDMDL
MODEL 4
REMARK VINA RESULT:      -5.0      5.318      8.438
REMARK  9 active torsions:
REMARK  status: ('A' for Active; 'I' for Inactive)
REMARK    1  A    between atoms: C_1  and  C_12 
REMARK    2  A    between atoms: C_1  and  C_5 
REMARK    3  A    between atoms: C_2  and  Se_10 
REMARK    4  A    between atoms: C_2  and  C_14 
REMARK    5  A    between atoms: N_8  and  C_12 
REMARK    6  A    between atoms: N_11  and  C_20 
REMARK       I    between atoms: N_11  and  C_19 
REMARK    7  A    between atoms: C_12  and  C_19 
REMARK    8  A    between atoms: C_14  and  C_20 
REMARK    9  A    between atoms: C_18  and  C_20 
ROOT
HETATM    1  H           1     -22.736  -8.208  -1.716  0.00  0.00     0.163 HD
HETATM    2  N           1     -21.786  -8.420  -1.993  0.00  0.00    -0.345 N 
HETATM    3  O           1     -19.896  -9.534  -1.573  0.00  0.00    -0.271 OA
HETATM    4  C           1     -21.030  -9.281  -1.242  0.00  0.00     0.249 C 
ENDROOT
BRANCH   4   5
HETATM    5  C           1     -21.614  -9.915  -0.004  0.00  0.00     0.275 C 
BRANCH   5   6
HETATM    6  C           1     -23.128  -9.742  -0.011  0.00  0.00     0.046 C 
BRANCH   6   7
HETATM    7  C           1     -23.794 -11.103  -0.161  0.00  0.00    -0.020 C 
HETATM    8  C           1     -23.927 -11.445  -1.639  0.00  0.00     0.009 C 
HETATM    9  C           1     -22.946 -12.162   0.530  0.00  0.00     0.009 C 
ENDBRANCH   6   7
ENDBRANCH   5   6
BRANCH   5  10
HETATM   10  N           1     -21.041  -9.254   1.213  0.00  0.00    -0.066 N 
HETATM   11  H           1     -21.789  -9.143   1.935  0.00  0.00     0.275 HD
HETATM   12  H           1     -20.665  -8.314   0.954  0.00  0.00     0.275 HD
HETATM   13  H           1     -20.270  -9.844   1.600  0.00  0.00     0.275 HD
ENDBRANCH   5  10
ENDBRANCH   4   5
BRANCH   2  14
HETATM   14  C           1     -21.224  -7.811  -3.183  0.00  0.00     0.185 C 
BRANCH  14  15
HETATM   15  C           1     -21.740  -8.539  -4.416  0.00  0.00     0.036 C 
BRANCH  15  16
HETATM   16  C           1     -20.639  -9.429  -4.978  0.00  0.00     0.003 C 
BRANCH  16  17
HETATM   17 Se           1     -21.093 -11.299  -4.669  0.00  0.00     0.000 Se
HETATM   18  C           1     -21.401 -11.705  -6.551  0.00  0.00     0.000 C 
ENDBRANCH  16  17
ENDBRANCH  15  16
ENDBRANCH  14  15
BRANCH  14  19
HETATM   19  C           1     -21.634  -6.359  -3.246  0.00  0.00     0.196 C 
HETATM   20  O           1     -22.255  -5.843  -2.292  0.00  0.00    -0.646 OA
HETATM   21  O           1     -21.352  -5.675  -4.252  0.00  0.00    -0.646 OA
ENDBRANCH  14  19
ENDBRANCH   2  14
TORSDOF 9
ENDMDL
MODEL 5
REMARK VINA RESULT:      -4.9      2.547      4.005
REMARK  9 active torsions:
REMARK  status: ('A' for Active; 'I' for Inactive)
REMARK    1  A    between atoms: C_1  and  C_12 
REMARK    2  A    between atoms: C_1  and  C_5 
REMARK    3  A    between atoms: C_2  and  Se_10 
REMARK    4  A    between atoms: C_2  and  C_14 
REMARK    5  A    between atoms: N_8  and  C_12 
REMARK    6  A    between atoms: N_11  and  C_20 
REMARK       I    between atoms: N_11  and  C_19 
REMARK    7  A    between atoms: C_12  and  C_19 
REMARK    8  A    between atoms: C_14  and  C_20 
REMARK    9  A    between atoms: C_18  and  C_20 
ROOT
HETATM    1  H           1     -22.169  -7.223  -3.408  0.00  0.00     0.163 HD
HETATM    2  N           1     -21.290  -7.609  -3.728  0.00  0.00    -0.345 N 
HETATM    3  O           1     -19.712  -7.667  -5.308  0.00  0.00    -0.271 OA
HETATM    4  C           1     -20.762  -7.207  -4.926  0.00  0.00     0.249 C 
ENDROOT
BRANCH   4   5
HETATM    5  C           1     -21.490  -6.189  -5.768  0.00  0.00     0.275 C 
BRANCH   5   6
HETATM    6  C           1     -20.752  -4.858  -5.708  0.00  0.00     0.046 C 
BRANCH   6   7
HETATM    7  C           1     -20.454  -4.377  -7.121  0.00  0.00    -0.020 C 
HETATM    8  C           1     -18.969  -4.543  -7.414  0.00  0.00     0.009 C 
HETATM    9  C           1     -21.262  -5.198  -8.118  0.00  0.00     0.009 C 
ENDBRANCH   6   7
ENDBRANCH   5   6
BRANCH   5  10
HETATM   10  N           1     -22.884  -6.012  -5.243  0.00  0.00    -0.066 N 
HETATM   11  H           1     -23.556  -5.974  -6.043  0.00  0.00     0.275 HD
HETATM   12  H           1     -22.940  -5.121  -4.700  0.00  0.00     0.275 HD
HETATM   13  H           1     -23.127  -6.816  -4.622  0.00  0.00     0.275 HD
ENDBRANCH   5  10
ENDBRANCH   4   5
BRANCH   2  14
HETATM   14  C           1     -20.590  -8.587  -2.919  0.00  0.00     0.185 C 
BRANCH  14  15
HETATM   15  C           1     -20.580  -8.130  -1.467  0.00  0.00     0.036 C 
BRANCH  15  16
HETATM   16  C           1     -21.860  -7.361  -1.167  0.00  0.00     0.003 C 
BRANCH  16  17
HETATM   17 Se           1     -22.742  -8.145   0.384  0.00  0.00     0.000 Se
HETATM   18  C           1     -21.228  -9.266   0.883  0.00  0.00     0.000 C 
ENDBRANCH  16  17
ENDBRANCH  15  16
ENDBRANCH  14  15
BRANCH  14  19
HETATM   19  C           1     -21.291  -9.920  -3.023  0.00  0.00     0.196 C 
HETATM   20  O           1     -20.939 -10.870  -2.290  0.00  0.00    -0.646 OA
HETATM   21  O           1     -22.222 -10.073  -3.841  0.00  0.00    -0.646 OA
ENDBRANCH  14  19
ENDBRANCH   2  14
TORSDOF 9
ENDMDL
MODEL 6
REMARK VINA RESULT:      -4.9      2.047      2.812
REMARK  9 active torsions:
REMARK  status: ('A' for Active; 'I' for Inactive)
REMARK    1  A    between atoms: C_1  and  C_12 
REMARK    2  A    between atoms: C_1  and  C_5 
REMARK    3  A    between atoms: C_2  and  Se_10 
REMARK    4  A    between atoms: C_2  and  C_14 
REMARK    5  A    between atoms: N_8  and  C_12 
REMARK    6  A    between atoms: N_11  and  C_20 
REMARK       I    between atoms: N_11  and  C_19 
REMARK    7  A    between atoms: C_12  and  C_19 
REMARK    8  A    between atoms: C_14  and  C_20 
REMARK    9  A    between atoms: C_18  and  C_20 
ROOT
HETATM    1  H           1     -21.546  -7.829  -6.470  0.00  0.00     0.163 HD
HETATM    2  N           1     -21.235  -7.353  -5.633  0.00  0.00    -0.345 N 
HETATM    3  O           1     -20.954  -5.420  -4.549  0.00  0.00    -0.271 OA
HETATM    4  C           1     -21.325  -5.988  -5.548  0.00  0.00     0.249 C 
ENDROOT
BRANCH   4   5
HETATM    5  C           1     -21.888  -5.196  -6.702  0.00  0.00     0.275 C 
BRANCH   5   6
HETATM    6  C           1     -21.166  -3.858  -6.799  0.00  0.00     0.046 C 
BRANCH   6   7
HETATM    7  C           1     -20.204  -3.883  -7.979  0.00  0.00    -0.020 C 
HETATM    8  C           1     -18.864  -4.452  -7.530  0.00  0.00     0.009 C 
HETATM    9  C           1     -20.780  -4.757  -9.085  0.00  0.00     0.009 C 
ENDBRANCH   6   7
ENDBRANCH   5   6
BRANCH   5  10
HETATM   10  N           1     -23.351  -4.960  -6.478  0.00  0.00    -0.066 N 
HETATM   11  H           1     -23.485  -4.405  -5.602  0.00  0.00     0.275 HD
HETATM   12  H           1     -23.842  -5.878  -6.387  0.00  0.00     0.275 HD
HETATM   13  H           1     -23.747  -4.431  -7.288  0.00  0.00     0.275 HD
ENDBRANCH   5  10
ENDBRANCH   4   5
BRANCH   2  14
HETATM   14  C           1     -20.694  -8.114  -4.524  0.00  0.00     0.185 C 
BRANCH  14  15
HETATM   15  C           1     -21.620  -9.280  -4.209  0.00  0.00     0.036 C 
BRANCH  15  16
HETATM   16  C           1     -21.772  -9.416  -2.700  0.00  0.00     0.003 C 
BRANCH  16  17
HETATM   17 Se           1     -21.370  -7.710  -1.849  0.00  0.00     0.000 Se
HETATM   18  C           1     -21.265  -8.447  -0.048  0.00  0.00     0.000 C 
ENDBRANCH  16  17
ENDBRANCH  15  16
ENDBRANCH  14  15
BRANCH  14  19
HETATM   19  C           1     -19.329  -8.641  -4.894  0.00  0.00     0.196 C 
HETATM   20  O           1     -18.980  -8.684  -6.094  0.00  0.00    -0.646 OA
HETATM   21  O           1     -18.548  -9.034  -4.001  0.00  0.00    -0.646 OA
ENDBRANCH  14  19
ENDBRANCH   2  14
TORSDOF 9
ENDMDL
MODEL 7
REMARK VINA RESULT:      -4.8      3.997      8.246
REMARK  9 active torsions:
REMARK  status: ('A' for Active; 'I' for Inactive)
REMARK    1  A    between atoms: C_1  and  C_12 
REMARK    2  A    between atoms: C_1  and  C_5 
REMARK    3  A    between atoms: C_2  and  Se_10 
REMARK    4  A    between atoms: C_2  and  C_14 
REMARK    5  A    between atoms: N_8  and  C_12 
REMARK    6  A    between atoms: N_11  and  C_20 
REMARK       I    between atoms: N_11  and  C_19 
REMARK    7  A    between atoms: C_12  and  C_19 
REMARK    8  A    between atoms: C_14  and  C_20 
REMARK    9  A    between atoms: C_18  and  C_20 
ROOT
HETATM    1  H           1     -22.178  -9.389  -3.537  0.00  0.00     0.163 HD
HETATM    2  N           1     -21.529  -8.747  -3.101  0.00  0.00    -0.345 N 
HETATM    3  O           1     -20.255  -8.252  -1.335  0.00  0.00    -0.271 OA
HETATM    4  C           1     -21.030  -9.019  -1.854  0.00  0.00     0.249 C 
ENDROOT
BRANCH   4   5
HETATM    5  C           1     -21.447 -10.276  -1.132  0.00  0.00     0.275 C 
BRANCH   5   6
HETATM    6  C           1     -22.544  -9.945  -0.129  0.00  0.00     0.046 C 
BRANCH   6   7
HETATM    7  C           1     -23.693 -10.931  -0.289  0.00  0.00    -0.020 C 
HETATM    8  C           1     -23.788 -11.371  -1.744  0.00  0.00     0.009 C 
HETATM    9  C           1     -23.445 -12.148   0.593  0.00  0.00     0.009 C 
ENDBRANCH   6   7
ENDBRANCH   5   6
BRANCH   5  10
HETATM   10  N           1     -20.266 -10.852  -0.409  0.00  0.00    -0.066 N 
HETATM   11  H           1     -20.519 -11.024   0.590  0.00  0.00     0.275 HD
HETATM   12  H           1     -19.468 -10.179  -0.456  0.00  0.00     0.275 HD
HETATM   13  H           1     -19.988 -11.754  -0.858  0.00  0.00     0.275 HD
ENDBRANCH   5  10
ENDBRANCH   4   5
BRANCH   2  14
HETATM   14  C           1     -21.128  -7.539  -3.795  0.00  0.00     0.185 C 
BRANCH  14  15
HETATM   15  C           1     -20.969  -7.836  -5.279  0.00  0.00     0.036 C 
BRANCH  15  16
HETATM   16  C           1     -19.951  -6.878  -5.884  0.00  0.00     0.003 C 
BRANCH  16  17
HETATM   17 Se           1     -20.778  -5.885  -7.343  0.00  0.00     0.000 Se
HETATM   18  C           1     -20.757  -4.175  -6.409  0.00  0.00     0.000 C 
ENDBRANCH  16  17
ENDBRANCH  15  16
ENDBRANCH  14  15
BRANCH  14  19
HETATM   19  C           1     -22.182  -6.476  -3.604  0.00  0.00     0.196 C 
HETATM   20  O           1     -22.265  -5.866  -2.516  0.00  0.00    -0.646 OA
HETATM   21  O           1     -22.972  -6.206  -4.533  0.00  0.00    -0.646 OA
ENDBRANCH  14  19
ENDBRANCH   2  14
TORSDOF 9
ENDMDL
MODEL 8
REMARK VINA RESULT:      -4.7      5.628      7.063
REMARK  9 active torsions:
REMARK  status: ('A' for Active; 'I' for Inactive)
REMARK    1  A    between atoms: C_1  and  C_12 
REMARK    2  A    between atoms: C_1  and  C_5 
REMARK    3  A    between atoms: C_2  and  Se_10 
REMARK    4  A    between atoms: C_2  and  C_14 
REMARK    5  A    between atoms: N_8  and  C_12 
REMARK    6  A    between atoms: N_11  and  C_20 
REMARK       I    between atoms: N_11  and  C_19 
REMARK    7  A    between atoms: C_12  and  C_19 
REMARK    8  A    between atoms: C_14  and  C_20 
REMARK    9  A    between atoms: C_18  and  C_20 
ROOT
HETATM    1  H           1     -19.516  -7.731  -2.719  0.00  0.00     0.163 HD
HETATM    2  N           1     -20.354  -8.280  -2.860  0.00  0.00    -0.345 N 
HETATM    3  O           1     -21.323 -10.035  -3.844  0.00  0.00    -0.271 OA
HETATM    4  C           1     -20.323  -9.380  -3.676  0.00  0.00     0.249 C 
ENDROOT
BRANCH   4   5
HETATM    5  C           1     -19.038  -9.773  -4.363  0.00  0.00     0.275 C 
BRANCH   5   6
HETATM    6  C           1     -17.853  -9.341  -3.509  0.00  0.00     0.046 C 
BRANCH   6   7
HETATM    7  C           1     -16.717 -10.342  -3.673  0.00  0.00    -0.020 C 
HETATM    8  C           1     -15.773  -9.866  -4.768  0.00  0.00     0.009 C 
HETATM    9  C           1     -15.952 -10.461  -2.361  0.00  0.00     0.009 C 
ENDBRANCH   6   7
ENDBRANCH   5   6
BRANCH   5  10
HETATM   10  N           1     -18.962  -9.101  -5.701  0.00  0.00    -0.066 N 
HETATM   11  H           1     -19.862  -8.606  -5.895  0.00  0.00     0.275 HD
HETATM   12  H           1     -18.792  -9.819  -6.442  0.00  0.00     0.275 HD
HETATM   13  H           1     -18.178  -8.409  -5.700  0.00  0.00     0.275 HD
ENDBRANCH   5  10
ENDBRANCH   4   5
BRANCH   2  14
HETATM   14  C           1     -21.589  -7.902  -2.200  0.00  0.00     0.185 C 
BRANCH  14  15
HETATM   15  C           1     -21.402  -7.983  -0.692  0.00  0.00     0.036 C 
BRANCH  15  16
HETATM   16  C           1     -22.525  -8.812  -0.084  0.00  0.00     0.003 C 
BRANCH  16  17
HETATM   17 Se           1     -22.096 -10.707  -0.245  0.00  0.00     0.000 Se
HETATM   18  C           1     -23.742 -11.168  -1.180  0.00  0.00     0.000 C 
ENDBRANCH  16  17
ENDBRANCH  15  16
ENDBRANCH  14  15
BRANCH  14  19
HETATM   19  C           1     -21.954  -6.490  -2.588  0.00  0.00     0.196 C 
HETATM   20  O           1     -21.845  -6.120  -3.777  0.00  0.00    -0.646 OA
HETATM   21  O           1     -22.366  -5.691  -1.720  0.00  0.00    -0.646 OA
ENDBRANCH  14  19
ENDBRANCH   2  14
TORSDOF 9
ENDMDL
MODEL 9
REMARK VINA RESULT:      -4.6      3.631      5.346
REMARK  9 active torsions:
REMARK  status: ('A' for Active; 'I' for Inactive)
REMARK    1  A    between atoms: C_1  and  C_12 
REMARK    2  A    between atoms: C_1  and  C_5 
REMARK    3  A    between atoms: C_2  and  Se_10 
REMARK    4  A    between atoms: C_2  and  C_14 
REMARK    5  A    between atoms: N_8  and  C_12 
REMARK    6  A    between atoms: N_11  and  C_20 
REMARK       I    between atoms: N_11  and  C_19 
REMARK    7  A    between atoms: C_12  and  C_19 
REMARK    8  A    between atoms: C_14  and  C_20 
REMARK    9  A    between atoms: C_18  and  C_20 
ROOT
HETATM    1  H           1     -19.457  -7.240  -3.893  0.00  0.00     0.163 HD
HETATM    2  N           1     -19.816  -7.976  -4.488  0.00  0.00    -0.345 N 
HETATM    3  O           1     -21.332  -8.620  -5.996  0.00  0.00    -0.271 OA
HETATM    4  C           1     -20.905  -7.742  -5.286  0.00  0.00     0.249 C 
ENDROOT
BRANCH   4   5
HETATM    5  C           1     -21.569  -6.387  -5.278  0.00  0.00     0.275 C 
BRANCH   5   6
HETATM    6  C           1     -20.519  -5.306  -5.503  0.00  0.00     0.046 C 
BRANCH   6   7
HETATM    7  C           1     -20.507  -4.907  -6.972  0.00  0.00    -0.020 C 
HETATM    8  C           1     -21.368  -3.666  -7.169  0.00  0.00     0.009 C 
HETATM    9  C           1     -19.078  -4.606  -7.404  0.00  0.00     0.009 C 
ENDBRANCH   6   7
ENDBRANCH   5   6
BRANCH   5  10
HETATM   10  N           1     -22.238  -6.166  -3.954  0.00  0.00    -0.066 N 
HETATM   11  H           1     -22.323  -7.078  -3.451  0.00  0.00     0.275 HD
HETATM   12  H           1     -23.189  -5.763  -4.108  0.00  0.00     0.275 HD
HETATM   13  H           1     -21.666  -5.505  -3.381  0.00  0.00     0.275 HD
ENDBRANCH   5  10
ENDBRANCH   4   5
BRANCH   2  14
HETATM   14  C           1     -19.178  -9.278  -4.496  0.00  0.00     0.185 C 
BRANCH  14  15
HETATM   15  C           1     -18.113  -9.314  -5.583  0.00  0.00     0.036 C 
BRANCH  15  16
HETATM   16  C           1     -18.053 -10.710  -6.190  0.00  0.00     0.003 C 
BRANCH  16  17
HETATM   17 Se           1     -16.320 -11.514  -5.803  0.00  0.00     0.000 Se
HETATM   18  C           1     -16.535 -12.980  -7.069  0.00  0.00     0.000 C 
ENDBRANCH  16  17
ENDBRANCH  15  16
ENDBRANCH  14  15
BRANCH  14  19
HETATM   19  C           1     -18.537  -9.532  -3.154  0.00  0.00     0.196 C 
HETATM   20  O           1     -17.321  -9.294  -2.987  0.00  0.00    -0.646 OA
HETATM   21  O           1     -19.221  -9.980  -2.209  0.00  0.00    -0.646 OA
ENDBRANCH  14  19
ENDBRANCH   2  14
TORSDOF 9
ENDMDL
