MODEL 1
REMARK VINA RESULT:      -6.7      0.000      0.000
REMARK  9 active torsions:
REMARK  status: ('A' for Active; 'I' for Inactive)
REMARK    1  A    between atoms: C_1  and  Se_10 
REMARK    2  A    between atoms: C_1  and  C_21 
REMARK    3  A    between atoms: C_4  and  O_20 
REMARK    4  A    between atoms: C_7  and  C_24 
REMARK    5  A    between atoms: N_9  and  C_21 
REMARK       I    between atoms: N_9  and  C_25 
REMARK    6  A    between atoms: N_12  and  C_23 
REMARK    7  A    between atoms: C_14  and  C_21 
REMARK    8  A    between atoms: C_23  and  C_25 
REMARK    9  A    between atoms: C_23  and  C_24 
ROOT
HETATM    1  C           1     -22.211  -5.116  -6.933  0.00  0.00     0.278 C 
ENDROOT
BRANCH   1   2
HETATM    2  N           1     -23.588  -4.868  -6.390  0.00  0.00    -0.066 N 
HETATM    3  H           1     -24.181  -5.714  -6.545  0.00  0.00     0.275 HD
HETATM    4  H           1     -23.527  -4.669  -5.366  0.00  0.00     0.275 HD
HETATM    5  H           1     -24.013  -4.049  -6.880  0.00  0.00     0.275 HD
ENDBRANCH   1   2
BRANCH   1   6
HETATM    6  C           1     -21.334  -5.676  -5.840  0.00  0.00     0.249 C 
HETATM    7  O           1     -20.483  -4.984  -5.335  0.00  0.00    -0.271 OA
HETATM    8  N           1     -21.504  -6.968  -5.421  0.00  0.00    -0.345 N 
HETATM    9  H           1     -22.217  -7.548  -5.845  0.00  0.00     0.163 HD
BRANCH   8  10
HETATM   10  C           1     -20.660  -7.506  -4.371  0.00  0.00     0.185 C 
BRANCH  10  11
HETATM   11  C           1     -21.524  -7.906  -3.182  0.00  0.00     0.039 C 
BRANCH  11  12
HETATM   12 Se           1     -21.973  -6.320  -2.141  0.00  0.00     0.000 Se
HETATM   13  H           1     -22.636  -7.072  -1.064  0.00  0.00     0.000 HD
ENDBRANCH  11  12
ENDBRANCH  10  11
BRANCH  10  14
HETATM   14  C           1     -19.926  -8.718  -4.889  0.00  0.00     0.196 C 
HETATM   15  O           1     -20.479  -9.481  -5.710  0.00  0.00    -0.646 OA
HETATM   16  O           1     -18.765  -8.961  -4.495  0.00  0.00    -0.646 OA
ENDBRANCH  10  14
ENDBRANCH   8  10
ENDBRANCH   1   6
BRANCH   1  17
HETATM   17  C           1     -21.621  -3.806  -7.438  0.00  0.00     0.081 C 
BRANCH  17  18
HETATM   18  C           1     -21.657  -3.785  -8.933  0.00  0.00    -0.056 A 
HETATM   19  C           1     -20.499  -4.054  -9.663  0.00  0.00     0.010 A 
HETATM   20  C           1     -20.532  -4.034 -11.057  0.00  0.00     0.037 A 
HETATM   21  C           1     -21.724  -3.746 -11.722  0.00  0.00     0.065 A 
HETATM   22  C           1     -22.882  -3.477 -10.994  0.00  0.00     0.037 A 
HETATM   23  C           1     -22.848  -3.496  -9.599  0.00  0.00     0.010 A 
BRANCH  21  24
HETATM   24  O           1     -21.755  -3.726 -13.077  0.00  0.00    -0.361 OA
HETATM   25  H           1     -21.044  -3.140 -13.386  0.00  0.00     0.217 HD
ENDBRANCH  21  24
ENDBRANCH  17  18
ENDBRANCH   1  17
TORSDOF 9
ENDMDL
MODEL 2
REMARK VINA RESULT:      -6.7      0.022      1.109
REMARK  9 active torsions:
REMARK  status: ('A' for Active; 'I' for Inactive)
REMARK    1  A    between atoms: C_1  and  Se_10 
REMARK    2  A    between atoms: C_1  and  C_21 
REMARK    3  A    between atoms: C_4  and  O_20 
REMARK    4  A    between atoms: C_7  and  C_24 
REMARK    5  A    between atoms: N_9  and  C_21 
REMARK       I    between atoms: N_9  and  C_25 
REMARK    6  A    between atoms: N_12  and  C_23 
REMARK    7  A    between atoms: C_14  and  C_21 
REMARK    8  A    between atoms: C_23  and  C_25 
REMARK    9  A    between atoms: C_23  and  C_24 
ROOT
HETATM    1  C           1     -22.229  -5.129  -6.925  0.00  0.00     0.278 C 
ENDROOT
BRANCH   1   2
HETATM    2  N           1     -23.608  -4.891  -6.383  0.00  0.00    -0.066 N 
HETATM    3  H           1     -23.973  -3.981  -6.745  0.00  0.00     0.275 HD
HETATM    4  H           1     -24.240  -5.665  -6.689  0.00  0.00     0.275 HD
HETATM    5  H           1     -23.572  -4.862  -5.339  0.00  0.00     0.275 HD
ENDBRANCH   1   2
BRANCH   1   6
HETATM    6  C           1     -21.348  -5.682  -5.831  0.00  0.00     0.249 C 
HETATM    7  O           1     -20.507  -4.982  -5.321  0.00  0.00    -0.271 OA
HETATM    8  N           1     -21.504  -6.977  -5.417  0.00  0.00    -0.345 N 
HETATM    9  H           1     -22.209  -7.564  -5.845  0.00  0.00     0.163 HD
BRANCH   8  10
HETATM   10  C           1     -20.657  -7.509  -4.367  0.00  0.00     0.185 C 
BRANCH  10  11
HETATM   11  C           1     -21.517  -7.908  -3.175  0.00  0.00     0.039 C 
BRANCH  11  12
HETATM   12 Se           1     -21.978  -6.318  -2.144  0.00  0.00     0.000 Se
HETATM   13  H           1     -21.943  -5.414  -3.304  0.00  0.00     0.000 HD
ENDBRANCH  11  12
ENDBRANCH  10  11
BRANCH  10  14
HETATM   14  C           1     -19.920  -8.721  -4.882  0.00  0.00     0.196 C 
HETATM   15  O           1     -20.467  -9.480  -5.711  0.00  0.00    -0.646 OA
HETATM   16  O           1     -18.763  -8.966  -4.478  0.00  0.00    -0.646 OA
ENDBRANCH  10  14
ENDBRANCH   8  10
ENDBRANCH   1   6
BRANCH   1  17
HETATM   17  C           1     -21.649  -3.813  -7.428  0.00  0.00     0.081 C 
BRANCH  17  18
HETATM   18  C           1     -21.678  -3.795  -8.924  0.00  0.00    -0.056 A 
HETATM   19  C           1     -22.871  -3.526  -9.596  0.00  0.00     0.010 A 
HETATM   20  C           1     -22.898  -3.509 -10.990  0.00  0.00     0.037 A 
HETATM   21  C           1     -21.732  -3.761 -11.713  0.00  0.00     0.065 A 
HETATM   22  C           1     -20.539  -4.031 -11.042  0.00  0.00     0.037 A 
HETATM   23  C           1     -20.513  -4.048  -9.648  0.00  0.00     0.010 A 
BRANCH  21  24
HETATM   24  O           1     -21.758  -3.745 -13.068  0.00  0.00    -0.361 OA
HETATM   25  H           1     -20.841  -3.705 -13.387  0.00  0.00     0.217 HD
ENDBRANCH  21  24
ENDBRANCH  17  18
ENDBRANCH   1  17
TORSDOF 9
ENDMDL
MODEL 3
REMARK VINA RESULT:      -6.7     13.342     16.079
REMARK  9 active torsions:
REMARK  status: ('A' for Active; 'I' for Inactive)
REMARK    1  A    between atoms: C_1  and  Se_10 
REMARK    2  A    between atoms: C_1  and  C_21 
REMARK    3  A    between atoms: C_4  and  O_20 
REMARK    4  A    between atoms: C_7  and  C_24 
REMARK    5  A    between atoms: N_9  and  C_21 
REMARK       I    between atoms: N_9  and  C_25 
REMARK    6  A    between atoms: N_12  and  C_23 
REMARK    7  A    between atoms: C_14  and  C_21 
REMARK    8  A    between atoms: C_23  and  C_25 
REMARK    9  A    between atoms: C_23  and  C_24 
ROOT
HETATM    1  C           1     -34.032  -2.839 -11.554  0.00  0.00     0.278 C 
ENDROOT
BRANCH   1   2
HETATM    2  N           1     -33.487  -1.730 -10.704  0.00  0.00    -0.066 N 
HETATM    3  H           1     -32.448  -1.822 -10.635  0.00  0.00     0.275 HD
HETATM    4  H           1     -33.725  -0.809 -11.138  0.00  0.00     0.275 HD
HETATM    5  H           1     -33.907  -1.784  -9.749  0.00  0.00     0.275 HD
ENDBRANCH   1   2
BRANCH   1   6
HETATM    6  C           1     -34.687  -2.254 -12.782  0.00  0.00     0.249 C 
HETATM    7  O           1     -34.671  -2.865 -13.824  0.00  0.00    -0.271 OA
HETATM    8  N           1     -35.300  -1.032 -12.715  0.00  0.00    -0.345 N 
HETATM    9  H           1     -35.313  -0.520 -11.841  0.00  0.00     0.163 HD
BRANCH   8  10
HETATM   10  C           1     -35.929  -0.470 -13.894  0.00  0.00     0.185 C 
BRANCH  10  11
HETATM   11  C           1     -37.388  -0.158 -13.591  0.00  0.00     0.039 C 
BRANCH  11  12
HETATM   12 Se           1     -37.675  -0.195 -11.664  0.00  0.00     0.000 Se
HETATM   13  H           1     -37.619   1.268 -11.510  0.00  0.00     0.000 HD
ENDBRANCH  11  12
ENDBRANCH  10  11
BRANCH  10  14
HETATM   14  C           1     -35.214   0.800 -14.287  0.00  0.00     0.196 C 
HETATM   15  O           1     -34.346   1.287 -13.533  0.00  0.00    -0.646 OA
HETATM   16  O           1     -35.492   1.365 -15.367  0.00  0.00    -0.646 OA
ENDBRANCH  10  14
ENDBRANCH   8  10
ENDBRANCH   1   6
BRANCH   1  17
HETATM   17  C           1     -35.061  -3.629 -10.757  0.00  0.00     0.081 C 
BRANCH  17  18
HETATM   18  C           1     -34.599  -5.045 -10.609  0.00  0.00    -0.056 A 
HETATM   19  C           1     -35.378  -5.964  -9.907  0.00  0.00     0.010 A 
HETATM   20  C           1     -34.947  -7.283  -9.769  0.00  0.00     0.037 A 
HETATM   21  C           1     -33.737  -7.683 -10.334  0.00  0.00     0.065 A 
HETATM   22  C           1     -32.956  -6.765 -11.036  0.00  0.00     0.037 A 
HETATM   23  C           1     -33.388  -5.445 -11.173  0.00  0.00     0.010 A 
BRANCH  21  24
HETATM   24  O           1     -33.318  -8.965 -10.199  0.00  0.00    -0.361 OA
HETATM   25  H           1     -33.154  -9.323 -11.088  0.00  0.00     0.217 HD
ENDBRANCH  21  24
ENDBRANCH  17  18
ENDBRANCH   1  17
TORSDOF 9
ENDMDL
MODEL 4
REMARK VINA RESULT:      -6.6     14.061     17.010
REMARK  9 active torsions:
REMARK  status: ('A' for Active; 'I' for Inactive)
REMARK    1  A    between atoms: C_1  and  Se_10 
REMARK    2  A    between atoms: C_1  and  C_21 
REMARK    3  A    between atoms: C_4  and  O_20 
REMARK    4  A    between atoms: C_7  and  C_24 
REMARK    5  A    between atoms: N_9  and  C_21 
REMARK       I    between atoms: N_9  and  C_25 
REMARK    6  A    between atoms: N_12  and  C_23 
REMARK    7  A    between atoms: C_14  and  C_21 
REMARK    8  A    between atoms: C_23  and  C_25 
REMARK    9  A    between atoms: C_23  and  C_24 
ROOT
HETATM    1  C           1     -36.008  -0.433 -11.362  0.00  0.00     0.278 C 
ENDROOT
BRANCH   1   2
HETATM    2  N           1     -36.408   0.773 -10.565  0.00  0.00    -0.066 N 
HETATM    3  H           1     -37.444   0.902 -10.624  0.00  0.00     0.275 HD
HETATM    4  H           1     -36.131   0.638  -9.566  0.00  0.00     0.275 HD
HETATM    5  H           1     -35.929   1.619 -10.949  0.00  0.00     0.275 HD
ENDBRANCH   1   2
BRANCH   1   6
HETATM    6  C           1     -36.817  -0.486 -12.635  0.00  0.00     0.249 C 
HETATM    7  O           1     -38.014  -0.635 -12.584  0.00  0.00    -0.271 OA
HETATM    8  N           1     -36.193  -0.363 -13.847  0.00  0.00    -0.345 N 
HETATM    9  H           1     -35.189  -0.238 -13.889  0.00  0.00     0.163 HD
BRANCH   8  10
HETATM   10  C           1     -36.970  -0.414 -15.071  0.00  0.00     0.185 C 
BRANCH  10  11
HETATM   11  C           1     -37.340   1.001 -15.496  0.00  0.00     0.039 C 
BRANCH  11  12
HETATM   12 Se           1     -35.720   2.070 -15.678  0.00  0.00     0.000 Se
HETATM   13  H           1     -35.015   1.072 -16.498  0.00  0.00     0.000 HD
ENDBRANCH  11  12
ENDBRANCH  10  11
BRANCH  10  14
HETATM   14  C           1     -36.152  -1.068 -16.157  0.00  0.00     0.196 C 
HETATM   15  O           1     -36.482  -0.932 -17.355  0.00  0.00    -0.646 OA
HETATM   16  O           1     -35.147  -1.747 -15.860  0.00  0.00    -0.646 OA
ENDBRANCH  10  14
ENDBRANCH   8  10
ENDBRANCH   1   6
BRANCH   1  17
HETATM   17  C           1     -36.268  -1.691 -10.542  0.00  0.00     0.081 C 
BRANCH  17  18
HETATM   18  C           1     -35.225  -2.716 -10.855  0.00  0.00    -0.056 A 
HETATM   19  C           1     -33.918  -2.319 -11.136  0.00  0.00     0.010 A 
HETATM   20  C           1     -32.945  -3.275 -11.429  0.00  0.00     0.037 A 
HETATM   21  C           1     -33.280  -4.629 -11.440  0.00  0.00     0.065 A 
HETATM   22  C           1     -34.587  -5.027 -11.161  0.00  0.00     0.037 A 
HETATM   23  C           1     -35.559  -4.070 -10.868  0.00  0.00     0.010 A 
BRANCH  21  24
HETATM   24  O           1     -32.335  -5.557 -11.725  0.00  0.00    -0.361 OA
HETATM   25  H           1     -31.614  -5.462 -11.080  0.00  0.00     0.217 HD
ENDBRANCH  21  24
ENDBRANCH  17  18
ENDBRANCH   1  17
TORSDOF 9
ENDMDL
MODEL 5
REMARK VINA RESULT:      -6.6      3.079      7.386
REMARK  9 active torsions:
REMARK  status: ('A' for Active; 'I' for Inactive)
REMARK    1  A    between atoms: C_1  and  Se_10 
REMARK    2  A    between atoms: C_1  and  C_21 
REMARK    3  A    between atoms: C_4  and  O_20 
REMARK    4  A    between atoms: C_7  and  C_24 
REMARK    5  A    between atoms: N_9  and  C_21 
REMARK       I    between atoms: N_9  and  C_25 
REMARK    6  A    between atoms: N_12  and  C_23 
REMARK    7  A    between atoms: C_14  and  C_21 
REMARK    8  A    between atoms: C_23  and  C_25 
REMARK    9  A    between atoms: C_23  and  C_24 
ROOT
HETATM    1  C           1     -21.086  -5.664  -6.820  0.00  0.00     0.278 C 
ENDROOT
BRANCH   1   2
HETATM    2  N           1     -19.831  -6.109  -7.511  0.00  0.00    -0.066 N 
HETATM    3  H           1     -19.019  -5.562  -7.146  0.00  0.00     0.275 HD
HETATM    4  H           1     -19.675  -7.126  -7.328  0.00  0.00     0.275 HD
HETATM    5  H           1     -19.925  -5.950  -8.539  0.00  0.00     0.275 HD
ENDBRANCH   1   2
BRANCH   1   6
HETATM    6  C           1     -21.678  -4.490  -7.561  0.00  0.00     0.249 C 
HETATM    7  O           1     -21.633  -3.385  -7.077  0.00  0.00    -0.271 OA
HETATM    8  N           1     -22.267  -4.680  -8.782  0.00  0.00    -0.345 N 
HETATM    9  H           1     -22.305  -5.607  -9.188  0.00  0.00     0.163 HD
BRANCH   8  10
HETATM   10  C           1     -22.837  -3.553  -9.495  0.00  0.00     0.185 C 
BRANCH  10  11
HETATM   11  C           1     -22.184  -3.436 -10.866  0.00  0.00     0.039 C 
BRANCH  11  12
HETATM   12 Se           1     -20.453  -4.332 -10.840  0.00  0.00     0.000 Se
HETATM   13  H           1     -19.680  -3.096 -11.035  0.00  0.00     0.000 HD
ENDBRANCH  11  12
ENDBRANCH  10  11
BRANCH  10  14
HETATM   14  C           1     -24.322  -3.763  -9.662  0.00  0.00     0.196 C 
HETATM   15  O           1     -25.107  -2.798  -9.544  0.00  0.00    -0.646 OA
HETATM   16  O           1     -24.767  -4.903  -9.915  0.00  0.00    -0.646 OA
ENDBRANCH  10  14
ENDBRANCH   8  10
ENDBRANCH   1   6
BRANCH   1  17
HETATM   17  C           1     -20.757  -5.249  -5.391  0.00  0.00     0.081 C 
BRANCH  17  18
HETATM   18  C           1     -21.083  -6.372  -4.457  0.00  0.00    -0.056 A 
HETATM   19  C           1     -21.289  -6.116  -3.102  0.00  0.00     0.010 A 
HETATM   20  C           1     -21.593  -7.162  -2.232  0.00  0.00     0.037 A 
HETATM   21  C           1     -21.690  -8.467  -2.717  0.00  0.00     0.065 A 
HETATM   22  C           1     -21.483  -8.724  -4.072  0.00  0.00     0.037 A 
HETATM   23  C           1     -21.179  -7.677  -4.942  0.00  0.00     0.010 A 
BRANCH  21  24
HETATM   24  O           1     -21.983  -9.484  -1.871  0.00  0.00    -0.361 OA
HETATM   25  H           1     -21.692 -10.314  -2.286  0.00  0.00     0.217 HD
ENDBRANCH  21  24
ENDBRANCH  17  18
ENDBRANCH   1  17
TORSDOF 9
ENDMDL
MODEL 6
REMARK VINA RESULT:      -6.5      1.438      1.908
REMARK  9 active torsions:
REMARK  status: ('A' for Active; 'I' for Inactive)
REMARK    1  A    between atoms: C_1  and  Se_10 
REMARK    2  A    between atoms: C_1  and  C_21 
REMARK    3  A    between atoms: C_4  and  O_20 
REMARK    4  A    between atoms: C_7  and  C_24 
REMARK    5  A    between atoms: N_9  and  C_21 
REMARK       I    between atoms: N_9  and  C_25 
REMARK    6  A    between atoms: N_12  and  C_23 
REMARK    7  A    between atoms: C_14  and  C_21 
REMARK    8  A    between atoms: C_23  and  C_25 
REMARK    9  A    between atoms: C_23  and  C_24 
ROOT
HETATM    1  C           1     -21.709  -4.398  -7.613  0.00  0.00     0.278 C 
ENDROOT
BRANCH   1   2
HETATM    2  N           1     -21.675  -2.937  -7.275  0.00  0.00    -0.066 N 
HETATM    3  H           1     -22.562  -2.671  -6.792  0.00  0.00     0.275 HD
HETATM    4  H           1     -20.864  -2.745  -6.644  0.00  0.00     0.275 HD
HETATM    5  H           1     -21.575  -2.379  -8.153  0.00  0.00     0.275 HD
ENDBRANCH   1   2
BRANCH   1   6
HETATM    6  C           1     -20.924  -5.171  -6.581  0.00  0.00     0.249 C 
HETATM    7  O           1     -19.756  -4.924  -6.401  0.00  0.00    -0.271 OA
HETATM    8  N           1     -21.537  -6.151  -5.849  0.00  0.00    -0.345 N 
HETATM    9  H           1     -22.517  -6.358  -6.000  0.00  0.00     0.163 HD
BRANCH   8  10
HETATM   10  C           1     -20.784  -6.894  -4.857  0.00  0.00     0.185 C 
BRANCH  10  11
HETATM   11  C           1     -21.645  -7.107  -3.620  0.00  0.00     0.039 C 
BRANCH  11  12
HETATM   12 Se           1     -20.605  -8.032  -2.254  0.00  0.00     0.000 Se
HETATM   13  H           1     -19.568  -6.991  -2.173  0.00  0.00     0.000 HD
ENDBRANCH  11  12
ENDBRANCH  10  11
BRANCH  10  14
HETATM   14  C           1     -20.385  -8.233  -5.429  0.00  0.00     0.196 C 
HETATM   15  O           1     -21.261  -9.080  -5.707  0.00  0.00    -0.646 OA
HETATM   16  O           1     -19.179  -8.495  -5.622  0.00  0.00    -0.646 OA
ENDBRANCH  10  14
ENDBRANCH   8  10
ENDBRANCH   1   6
BRANCH   1  17
HETATM   17  C           1     -21.091  -4.615  -8.988  0.00  0.00     0.081 C 
BRANCH  17  18
HETATM   18  C           1     -21.999  -4.055 -10.038  0.00  0.00    -0.056 A 
HETATM   19  C           1     -23.380  -4.207  -9.920  0.00  0.00     0.010 A 
HETATM   20  C           1     -24.226  -3.685 -10.898  0.00  0.00     0.037 A 
HETATM   21  C           1     -23.690  -3.010 -11.995  0.00  0.00     0.065 A 
HETATM   22  C           1     -22.309  -2.859 -12.115  0.00  0.00     0.037 A 
HETATM   23  C           1     -21.463  -3.381 -11.136  0.00  0.00     0.010 A 
BRANCH  21  24
HETATM   24  O           1     -24.512  -2.504 -12.946  0.00  0.00    -0.361 OA
HETATM   25  H           1     -24.627  -3.179 -13.635  0.00  0.00     0.217 HD
ENDBRANCH  21  24
ENDBRANCH  17  18
ENDBRANCH   1  17
TORSDOF 9
ENDMDL
MODEL 7
REMARK VINA RESULT:      -6.5     13.527     14.709
REMARK  9 active torsions:
REMARK  status: ('A' for Active; 'I' for Inactive)
REMARK    1  A    between atoms: C_1  and  Se_10 
REMARK    2  A    between atoms: C_1  and  C_21 
REMARK    3  A    between atoms: C_4  and  O_20 
REMARK    4  A    between atoms: C_7  and  C_24 
REMARK    5  A    between atoms: N_9  and  C_21 
REMARK       I    between atoms: N_9  and  C_25 
REMARK    6  A    between atoms: N_12  and  C_23 
REMARK    7  A    between atoms: C_14  and  C_21 
REMARK    8  A    between atoms: C_23  and  C_25 
REMARK    9  A    between atoms: C_23  and  C_24 
ROOT
HETATM    1  C           1     -33.050  -4.480 -16.697  0.00  0.00     0.278 C 
ENDROOT
BRANCH   1   2
HETATM    2  N           1     -33.245  -3.170 -17.402  0.00  0.00    -0.066 N 
HETATM    3  H           1     -33.914  -2.578 -16.859  0.00  0.00     0.275 HD
HETATM    4  H           1     -32.327  -2.675 -17.478  0.00  0.00     0.275 HD
HETATM    5  H           1     -33.628  -3.342 -18.358  0.00  0.00     0.275 HD
ENDBRANCH   1   2
BRANCH   1   6
HETATM    6  C           1     -33.872  -4.496 -15.431  0.00  0.00     0.249 C 
HETATM    7  O           1     -34.999  -4.926 -15.448  0.00  0.00    -0.271 OA
HETATM    8  N           1     -33.337  -4.022 -14.263  0.00  0.00    -0.345 N 
HETATM    9  H           1     -32.391  -3.661 -14.249  0.00  0.00     0.163 HD
BRANCH   8  10
HETATM   10  C           1     -34.126  -4.037 -13.046  0.00  0.00     0.185 C 
BRANCH  10  11
HETATM   11  C           1     -33.269  -4.539 -11.892  0.00  0.00     0.039 C 
BRANCH  11  12
HETATM   12 Se           1     -34.237  -5.921 -10.916  0.00  0.00     0.000 Se
HETATM   13  H           1     -33.834  -7.008 -11.823  0.00  0.00     0.000 HD
ENDBRANCH  11  12
ENDBRANCH  10  11
BRANCH  10  14
HETATM   14  C           1     -34.608  -2.639 -12.744  0.00  0.00     0.196 C 
HETATM   15  O           1     -35.024  -1.908 -13.668  0.00  0.00    -0.646 OA
HETATM   16  O           1     -34.589  -2.213 -11.569  0.00  0.00    -0.646 OA
ENDBRANCH  10  14
ENDBRANCH   8  10
ENDBRANCH   1   6
BRANCH   1  17
HETATM   17  C           1     -31.577  -4.654 -16.350  0.00  0.00     0.081 C 
BRANCH  17  18
HETATM   18  C           1     -31.004  -5.777 -17.155  0.00  0.00    -0.056 A 
HETATM   19  C           1     -29.628  -5.848 -17.374  0.00  0.00     0.010 A 
HETATM   20  C           1     -29.094  -6.895 -18.125  0.00  0.00     0.037 A 
HETATM   21  C           1     -29.935  -7.872 -18.657  0.00  0.00     0.065 A 
HETATM   22  C           1     -31.311  -7.801 -18.439  0.00  0.00     0.037 A 
HETATM   23  C           1     -31.845  -6.754 -17.688  0.00  0.00     0.010 A 
BRANCH  21  24
HETATM   24  O           1     -29.416  -8.888 -19.387  0.00  0.00    -0.361 OA
HETATM   25  H           1     -28.505  -9.042 -19.083  0.00  0.00     0.217 HD
ENDBRANCH  21  24
ENDBRANCH  17  18
ENDBRANCH   1  17
TORSDOF 9
ENDMDL
MODEL 8
REMARK VINA RESULT:      -6.3     13.565     16.234
REMARK  9 active torsions:
REMARK  status: ('A' for Active; 'I' for Inactive)
REMARK    1  A    between atoms: C_1  and  Se_10 
REMARK    2  A    between atoms: C_1  and  C_21 
REMARK    3  A    between atoms: C_4  and  O_20 
REMARK    4  A    between atoms: C_7  and  C_24 
REMARK    5  A    between atoms: N_9  and  C_21 
REMARK       I    between atoms: N_9  and  C_25 
REMARK    6  A    between atoms: N_12  and  C_23 
REMARK    7  A    between atoms: C_14  and  C_21 
REMARK    8  A    between atoms: C_23  and  C_25 
REMARK    9  A    between atoms: C_23  and  C_24 
ROOT
HETATM    1  C           1     -34.332  -3.719 -12.689  0.00  0.00     0.278 C 
ENDROOT
BRANCH   1   2
HETATM    2  N           1     -33.673  -3.952 -14.017  0.00  0.00    -0.066 N 
HETATM    3  H           1     -33.972  -3.209 -14.689  0.00  0.00     0.275 HD
HETATM    4  H           1     -32.635  -3.917 -13.901  0.00  0.00     0.275 HD
HETATM    5  H           1     -33.952  -4.889 -14.385  0.00  0.00     0.275 HD
ENDBRANCH   1   2
BRANCH   1   6
HETATM    6  C           1     -34.779  -2.281 -12.596  0.00  0.00     0.249 C 
HETATM    7  O           1     -34.727  -1.700 -11.538  0.00  0.00    -0.271 OA
HETATM    8  N           1     -35.242  -1.635 -13.710  0.00  0.00    -0.345 N 
HETATM    9  H           1     -35.286  -2.122 -14.596  0.00  0.00     0.163 HD
BRANCH   8  10
HETATM   10  C           1     -35.672  -0.252 -13.620  0.00  0.00     0.185 C 
BRANCH  10  11
HETATM   11  C           1     -35.544   0.408 -14.986  0.00  0.00     0.039 C 
BRANCH  11  12
HETATM   12 Se           1     -35.589  -0.957 -16.377  0.00  0.00     0.000 Se
HETATM   13  H           1     -34.583  -1.814 -15.729  0.00  0.00     0.000 HD
ENDBRANCH  11  12
ENDBRANCH  10  11
BRANCH  10  14
HETATM   14  C           1     -37.111  -0.202 -13.170  0.00  0.00     0.196 C 
HETATM   15  O           1     -38.011  -0.668 -13.902  0.00  0.00    -0.646 OA
HETATM   16  O           1     -37.404   0.306 -12.067  0.00  0.00    -0.646 OA
ENDBRANCH  10  14
ENDBRANCH   8  10
ENDBRANCH   1   6
BRANCH   1  17
HETATM   17  C           1     -33.340  -4.017 -11.572  0.00  0.00     0.081 C 
BRANCH  17  18
HETATM   18  C           1     -33.646  -5.356 -10.977  0.00  0.00    -0.056 A 
HETATM   19  C           1     -32.735  -6.403 -11.110  0.00  0.00     0.010 A 
HETATM   20  C           1     -33.020  -7.651 -10.555  0.00  0.00     0.037 A 
HETATM   21  C           1     -34.217  -7.850  -9.867  0.00  0.00     0.065 A 
HETATM   22  C           1     -35.129  -6.804  -9.734  0.00  0.00     0.037 A 
HETATM   23  C           1     -34.843  -5.556 -10.289  0.00  0.00     0.010 A 
BRANCH  21  24
HETATM   24  O           1     -34.494  -9.063  -9.328  0.00  0.00    -0.361 OA
HETATM   25  H           1     -34.395  -8.994  -8.364  0.00  0.00     0.217 HD
ENDBRANCH  21  24
ENDBRANCH  17  18
ENDBRANCH   1  17
TORSDOF 9
ENDMDL
MODEL 9
REMARK VINA RESULT:      -6.2      2.253      2.569
REMARK  9 active torsions:
REMARK  status: ('A' for Active; 'I' for Inactive)
REMARK    1  A    between atoms: C_1  and  Se_10 
REMARK    2  A    between atoms: C_1  and  C_21 
REMARK    3  A    between atoms: C_4  and  O_20 
REMARK    4  A    between atoms: C_7  and  C_24 
REMARK    5  A    between atoms: N_9  and  C_21 
REMARK       I    between atoms: N_9  and  C_25 
REMARK    6  A    between atoms: N_12  and  C_23 
REMARK    7  A    between atoms: C_14  and  C_21 
REMARK    8  A    between atoms: C_23  and  C_25 
REMARK    9  A    between atoms: C_23  and  C_24 
ROOT
HETATM    1  C           1     -20.325  -5.326  -6.326  0.00  0.00     0.278 C 
ENDROOT
BRANCH   1   2
HETATM    2  N           1     -20.020  -6.212  -7.498  0.00  0.00    -0.066 N 
HETATM    3  H           1     -20.836  -6.219  -8.151  0.00  0.00     0.275 HD
HETATM    4  H           1     -19.178  -5.848  -8.000  0.00  0.00     0.275 HD
HETATM    5  H           1     -19.833  -7.183  -7.162  0.00  0.00     0.275 HD
ENDBRANCH   1   2
BRANCH   1   6
HETATM    6  C           1     -21.270  -6.039  -5.391  0.00  0.00     0.249 C 
HETATM    7  O           1     -22.456  -5.822  -5.450  0.00  0.00    -0.271 OA
HETATM    8  N           1     -20.782  -6.933  -4.476  0.00  0.00    -0.345 N 
HETATM    9  H           1     -19.787  -7.114  -4.426  0.00  0.00     0.163 HD
BRANCH   8  10
HETATM   10  C           1     -21.690  -7.618  -3.576  0.00  0.00     0.185 C 
BRANCH  10  11
HETATM   11  C           1     -21.245  -9.064  -3.410  0.00  0.00     0.039 C 
BRANCH  11  12
HETATM   12 Se           1     -20.940  -9.857  -5.165  0.00  0.00     0.000 Se
HETATM   13  H           1     -22.351  -9.777  -5.575  0.00  0.00     0.000 HD
ENDBRANCH  11  12
ENDBRANCH  10  11
BRANCH  10  14
HETATM   14  C           1     -21.679  -6.931  -2.232  0.00  0.00     0.196 C 
HETATM   15  O           1     -21.076  -7.451  -1.269  0.00  0.00    -0.646 OA
HETATM   16  O           1     -22.275  -5.843  -2.082  0.00  0.00    -0.646 OA
ENDBRANCH  10  14
ENDBRANCH   8  10
ENDBRANCH   1   6
BRANCH   1  17
HETATM   17  C           1     -20.972  -4.038  -6.819  0.00  0.00     0.081 C 
BRANCH  17  18
HETATM   18  C           1     -21.272  -4.157  -8.280  0.00  0.00    -0.056 A 
HETATM   19  C           1     -20.254  -3.989  -9.218  0.00  0.00     0.010 A 
HETATM   20  C           1     -20.534  -4.100 -10.580  0.00  0.00     0.037 A 
HETATM   21  C           1     -21.833  -4.379 -11.004  0.00  0.00     0.065 A 
HETATM   22  C           1     -22.853  -4.546 -10.067  0.00  0.00     0.037 A 
HETATM   23  C           1     -22.572  -4.435  -8.705  0.00  0.00     0.010 A 
BRANCH  21  24
HETATM   24  O           1     -22.106  -4.485 -12.327  0.00  0.00    -0.361 OA
HETATM   25  H           1     -21.484  -5.126 -12.712  0.00  0.00     0.217 HD
ENDBRANCH  21  24
ENDBRANCH  17  18
ENDBRANCH   1  17
TORSDOF 9
ENDMDL
