MODEL 1
REMARK VINA RESULT:      -5.4      0.000      0.000
REMARK  8 active torsions:
REMARK  status: ('A' for Active; 'I' for Inactive)
REMARK       I    between atoms: C_1  and  N_6 
REMARK    1  A    between atoms: C_1  and  C_15 
REMARK    2  A    between atoms: C_5  and  C_20 
REMARK    3  A    between atoms: N_6  and  C_20 
REMARK    4  A    between atoms: C_12  and  C_17 
REMARK    5  A    between atoms: S_13  and  C_14 
REMARK    6  A    between atoms: C_14  and  C_15 
REMARK    7  A    between atoms: C_15  and  N_16 
REMARK    8  A    between atoms: C_17  and  C_20 
ROOT
HETATM    1  C           1     -21.678  -4.584  -7.618  0.00  0.00     0.249 C 
HETATM    2  O           1     -21.553  -3.440  -7.251  0.00  0.00    -0.271 OA
HETATM    3  H           1     -22.391  -5.816  -9.120  0.00  0.00     0.163 HD
HETATM    4  N           1     -22.287  -4.857  -8.813  0.00  0.00    -0.344 N 
ENDROOT
BRANCH   1   5
HETATM    5  C           1     -21.158  -5.711  -6.761  0.00  0.00     0.283 C 
BRANCH   5   6
HETATM    6  C           1     -20.791  -5.175  -5.382  0.00  0.00     0.113 C 
BRANCH   6   7
HETATM    7  S           1     -21.380  -6.327  -4.109  0.00  0.00    -0.180 SA
HETATM    8  H           1     -21.930  -5.389  -3.317  0.00  0.00     0.101 HD
ENDBRANCH   6   7
ENDBRANCH   5   6
BRANCH   5   9
HETATM    9  N           1     -19.942  -6.310  -7.404  0.00  0.00    -0.066 N 
HETATM   10  H           1     -20.077  -6.346  -8.439  0.00  0.00     0.275 HD
HETATM   11  H           1     -19.107  -5.723  -7.182  0.00  0.00     0.275 HD
HETATM   12  H           1     -19.797  -7.279  -7.038  0.00  0.00     0.275 HD
ENDBRANCH   5   9
ENDBRANCH   1   5
BRANCH   4  13
HETATM   13  C           1     -22.786  -3.774  -9.637  0.00  0.00     0.195 C 
BRANCH  13  14
HETATM   14  C           1     -24.294  -3.822  -9.672  0.00  0.00     0.197 C 
HETATM   15  O           1     -24.957  -2.776  -9.501  0.00  0.00    -0.646 OA
HETATM   16  O           1     -24.881  -4.908  -9.873  0.00  0.00    -0.646 OA
ENDBRANCH  13  14
BRANCH  13  17
HETATM   17  C           1     -22.239  -3.920 -11.051  0.00  0.00     0.149 C 
BRANCH  17  18
HETATM   18  C           1     -20.739  -3.754 -11.031  0.00  0.00     0.175 C 
HETATM   19  O           1     -20.230  -2.640 -11.280  0.00  0.00    -0.648 OA
HETATM   20  O           1     -20.007  -4.731 -10.765  0.00  0.00    -0.648 OA
ENDBRANCH  17  18
ENDBRANCH  13  17
ENDBRANCH   4  13
TORSDOF 8
ENDMDL
MODEL 2
REMARK VINA RESULT:      -5.3      1.855      3.326
REMARK  8 active torsions:
REMARK  status: ('A' for Active; 'I' for Inactive)
REMARK       I    between atoms: C_1  and  N_6 
REMARK    1  A    between atoms: C_1  and  C_15 
REMARK    2  A    between atoms: C_5  and  C_20 
REMARK    3  A    between atoms: N_6  and  C_20 
REMARK    4  A    between atoms: C_12  and  C_17 
REMARK    5  A    between atoms: S_13  and  C_14 
REMARK    6  A    between atoms: C_14  and  C_15 
REMARK    7  A    between atoms: C_15  and  N_16 
REMARK    8  A    between atoms: C_17  and  C_20 
ROOT
HETATM    1  C           1     -20.644  -4.307  -9.234  0.00  0.00     0.249 C 
HETATM    2  O           1     -19.932  -5.054  -9.862  0.00  0.00    -0.271 OA
HETATM    3  H           1     -22.431  -3.262  -9.238  0.00  0.00     0.163 HD
HETATM    4  N           1     -21.835  -3.889  -9.764  0.00  0.00    -0.344 N 
ENDROOT
BRANCH   1   5
HETATM    5  C           1     -20.221  -3.836  -7.865  0.00  0.00     0.283 C 
BRANCH   5   6
HETATM    6  C           1     -19.522  -4.972  -7.129  0.00  0.00     0.113 C 
BRANCH   6   7
HETATM    7  S           1     -20.766  -6.084  -6.415  0.00  0.00    -0.180 SA
HETATM    8  H           1     -21.658  -5.957  -7.413  0.00  0.00     0.101 HD
ENDBRANCH   6   7
ENDBRANCH   5   6
BRANCH   5   9
HETATM    9  N           1     -21.430  -3.406  -7.088  0.00  0.00    -0.066 N 
HETATM   10  H           1     -22.289  -3.574  -7.658  0.00  0.00     0.275 HD
HETATM   11  H           1     -21.487  -3.956  -6.201  0.00  0.00     0.275 HD
HETATM   12  H           1     -21.355  -2.387  -6.864  0.00  0.00     0.275 HD
ENDBRANCH   5   9
ENDBRANCH   1   5
BRANCH   4  13
HETATM   13  C           1     -22.242  -4.342 -11.080  0.00  0.00     0.195 C 
BRANCH  13  14
HETATM   14  C           1     -22.163  -3.193 -12.054  0.00  0.00     0.197 C 
HETATM   15  O           1     -22.735  -3.272 -13.164  0.00  0.00    -0.646 OA
HETATM   16  O           1     -21.526  -2.160 -11.753  0.00  0.00    -0.646 OA
ENDBRANCH  13  14
BRANCH  13  17
HETATM   17  C           1     -23.674  -4.858 -11.018  0.00  0.00     0.149 C 
BRANCH  17  18
HETATM   18  C           1     -24.462  -4.039 -10.025  0.00  0.00     0.175 C 
HETATM   19  O           1     -25.310  -3.214 -10.428  0.00  0.00    -0.648 OA
HETATM   20  O           1     -24.266  -4.186  -8.799  0.00  0.00    -0.648 OA
ENDBRANCH  17  18
ENDBRANCH  13  17
ENDBRANCH   4  13
TORSDOF 8
ENDMDL
MODEL 3
REMARK VINA RESULT:      -5.1      1.550      1.967
REMARK  8 active torsions:
REMARK  status: ('A' for Active; 'I' for Inactive)
REMARK       I    between atoms: C_1  and  N_6 
REMARK    1  A    between atoms: C_1  and  C_15 
REMARK    2  A    between atoms: C_5  and  C_20 
REMARK    3  A    between atoms: N_6  and  C_20 
REMARK    4  A    between atoms: C_12  and  C_17 
REMARK    5  A    between atoms: S_13  and  C_14 
REMARK    6  A    between atoms: C_14  and  C_15 
REMARK    7  A    between atoms: C_15  and  N_16 
REMARK    8  A    between atoms: C_17  and  C_20 
ROOT
HETATM    1  C           1     -21.722  -4.544  -8.178  0.00  0.00     0.249 C 
HETATM    2  O           1     -21.765  -3.385  -7.840  0.00  0.00    -0.271 OA
HETATM    3  H           1     -22.267  -5.908  -9.635  0.00  0.00     0.163 HD
HETATM    4  N           1     -22.303  -4.937  -9.353  0.00  0.00    -0.344 N 
ENDROOT
BRANCH   1   5
HETATM    5  C           1     -21.023  -5.557  -7.305  0.00  0.00     0.283 C 
BRANCH   5   6
HETATM    6  C           1     -21.762  -5.682  -5.978  0.00  0.00     0.113 C 
BRANCH   6   7
HETATM    7  S           1     -21.445  -7.319  -5.262  0.00  0.00    -0.180 SA
HETATM    8  H           1     -20.121  -7.320  -5.495  0.00  0.00     0.101 HD
ENDBRANCH   6   7
ENDBRANCH   5   6
BRANCH   5   9
HETATM    9  N           1     -19.613  -5.111  -7.052  0.00  0.00    -0.066 N 
HETATM   10  H           1     -19.353  -4.370  -7.740  0.00  0.00     0.275 HD
HETATM   11  H           1     -19.538  -4.729  -6.083  0.00  0.00     0.275 HD
HETATM   12  H           1     -18.967  -5.927  -7.158  0.00  0.00     0.275 HD
ENDBRANCH   5   9
ENDBRANCH   1   5
BRANCH   4  13
HETATM   13  C           1     -22.974  -3.963 -10.192  0.00  0.00     0.195 C 
BRANCH  13  14
HETATM   14  C           1     -24.433  -3.895  -9.815  0.00  0.00     0.197 C 
HETATM   15  O           1     -24.958  -2.793  -9.540  0.00  0.00    -0.646 OA
HETATM   16  O           1     -25.120  -4.939  -9.776  0.00  0.00    -0.646 OA
ENDBRANCH  13  14
BRANCH  13  17
HETATM   17  C           1     -22.845  -4.377 -11.652  0.00  0.00     0.149 C 
BRANCH  17  18
HETATM   18  C           1     -23.403  -3.288 -12.535  0.00  0.00     0.175 C 
HETATM   19  O           1     -24.319  -3.548 -13.345  0.00  0.00    -0.648 OA
HETATM   20  O           1     -22.949  -2.126 -12.457  0.00  0.00    -0.648 OA
ENDBRANCH  17  18
ENDBRANCH  13  17
ENDBRANCH   4  13
TORSDOF 8
ENDMDL
MODEL 4
REMARK VINA RESULT:      -4.9     11.097     12.528
REMARK  8 active torsions:
REMARK  status: ('A' for Active; 'I' for Inactive)
REMARK       I    between atoms: C_1  and  N_6 
REMARK    1  A    between atoms: C_1  and  C_15 
REMARK    2  A    between atoms: C_5  and  C_20 
REMARK    3  A    between atoms: N_6  and  C_20 
REMARK    4  A    between atoms: C_12  and  C_17 
REMARK    5  A    between atoms: S_13  and  C_14 
REMARK    6  A    between atoms: C_14  and  C_15 
REMARK    7  A    between atoms: C_15  and  N_16 
REMARK    8  A    between atoms: C_17  and  C_20 
ROOT
HETATM    1  C           1     -26.883  -6.418 -18.214  0.00  0.00     0.249 C 
HETATM    2  O           1     -26.927  -6.051 -17.064  0.00  0.00    -0.271 OA
HETATM    3  H           1     -27.977  -7.184 -19.795  0.00  0.00     0.163 HD
HETATM    4  N           1     -28.015  -6.876 -18.831  0.00  0.00    -0.344 N 
ENDROOT
BRANCH   1   5
HETATM    5  C           1     -25.578  -6.369 -18.970  0.00  0.00     0.283 C 
BRANCH   5   6
HETATM    6  C           1     -25.814  -6.774 -20.420  0.00  0.00     0.113 C 
BRANCH   6   7
HETATM    7  S           1     -24.493  -7.897 -20.956  0.00  0.00    -0.180 SA
HETATM    8  H           1     -24.347  -8.518 -19.772  0.00  0.00     0.101 HD
ENDBRANCH   6   7
ENDBRANCH   5   6
BRANCH   5   9
HETATM    9  N           1     -24.598  -7.315 -18.340  0.00  0.00    -0.066 N 
HETATM   10  H           1     -23.809  -6.772 -17.923  0.00  0.00     0.275 HD
HETATM   11  H           1     -25.078  -7.864 -17.591  0.00  0.00     0.275 HD
HETATM   12  H           1     -24.226  -7.966 -19.068  0.00  0.00     0.275 HD
ENDBRANCH   5   9
ENDBRANCH   1   5
BRANCH   4  13
HETATM   13  C           1     -29.269  -6.923 -18.104  0.00  0.00     0.195 C 
BRANCH  13  14
HETATM   14  C           1     -30.169  -7.964 -18.722  0.00  0.00     0.197 C 
HETATM   15  O           1     -31.411  -7.825 -18.676  0.00  0.00    -0.646 OA
HETATM   16  O           1     -29.674  -8.968 -19.281  0.00  0.00    -0.646 OA
ENDBRANCH  13  14
BRANCH  13  17
HETATM   17  C           1     -29.946  -5.560 -18.173  0.00  0.00     0.149 C 
BRANCH  17  18
HETATM   18  C           1     -30.602  -5.256 -16.848  0.00  0.00     0.175 C 
HETATM   19  O           1     -30.008  -5.524 -15.781  0.00  0.00    -0.648 OA
HETATM   20  O           1     -31.738  -4.737 -16.819  0.00  0.00    -0.648 OA
ENDBRANCH  17  18
ENDBRANCH  13  17
ENDBRANCH   4  13
TORSDOF 8
ENDMDL
MODEL 5
REMARK VINA RESULT:      -4.9      3.028      5.424
REMARK  8 active torsions:
REMARK  status: ('A' for Active; 'I' for Inactive)
REMARK       I    between atoms: C_1  and  N_6 
REMARK    1  A    between atoms: C_1  and  C_15 
REMARK    2  A    between atoms: C_5  and  C_20 
REMARK    3  A    between atoms: N_6  and  C_20 
REMARK    4  A    between atoms: C_12  and  C_17 
REMARK    5  A    between atoms: S_13  and  C_14 
REMARK    6  A    between atoms: C_14  and  C_15 
REMARK    7  A    between atoms: C_15  and  N_16 
REMARK    8  A    between atoms: C_17  and  C_20 
ROOT
HETATM    1  C           1     -23.377  -4.492  -8.784  0.00  0.00     0.249 C 
HETATM    2  O           1     -23.771  -3.948  -7.780  0.00  0.00    -0.271 OA
HETATM    3  H           1     -21.751  -5.376  -9.709  0.00  0.00     0.163 HD
HETATM    4  N           1     -22.080  -4.921  -8.868  0.00  0.00    -0.344 N 
ENDROOT
BRANCH   1   5
HETATM    5  C           1     -24.317  -4.700  -9.946  0.00  0.00     0.283 C 
BRANCH   5   6
HETATM    6  C           1     -23.530  -4.677 -11.250  0.00  0.00     0.113 C 
BRANCH   6   7
HETATM    7  S           1     -23.408  -2.969 -11.852  0.00  0.00    -0.180 SA
HETATM    8  H           1     -22.156  -2.754 -11.410  0.00  0.00     0.101 HD
ENDBRANCH   6   7
ENDBRANCH   5   6
BRANCH   5   9
HETATM    9  N           1     -25.343  -3.605  -9.962  0.00  0.00    -0.066 N 
HETATM   10  H           1     -25.596  -3.379 -10.949  0.00  0.00     0.275 HD
HETATM   11  H           1     -26.196  -3.921  -9.447  0.00  0.00     0.275 HD
HETATM   12  H           1     -24.950  -2.754  -9.499  0.00  0.00     0.275 HD
ENDBRANCH   5   9
ENDBRANCH   1   5
BRANCH   4  13
HETATM   13  C           1     -21.177  -4.721  -7.751  0.00  0.00     0.195 C 
BRANCH  13  14
HETATM   14  C           1     -19.822  -4.307  -8.269  0.00  0.00     0.197 C 
HETATM   15  O           1     -19.706  -3.861  -9.432  0.00  0.00    -0.646 OA
HETATM   16  O           1     -18.813  -4.409  -7.537  0.00  0.00    -0.646 OA
ENDBRANCH  13  14
BRANCH  13  17
HETATM   17  C           1     -21.046  -6.020  -6.967  0.00  0.00     0.149 C 
BRANCH  17  18
HETATM   18  C           1     -21.552  -5.812  -5.560  0.00  0.00     0.175 C 
HETATM   19  O           1     -22.754  -6.028  -5.290  0.00  0.00    -0.648 OA
HETATM   20  O           1     -20.771  -5.425  -4.666  0.00  0.00    -0.648 OA
ENDBRANCH  17  18
ENDBRANCH  13  17
ENDBRANCH   4  13
TORSDOF 8
ENDMDL
MODEL 6
REMARK VINA RESULT:      -4.8      3.531      5.388
REMARK  8 active torsions:
REMARK  status: ('A' for Active; 'I' for Inactive)
REMARK       I    between atoms: C_1  and  N_6 
REMARK    1  A    between atoms: C_1  and  C_15 
REMARK    2  A    between atoms: C_5  and  C_20 
REMARK    3  A    between atoms: N_6  and  C_20 
REMARK    4  A    between atoms: C_12  and  C_17 
REMARK    5  A    between atoms: S_13  and  C_14 
REMARK    6  A    between atoms: C_14  and  C_15 
REMARK    7  A    between atoms: C_15  and  N_16 
REMARK    8  A    between atoms: C_17  and  C_20 
ROOT
HETATM    1  C           1     -22.498  -4.056 -10.629  0.00  0.00     0.249 C 
HETATM    2  O           1     -23.443  -4.803 -10.540  0.00  0.00    -0.271 OA
HETATM    3  H           1     -20.752  -3.412  -9.723  0.00  0.00     0.163 HD
HETATM    4  N           1     -21.544  -4.038  -9.648  0.00  0.00    -0.344 N 
ENDROOT
BRANCH   1   5
HETATM    5  C           1     -22.368  -3.144 -11.824  0.00  0.00     0.283 C 
BRANCH   5   6
HETATM    6  C           1     -23.751  -2.845 -12.389  0.00  0.00     0.113 C 
BRANCH   6   7
HETATM    7  S           1     -23.592  -2.261 -14.100  0.00  0.00    -0.180 SA
HETATM    8  H           1     -23.468  -3.481 -14.653  0.00  0.00     0.101 HD
ENDBRANCH   6   7
ENDBRANCH   5   6
BRANCH   5   9
HETATM    9  N           1     -21.533  -3.814 -12.876  0.00  0.00    -0.066 N 
HETATM   10  H           1     -20.550  -3.906 -12.534  0.00  0.00     0.275 HD
HETATM   11  H           1     -21.922  -4.762 -13.077  0.00  0.00     0.275 HD
HETATM   12  H           1     -21.546  -3.238 -13.748  0.00  0.00     0.275 HD
ENDBRANCH   5   9
ENDBRANCH   1   5
BRANCH   4  13
HETATM   13  C           1     -21.668  -4.915  -8.500  0.00  0.00     0.195 C 
BRANCH  13  14
HETATM   14  C           1     -22.248  -4.144  -7.339  0.00  0.00     0.197 C 
HETATM   15  O           1     -21.668  -3.120  -6.917  0.00  0.00    -0.646 OA
HETATM   16  O           1     -23.308  -4.529  -6.799  0.00  0.00    -0.646 OA
ENDBRANCH  13  14
BRANCH  13  17
HETATM   17  C           1     -20.294  -5.450  -8.119  0.00  0.00     0.149 C 
BRANCH  17  18
HETATM   18  C           1     -20.381  -6.162  -6.791  0.00  0.00     0.175 C 
HETATM   19  O           1     -20.988  -7.251  -6.703  0.00  0.00    -0.648 OA
HETATM   20  O           1     -19.846  -5.661  -5.779  0.00  0.00    -0.648 OA
ENDBRANCH  17  18
ENDBRANCH  13  17
ENDBRANCH   4  13
TORSDOF 8
ENDMDL
MODEL 7
REMARK VINA RESULT:      -4.7      4.246      6.567
REMARK  8 active torsions:
REMARK  status: ('A' for Active; 'I' for Inactive)
REMARK       I    between atoms: C_1  and  N_6 
REMARK    1  A    between atoms: C_1  and  C_15 
REMARK    2  A    between atoms: C_5  and  C_20 
REMARK    3  A    between atoms: N_6  and  C_20 
REMARK    4  A    between atoms: C_12  and  C_17 
REMARK    5  A    between atoms: S_13  and  C_14 
REMARK    6  A    between atoms: C_14  and  C_15 
REMARK    7  A    between atoms: C_15  and  N_16 
REMARK    8  A    between atoms: C_17  and  C_20 
ROOT
HETATM    1  C           1     -21.384  -5.838  -5.589  0.00  0.00     0.249 C 
HETATM    2  O           1     -22.579  -5.669  -5.619  0.00  0.00    -0.271 OA
HETATM    3  H           1     -19.840  -6.884  -4.691  0.00  0.00     0.163 HD
HETATM    4  N           1     -20.842  -6.743  -4.717  0.00  0.00    -0.344 N 
ENDROOT
BRANCH   1   5
HETATM    5  C           1     -20.488  -5.053  -6.515  0.00  0.00     0.283 C 
BRANCH   5   6
HETATM    6  C           1     -21.282  -3.918  -7.151  0.00  0.00     0.113 C 
BRANCH   6   7
HETATM    7  S           1     -21.632  -4.323  -8.885  0.00  0.00    -0.180 SA
HETATM    8  H           1     -20.822  -3.389  -9.413  0.00  0.00     0.101 HD
ENDBRANCH   6   7
ENDBRANCH   5   6
BRANCH   5   9
HETATM    9  N           1     -19.963  -5.959  -7.590  0.00  0.00    -0.066 N 
HETATM   10  H           1     -20.498  -6.856  -7.582  0.00  0.00     0.275 HD
HETATM   11  H           1     -20.074  -5.495  -8.520  0.00  0.00     0.275 HD
HETATM   12  H           1     -18.951  -6.155  -7.415  0.00  0.00     0.275 HD
ENDBRANCH   5   9
ENDBRANCH   1   5
BRANCH   4  13
HETATM   13  C           1     -21.703  -7.498  -3.827  0.00  0.00     0.195 C 
BRANCH  13  14
HETATM   14  C           1     -21.634  -6.906  -2.440  0.00  0.00     0.197 C 
HETATM   15  O           1     -20.920  -7.443  -1.566  0.00  0.00    -0.646 OA
HETATM   16  O           1     -22.293  -5.880  -2.164  0.00  0.00    -0.646 OA
ENDBRANCH  13  14
BRANCH  13  17
HETATM   17  C           1     -21.240  -8.948  -3.785  0.00  0.00     0.149 C 
BRANCH  17  18
HETATM   18  C           1     -19.944  -9.086  -4.544  0.00  0.00     0.175 C 
HETATM   19  O           1     -19.959  -9.362  -5.763  0.00  0.00    -0.648 OA
HETATM   20  O           1     -18.854  -8.924  -3.954  0.00  0.00    -0.648 OA
ENDBRANCH  17  18
ENDBRANCH  13  17
ENDBRANCH   4  13
TORSDOF 8
ENDMDL
MODEL 8
REMARK VINA RESULT:      -4.6      3.428      6.011
REMARK  8 active torsions:
REMARK  status: ('A' for Active; 'I' for Inactive)
REMARK       I    between atoms: C_1  and  N_6 
REMARK    1  A    between atoms: C_1  and  C_15 
REMARK    2  A    between atoms: C_5  and  C_20 
REMARK    3  A    between atoms: N_6  and  C_20 
REMARK    4  A    between atoms: C_12  and  C_17 
REMARK    5  A    between atoms: S_13  and  C_14 
REMARK    6  A    between atoms: C_14  and  C_15 
REMARK    7  A    between atoms: C_15  and  N_16 
REMARK    8  A    between atoms: C_17  and  C_20 
ROOT
HETATM    1  C           1     -22.423  -4.294  -7.781  0.00  0.00     0.249 C 
HETATM    2  O           1     -21.821  -3.333  -7.364  0.00  0.00    -0.271 OA
HETATM    3  H           1     -22.911  -6.274  -7.429  0.00  0.00     0.163 HD
HETATM    4  N           1     -22.406  -5.469  -7.079  0.00  0.00    -0.344 N 
ENDROOT
BRANCH   1   5
HETATM    5  C           1     -23.196  -4.197  -9.072  0.00  0.00     0.283 C 
BRANCH   5   6
HETATM    6  C           1     -22.312  -3.581 -10.150  0.00  0.00     0.113 C 
BRANCH   6   7
HETATM    7  S           1     -23.328  -3.143 -11.588  0.00  0.00    -0.180 SA
HETATM    8  H           1     -23.990  -2.136 -10.990  0.00  0.00     0.101 HD
ENDBRANCH   6   7
ENDBRANCH   5   6
BRANCH   5   9
HETATM    9  N           1     -24.407  -3.335  -8.867  0.00  0.00    -0.066 N 
HETATM   10  H           1     -24.970  -3.709  -8.071  0.00  0.00     0.275 HD
HETATM   11  H           1     -24.105  -2.358  -8.653  0.00  0.00     0.275 HD
HETATM   12  H           1     -24.988  -3.340  -9.736  0.00  0.00     0.275 HD
ENDBRANCH   5   9
ENDBRANCH   1   5
BRANCH   4  13
HETATM   13  C           1     -21.664  -5.562  -5.837  0.00  0.00     0.195 C 
BRANCH  13  14
HETATM   14  C           1     -20.194  -5.718  -6.141  0.00  0.00     0.197 C 
HETATM   15  O           1     -19.396  -4.796  -5.860  0.00  0.00    -0.646 OA
HETATM   16  O           1     -19.772  -6.767  -6.674  0.00  0.00    -0.646 OA
ENDBRANCH  13  14
BRANCH  13  17
HETATM   17  C           1     -22.150  -6.769  -5.045  0.00  0.00     0.149 C 
BRANCH  17  18
HETATM   18  C           1     -21.634  -6.683  -3.630  0.00  0.00     0.175 C 
HETATM   19  O           1     -22.101  -5.830  -2.845  0.00  0.00    -0.648 OA
HETATM   20  O           1     -20.739  -7.465  -3.242  0.00  0.00    -0.648 OA
ENDBRANCH  17  18
ENDBRANCH  13  17
ENDBRANCH   4  13
TORSDOF 8
ENDMDL
MODEL 9
REMARK VINA RESULT:      -4.5      4.147      6.801
REMARK  8 active torsions:
REMARK  status: ('A' for Active; 'I' for Inactive)
REMARK       I    between atoms: C_1  and  N_6 
REMARK    1  A    between atoms: C_1  and  C_15 
REMARK    2  A    between atoms: C_5  and  C_20 
REMARK    3  A    between atoms: N_6  and  C_20 
REMARK    4  A    between atoms: C_12  and  C_17 
REMARK    5  A    between atoms: S_13  and  C_14 
REMARK    6  A    between atoms: C_14  and  C_15 
REMARK    7  A    between atoms: C_15  and  N_16 
REMARK    8  A    between atoms: C_17  and  C_20 
ROOT
HETATM    1  C           1     -20.907  -5.624  -6.444  0.00  0.00     0.249 C 
HETATM    2  O           1     -20.550  -4.836  -5.601  0.00  0.00    -0.271 OA
HETATM    3  H           1     -21.171  -7.628  -6.891  0.00  0.00     0.163 HD
HETATM    4  N           1     -20.872  -6.968  -6.184  0.00  0.00    -0.344 N 
ENDROOT
BRANCH   1   5
HETATM    5  C           1     -21.394  -5.127  -7.782  0.00  0.00     0.283 C 
BRANCH   5   6
HETATM    6  C           1     -20.203  -4.709  -8.635  0.00  0.00     0.113 C 
BRANCH   6   7
HETATM    7  S           1     -20.785  -4.187 -10.273  0.00  0.00    -0.180 SA
HETATM    8  H           1     -21.953  -4.853 -10.225  0.00  0.00     0.101 HD
ENDBRANCH   6   7
ENDBRANCH   5   6
BRANCH   5   9
HETATM    9  N           1     -22.299  -3.947  -7.578  0.00  0.00    -0.066 N 
HETATM   10  H           1     -23.105  -4.008  -8.239  0.00  0.00     0.275 HD
HETATM   11  H           1     -22.654  -3.948  -6.595  0.00  0.00     0.275 HD
HETATM   12  H           1     -21.767  -3.066  -7.757  0.00  0.00     0.275 HD
ENDBRANCH   5   9
ENDBRANCH   1   5
BRANCH   4  13
HETATM   13  C           1     -20.404  -7.446  -4.898  0.00  0.00     0.195 C 
BRANCH  13  14
HETATM   14  C           1     -19.503  -8.639  -5.103  0.00  0.00     0.197 C 
HETATM   15  O           1     -18.842  -8.750  -6.159  0.00  0.00    -0.646 OA
HETATM   16  O           1     -19.416  -9.518  -4.218  0.00  0.00    -0.646 OA
ENDBRANCH  13  14
BRANCH  13  17
HETATM   17  C           1     -21.598  -7.851  -4.044  0.00  0.00     0.149 C 
BRANCH  17  18
HETATM   18  C           1     -21.616  -7.026  -2.780  0.00  0.00     0.175 C 
HETATM   19  O           1     -20.930  -7.374  -1.795  0.00  0.00    -0.648 OA
HETATM   20  O           1     -22.318  -5.994  -2.719  0.00  0.00    -0.648 OA
ENDBRANCH  17  18
ENDBRANCH  13  17
ENDBRANCH   4  13
TORSDOF 8
ENDMDL
