MODEL 1
REMARK VINA RESULT:      -7.8      0.000      0.000
REMARK  9 active torsions:
REMARK  status: ('A' for Active; 'I' for Inactive)
REMARK    1  A    between atoms: N_9  and  C_20 
REMARK    2  A    between atoms: O_14  and  P_15 
REMARK    3  A    between atoms: P_15  and  O_16 
REMARK    4  A    between atoms: O_16  and  C_17 
REMARK    5  A    between atoms: C_18  and  C_19 
REMARK    6  A    between atoms: C_19  and  C_20 
REMARK    7  A    between atoms: C_20  and  C_21 
REMARK       I    between atoms: C_21  and  N_22 
REMARK    8  A    between atoms: N_22  and  C_23 
REMARK    9  A    between atoms: C_23  and  C_25 
ROOT
HETATM    1  C           1     -20.704  -5.609  -7.740  0.00  0.00     0.081 C 
ENDROOT
BRANCH   1   2
HETATM    2  C           1     -21.280  -4.788  -8.852  0.00  0.00    -0.056 A 
HETATM    3  C           1     -22.599  -4.342  -8.778  0.00  0.00     0.010 A 
HETATM    4  C           1     -23.134  -3.577  -9.814  0.00  0.00     0.038 A 
HETATM    5  C           1     -22.351  -3.257 -10.923  0.00  0.00     0.081 A 
HETATM    6  C           1     -21.031  -3.702 -10.996  0.00  0.00     0.038 A 
HETATM    7  C           1     -20.495  -4.468  -9.960  0.00  0.00     0.010 A 
BRANCH   5   8
HETATM    8  O           1     -22.872  -2.513 -11.929  0.00  0.00    -0.247 OA
BRANCH   8   9
HETATM    9  P           1     -23.912  -3.226 -12.938  0.00  0.00     0.411 P 
HETATM   10  O           1     -23.658  -2.757 -14.320  0.00  0.00    -0.624 OA
HETATM   11  O           1     -25.295  -2.881 -12.545  0.00  0.00    -0.624 OA
BRANCH   9  12
HETATM   12  O           1     -23.717  -4.828 -12.871  0.00  0.00    -0.300 OA
HETATM   13  H           1     -24.523  -5.156 -12.513  0.00  0.00     0.223 HD
ENDBRANCH   9  12
ENDBRANCH   8   9
ENDBRANCH   5   8
ENDBRANCH   1   2
BRANCH   1  14
HETATM   14  C           1     -20.954  -4.910  -6.410  0.00  0.00     0.278 C 
BRANCH  14  15
HETATM   15  N           1     -19.643  -4.500  -5.807  0.00  0.00    -0.066 N 
HETATM   16  H           1     -19.257  -3.685  -6.336  0.00  0.00     0.275 HD
HETATM   17  H           1     -18.971  -5.299  -5.860  0.00  0.00     0.275 HD
HETATM   18  H           1     -19.787  -4.231  -4.808  0.00  0.00     0.275 HD
ENDBRANCH  14  15
BRANCH  14  19
HETATM   19  C           1     -21.666  -5.853  -5.472  0.00  0.00     0.249 C 
HETATM   20  O           1     -22.873  -5.891  -5.454  0.00  0.00    -0.271 OA
HETATM   21  N           1     -20.944  -6.666  -4.640  0.00  0.00    -0.349 N 
HETATM   22  H           1     -19.932  -6.635  -4.654  0.00  0.00     0.163 HD
BRANCH  21  23
HETATM   23  C           1     -21.627  -7.573  -3.738  0.00  0.00     0.235 C 
BRANCH  23  24
HETATM   24  C           1     -21.646  -6.985  -2.349  0.00  0.00     0.191 C 
HETATM   25  O           1     -22.352  -5.984  -2.103  0.00  0.00    -0.647 OA
HETATM   26  O           1     -20.953  -7.498  -1.444  0.00  0.00    -0.647 OA
ENDBRANCH  23  24
ENDBRANCH  21  23
ENDBRANCH  14  19
ENDBRANCH   1  14
TORSDOF 9
ENDMDL
MODEL 2
REMARK VINA RESULT:      -7.7      0.299      1.277
REMARK  9 active torsions:
REMARK  status: ('A' for Active; 'I' for Inactive)
REMARK    1  A    between atoms: N_9  and  C_20 
REMARK    2  A    between atoms: O_14  and  P_15 
REMARK    3  A    between atoms: P_15  and  O_16 
REMARK    4  A    between atoms: O_16  and  C_17 
REMARK    5  A    between atoms: C_18  and  C_19 
REMARK    6  A    between atoms: C_19  and  C_20 
REMARK    7  A    between atoms: C_20  and  C_21 
REMARK       I    between atoms: C_21  and  N_22 
REMARK    8  A    between atoms: N_22  and  C_23 
REMARK    9  A    between atoms: C_23  and  C_25 
ROOT
HETATM    1  C           1     -20.557  -5.635  -7.580  0.00  0.00     0.081 C 
ENDROOT
BRANCH   1   2
HETATM    2  C           1     -21.122  -4.833  -8.711  0.00  0.00    -0.056 A 
HETATM    3  C           1     -20.339  -4.562  -9.833  0.00  0.00     0.010 A 
HETATM    4  C           1     -20.866  -3.816 -10.887  0.00  0.00     0.038 A 
HETATM    5  C           1     -22.176  -3.340 -10.819  0.00  0.00     0.081 A 
HETATM    6  C           1     -22.959  -3.612  -9.697  0.00  0.00     0.038 A 
HETATM    7  C           1     -22.431  -4.358  -8.643  0.00  0.00     0.010 A 
BRANCH   5   8
HETATM    8  O           1     -22.687  -2.615 -11.843  0.00  0.00    -0.247 OA
BRANCH   8   9
HETATM    9  P           1     -23.835  -3.294 -12.754  0.00  0.00     0.411 P 
HETATM   10  O           1     -23.725  -2.793 -14.142  0.00  0.00    -0.624 OA
HETATM   11  O           1     -25.166  -2.949 -12.208  0.00  0.00    -0.624 OA
BRANCH   9  12
HETATM   12  O           1     -23.650  -4.898 -12.746  0.00  0.00    -0.300 OA
HETATM   13  H           1     -22.905  -5.061 -13.299  0.00  0.00     0.223 HD
ENDBRANCH   9  12
ENDBRANCH   8   9
ENDBRANCH   5   8
ENDBRANCH   1   2
BRANCH   1  14
HETATM   14  C           1     -20.920  -4.973  -6.257  0.00  0.00     0.278 C 
BRANCH  14  15
HETATM   15  N           1     -19.675  -4.454  -5.601  0.00  0.00    -0.066 N 
HETATM   16  H           1     -19.231  -3.736  -6.216  0.00  0.00     0.275 HD
HETATM   17  H           1     -19.007  -5.244  -5.449  0.00  0.00     0.275 HD
HETATM   18  H           1     -19.919  -4.023  -4.681  0.00  0.00     0.275 HD
ENDBRANCH  14  15
BRANCH  14  19
HETATM   19  C           1     -21.582  -5.983  -5.353  0.00  0.00     0.249 C 
HETATM   20  O           1     -22.787  -6.030  -5.280  0.00  0.00    -0.271 OA
HETATM   21  N           1     -20.818  -6.847  -4.617  0.00  0.00    -0.349 N 
HETATM   22  H           1     -19.808  -6.809  -4.678  0.00  0.00     0.163 HD
BRANCH  21  23
HETATM   23  C           1     -21.453  -7.819  -3.748  0.00  0.00     0.235 C 
BRANCH  23  24
HETATM   24  C           1     -21.368  -7.349  -2.317  0.00  0.00     0.191 C 
HETATM   25  O           1     -20.454  -7.770  -1.575  0.00  0.00    -0.647 OA
HETATM   26  O           1     -22.212  -6.541  -1.872  0.00  0.00    -0.647 OA
ENDBRANCH  23  24
ENDBRANCH  21  23
ENDBRANCH  14  19
ENDBRANCH   1  14
TORSDOF 9
ENDMDL
MODEL 3
REMARK VINA RESULT:      -7.6      3.707      8.656
REMARK  9 active torsions:
REMARK  status: ('A' for Active; 'I' for Inactive)
REMARK    1  A    between atoms: N_9  and  C_20 
REMARK    2  A    between atoms: O_14  and  P_15 
REMARK    3  A    between atoms: P_15  and  O_16 
REMARK    4  A    between atoms: O_16  and  C_17 
REMARK    5  A    between atoms: C_18  and  C_19 
REMARK    6  A    between atoms: C_19  and  C_20 
REMARK    7  A    between atoms: C_20  and  C_21 
REMARK       I    between atoms: C_21  and  N_22 
REMARK    8  A    between atoms: N_22  and  C_23 
REMARK    9  A    between atoms: C_23  and  C_25 
ROOT
HETATM    1  C           1     -21.799  -3.711 -11.275  0.00  0.00     0.081 C 
ENDROOT
BRANCH   1   2
HETATM    2  C           1     -21.518  -4.050  -9.845  0.00  0.00    -0.056 A 
HETATM    3  C           1     -22.445  -3.722  -8.856  0.00  0.00     0.010 A 
HETATM    4  C           1     -22.182  -4.039  -7.522  0.00  0.00     0.038 A 
HETATM    5  C           1     -20.994  -4.684  -7.179  0.00  0.00     0.081 A 
HETATM    6  C           1     -20.068  -5.013  -8.169  0.00  0.00     0.038 A 
HETATM    7  C           1     -20.330  -4.696  -9.502  0.00  0.00     0.010 A 
BRANCH   5   8
HETATM    8  O           1     -20.740  -4.991  -5.884  0.00  0.00    -0.247 OA
BRANCH   8   9
HETATM    9  P           1     -21.442  -6.308  -5.266  0.00  0.00     0.411 P 
HETATM   10  O           1     -22.896  -6.070  -5.120  0.00  0.00    -0.624 OA
HETATM   11  O           1     -20.855  -6.603  -3.941  0.00  0.00    -0.624 OA
BRANCH   9  12
HETATM   12  O           1     -21.200  -7.562  -6.253  0.00  0.00    -0.300 OA
HETATM   13  H           1     -22.033  -7.713  -6.665  0.00  0.00     0.223 HD
ENDBRANCH   9  12
ENDBRANCH   8   9
ENDBRANCH   5   8
ENDBRANCH   1   2
BRANCH   1  14
HETATM   14  C           1     -23.298  -3.791 -11.532  0.00  0.00     0.278 C 
BRANCH  14  15
HETATM   15  N           1     -23.783  -5.179 -11.232  0.00  0.00    -0.066 N 
HETATM   16  H           1     -23.080  -5.873 -11.572  0.00  0.00     0.275 HD
HETATM   17  H           1     -24.695  -5.340 -11.717  0.00  0.00     0.275 HD
HETATM   18  H           1     -23.912  -5.289 -10.201  0.00  0.00     0.275 HD
ENDBRANCH  14  15
BRANCH  14  19
HETATM   19  C           1     -23.581  -3.460 -12.976  0.00  0.00     0.249 C 
HETATM   20  O           1     -24.498  -3.998 -13.552  0.00  0.00    -0.271 OA
HETATM   21  N           1     -22.799  -2.551 -13.636  0.00  0.00    -0.349 N 
HETATM   22  H           1     -22.031  -2.099 -13.155  0.00  0.00     0.163 HD
BRANCH  21  23
HETATM   23  C           1     -23.071  -2.232 -15.024  0.00  0.00     0.235 C 
BRANCH  23  24
HETATM   24  C           1     -23.804  -0.916 -15.105  0.00  0.00     0.191 C 
HETATM   25  O           1     -24.951  -0.809 -14.619  0.00  0.00    -0.647 OA
HETATM   26  O           1     -23.267   0.067 -15.661  0.00  0.00    -0.647 OA
ENDBRANCH  23  24
ENDBRANCH  21  23
ENDBRANCH  14  19
ENDBRANCH   1  14
TORSDOF 9
ENDMDL
MODEL 4
REMARK VINA RESULT:      -7.5      1.502      1.949
REMARK  9 active torsions:
REMARK  status: ('A' for Active; 'I' for Inactive)
REMARK    1  A    between atoms: N_9  and  C_20 
REMARK    2  A    between atoms: O_14  and  P_15 
REMARK    3  A    between atoms: P_15  and  O_16 
REMARK    4  A    between atoms: O_16  and  C_17 
REMARK    5  A    between atoms: C_18  and  C_19 
REMARK    6  A    between atoms: C_19  and  C_20 
REMARK    7  A    between atoms: C_20  and  C_21 
REMARK       I    between atoms: C_21  and  N_22 
REMARK    8  A    between atoms: N_22  and  C_23 
REMARK    9  A    between atoms: C_23  and  C_25 
ROOT
HETATM    1  C           1     -20.016  -4.858  -5.917  0.00  0.00     0.081 C 
ENDROOT
BRANCH   1   2
HETATM    2  C           1     -20.617  -4.488  -7.237  0.00  0.00    -0.056 A 
HETATM    3  C           1     -21.886  -3.912  -7.289  0.00  0.00     0.010 A 
HETATM    4  C           1     -22.444  -3.567  -8.520  0.00  0.00     0.038 A 
HETATM    5  C           1     -21.734  -3.797  -9.698  0.00  0.00     0.081 A 
HETATM    6  C           1     -20.464  -4.372  -9.646  0.00  0.00     0.038 A 
HETATM    7  C           1     -19.906  -4.717  -8.415  0.00  0.00     0.010 A 
BRANCH   5   8
HETATM    8  O           1     -22.278  -3.461 -10.894  0.00  0.00    -0.247 OA
BRANCH   8   9
HETATM    9  P           1     -23.689  -4.135 -11.300  0.00  0.00     0.411 P 
HETATM   10  O           1     -24.793  -3.211 -10.955  0.00  0.00    -0.624 OA
HETATM   11  O           1     -23.858  -5.406 -10.562  0.00  0.00    -0.624 OA
BRANCH   9  12
HETATM   12  O           1     -23.709  -4.427 -12.888  0.00  0.00    -0.300 OA
HETATM   13  H           1     -24.511  -4.896 -13.039  0.00  0.00     0.223 HD
ENDBRANCH   9  12
ENDBRANCH   8   9
ENDBRANCH   5   8
ENDBRANCH   1   2
BRANCH   1  14
HETATM   14  C           1     -20.460  -6.263  -5.533  0.00  0.00     0.278 C 
BRANCH  14  15
HETATM   15  N           1     -20.984  -6.971  -6.747  0.00  0.00    -0.066 N 
HETATM   16  H           1     -21.697  -6.371  -7.219  0.00  0.00     0.275 HD
HETATM   17  H           1     -21.423  -7.875  -6.461  0.00  0.00     0.275 HD
HETATM   18  H           1     -20.197  -7.160  -7.408  0.00  0.00     0.275 HD
ENDBRANCH  14  15
BRANCH  14  19
HETATM   19  C           1     -21.547  -6.181  -4.490  0.00  0.00     0.249 C 
HETATM   20  O           1     -22.707  -6.153  -4.828  0.00  0.00    -0.271 OA
HETATM   21  N           1     -21.220  -6.139  -3.162  0.00  0.00    -0.349 N 
HETATM   22  H           1     -20.248  -6.162  -2.878  0.00  0.00     0.163 HD
BRANCH  21  23
HETATM   23  C           1     -22.264  -6.061  -2.160  0.00  0.00     0.235 C 
BRANCH  23  24
HETATM   24  C           1     -22.055  -7.141  -1.128  0.00  0.00     0.191 C 
HETATM   25  O           1     -22.917  -7.336  -0.243  0.00  0.00    -0.647 OA
HETATM   26  O           1     -21.019  -7.840  -1.155  0.00  0.00    -0.647 OA
ENDBRANCH  23  24
ENDBRANCH  21  23
ENDBRANCH  14  19
ENDBRANCH   1  14
TORSDOF 9
ENDMDL
MODEL 5
REMARK VINA RESULT:      -7.3      3.685      8.487
REMARK  9 active torsions:
REMARK  status: ('A' for Active; 'I' for Inactive)
REMARK    1  A    between atoms: N_9  and  C_20 
REMARK    2  A    between atoms: O_14  and  P_15 
REMARK    3  A    between atoms: P_15  and  O_16 
REMARK    4  A    between atoms: O_16  and  C_17 
REMARK    5  A    between atoms: C_18  and  C_19 
REMARK    6  A    between atoms: C_19  and  C_20 
REMARK    7  A    between atoms: C_20  and  C_21 
REMARK       I    between atoms: C_21  and  N_22 
REMARK    8  A    between atoms: N_22  and  C_23 
REMARK    9  A    between atoms: C_23  and  C_25 
ROOT
HETATM    1  C           1     -21.726  -3.576  -9.383  0.00  0.00     0.081 C 
ENDROOT
BRANCH   1   2
HETATM    2  C           1     -21.332  -4.415  -8.208  0.00  0.00    -0.056 A 
HETATM    3  C           1     -22.235  -4.621  -7.164  0.00  0.00     0.010 A 
HETATM    4  C           1     -21.867  -5.404  -6.070  0.00  0.00     0.038 A 
HETATM    5  C           1     -20.599  -5.981  -6.019  0.00  0.00     0.081 A 
HETATM    6  C           1     -19.696  -5.776  -7.063  0.00  0.00     0.038 A 
HETATM    7  C           1     -20.064  -4.993  -8.157  0.00  0.00     0.010 A 
BRANCH   5   8
HETATM    8  O           1     -20.243  -6.742  -4.955  0.00  0.00    -0.247 OA
BRANCH   8   9
HETATM    9  P           1     -20.275  -8.347  -5.127  0.00  0.00     0.411 P 
HETATM   10  O           1     -21.374  -8.724  -6.045  0.00  0.00    -0.624 OA
HETATM   11  O           1     -20.495  -8.980  -3.807  0.00  0.00    -0.624 OA
BRANCH   9  12
HETATM   12  O           1     -18.869  -8.853  -5.738  0.00  0.00    -0.300 OA
HETATM   13  H           1     -18.612  -9.576  -5.193  0.00  0.00     0.223 HD
ENDBRANCH   9  12
ENDBRANCH   8   9
ENDBRANCH   5   8
ENDBRANCH   1   2
BRANCH   1  14
HETATM   14  C           1     -21.447  -4.342 -10.670  0.00  0.00     0.278 C 
BRANCH  14  15
HETATM   15  N           1     -20.231  -3.772 -11.337  0.00  0.00    -0.066 N 
HETATM   16  H           1     -19.818  -4.487 -11.977  0.00  0.00     0.275 HD
HETATM   17  H           1     -19.528  -3.508 -10.610  0.00  0.00     0.275 HD
HETATM   18  H           1     -20.498  -2.925 -11.886  0.00  0.00     0.275 HD
ENDBRANCH  14  15
BRANCH  14  19
HETATM   19  C           1     -22.633  -4.218 -11.596  0.00  0.00     0.249 C 
HETATM   20  O           1     -23.684  -4.738 -11.304  0.00  0.00    -0.271 OA
HETATM   21  N           1     -22.517  -3.518 -12.766  0.00  0.00    -0.349 N 
HETATM   22  H           1     -21.637  -3.083 -13.011  0.00  0.00     0.163 HD
BRANCH  21  23
HETATM   23  C           1     -23.656  -3.399 -13.656  0.00  0.00     0.235 C 
BRANCH  23  24
HETATM   24  C           1     -23.376  -2.342 -14.695  0.00  0.00     0.191 C 
HETATM   25  O           1     -24.105  -1.329 -14.768  0.00  0.00    -0.647 OA
HETATM   26  O           1     -22.416  -2.478 -15.484  0.00  0.00    -0.647 OA
ENDBRANCH  23  24
ENDBRANCH  21  23
ENDBRANCH  14  19
ENDBRANCH   1  14
TORSDOF 9
ENDMDL
MODEL 6
REMARK VINA RESULT:      -6.9      2.808      3.426
REMARK  9 active torsions:
REMARK  status: ('A' for Active; 'I' for Inactive)
REMARK    1  A    between atoms: N_9  and  C_20 
REMARK    2  A    between atoms: O_14  and  P_15 
REMARK    3  A    between atoms: P_15  and  O_16 
REMARK    4  A    between atoms: O_16  and  C_17 
REMARK    5  A    between atoms: C_18  and  C_19 
REMARK    6  A    between atoms: C_19  and  C_20 
REMARK    7  A    between atoms: C_20  and  C_21 
REMARK       I    between atoms: C_21  and  N_22 
REMARK    8  A    between atoms: N_22  and  C_23 
REMARK    9  A    between atoms: C_23  and  C_25 
ROOT
HETATM    1  C           1     -20.523  -5.407  -6.074  0.00  0.00     0.081 C 
ENDROOT
BRANCH   1   2
HETATM    2  C           1     -20.997  -4.832  -7.372  0.00  0.00    -0.056 A 
HETATM    3  C           1     -22.228  -4.180  -7.438  0.00  0.00     0.010 A 
HETATM    4  C           1     -22.669  -3.644  -8.649  0.00  0.00     0.038 A 
HETATM    5  C           1     -21.878  -3.759  -9.792  0.00  0.00     0.081 A 
HETATM    6  C           1     -20.646  -4.410  -9.726  0.00  0.00     0.038 A 
HETATM    7  C           1     -20.206  -4.946  -8.515  0.00  0.00     0.010 A 
BRANCH   5   8
HETATM    8  O           1     -22.307  -3.238 -10.967  0.00  0.00    -0.247 OA
BRANCH   8   9
HETATM    9  P           1     -23.654  -3.845 -11.619  0.00  0.00     0.411 P 
HETATM   10  O           1     -23.709  -5.303 -11.370  0.00  0.00    -0.624 OA
HETATM   11  O           1     -23.653  -3.592 -13.077  0.00  0.00    -0.624 OA
BRANCH   9  12
HETATM   12  O           1     -24.943  -3.138 -10.951  0.00  0.00    -0.300 OA
HETATM   13  H           1     -25.259  -3.756 -10.316  0.00  0.00     0.223 HD
ENDBRANCH   9  12
ENDBRANCH   8   9
ENDBRANCH   5   8
ENDBRANCH   1   2
BRANCH   1  14
HETATM   14  C           1     -21.315  -6.669  -5.758  0.00  0.00     0.278 C 
BRANCH  14  15
HETATM   15  N           1     -22.487  -6.319  -4.889  0.00  0.00    -0.066 N 
HETATM   16  H           1     -22.145  -6.018  -3.949  0.00  0.00     0.275 HD
HETATM   17  H           1     -23.104  -7.155  -4.784  0.00  0.00     0.275 HD
HETATM   18  H           1     -23.027  -5.540  -5.329  0.00  0.00     0.275 HD
ENDBRANCH  14  15
BRANCH  14  19
HETATM   19  C           1     -20.429  -7.652  -5.035  0.00  0.00     0.249 C 
HETATM   20  O           1     -20.582  -7.848  -3.852  0.00  0.00    -0.271 OA
HETATM   21  N           1     -19.450  -8.323  -5.718  0.00  0.00    -0.349 N 
HETATM   22  H           1     -19.321  -8.160  -6.709  0.00  0.00     0.163 HD
BRANCH  21  23
HETATM   23  C           1     -18.599  -9.269  -5.024  0.00  0.00     0.235 C 
BRANCH  23  24
HETATM   24  C           1     -18.036 -10.261  -6.011  0.00  0.00     0.191 C 
HETATM   25  O           1     -16.808 -10.495  -6.030  0.00  0.00    -0.647 OA
HETATM   26  O           1     -18.796 -10.847  -6.812  0.00  0.00    -0.647 OA
ENDBRANCH  23  24
ENDBRANCH  21  23
ENDBRANCH  14  19
ENDBRANCH   1  14
TORSDOF 9
ENDMDL
MODEL 7
REMARK VINA RESULT:      -6.7      3.709      9.075
REMARK  9 active torsions:
REMARK  status: ('A' for Active; 'I' for Inactive)
REMARK    1  A    between atoms: N_9  and  C_20 
REMARK    2  A    between atoms: O_14  and  P_15 
REMARK    3  A    between atoms: P_15  and  O_16 
REMARK    4  A    between atoms: O_16  and  C_17 
REMARK    5  A    between atoms: C_18  and  C_19 
REMARK    6  A    between atoms: C_19  and  C_20 
REMARK    7  A    between atoms: C_20  and  C_21 
REMARK       I    between atoms: C_21  and  N_22 
REMARK    8  A    between atoms: N_22  and  C_23 
REMARK    9  A    between atoms: C_23  and  C_25 
ROOT
HETATM    1  C           1     -21.627  -6.325  -6.446  0.00  0.00     0.081 C 
ENDROOT
BRANCH   1   2
HETATM    2  C           1     -21.435  -6.881  -5.070  0.00  0.00    -0.056 A 
HETATM    3  C           1     -21.496  -8.258  -4.859  0.00  0.00     0.010 A 
HETATM    4  C           1     -21.316  -8.776  -3.576  0.00  0.00     0.038 A 
HETATM    5  C           1     -21.075  -7.917  -2.504  0.00  0.00     0.081 A 
HETATM    6  C           1     -21.012  -6.539  -2.715  0.00  0.00     0.038 A 
HETATM    7  C           1     -21.192  -6.021  -3.999  0.00  0.00     0.010 A 
BRANCH   5   8
HETATM    8  O           1     -20.900  -8.420  -1.258  0.00  0.00    -0.247 OA
BRANCH   8   9
HETATM    9  P           1     -22.142  -8.343  -0.229  0.00  0.00     0.411 P 
HETATM   10  O           1     -21.632  -8.341   1.161  0.00  0.00    -0.624 OA
HETATM   11  O           1     -23.023  -9.515  -0.431  0.00  0.00    -0.624 OA
BRANCH   9  12
HETATM   12  O           1     -22.980  -6.989  -0.495  0.00  0.00    -0.300 OA
HETATM   13  H           1     -23.096  -6.603   0.356  0.00  0.00     0.223 HD
ENDBRANCH   9  12
ENDBRANCH   8   9
ENDBRANCH   5   8
ENDBRANCH   1   2
BRANCH   1  14
HETATM   14  C           1     -22.408  -5.020  -6.363  0.00  0.00     0.278 C 
BRANCH  14  15
HETATM   15  N           1     -23.854  -5.320  -6.102  0.00  0.00    -0.066 N 
HETATM   16  H           1     -24.288  -5.716  -6.966  0.00  0.00     0.275 HD
HETATM   17  H           1     -24.349  -4.439  -5.836  0.00  0.00     0.275 HD
HETATM   18  H           1     -23.933  -6.013  -5.324  0.00  0.00     0.275 HD
ENDBRANCH  14  15
BRANCH  14  19
HETATM   19  C           1     -22.276  -4.270  -7.665  0.00  0.00     0.249 C 
HETATM   20  O           1     -21.209  -3.806  -7.990  0.00  0.00    -0.271 OA
HETATM   21  N           1     -23.366  -4.114  -8.479  0.00  0.00    -0.349 N 
HETATM   22  H           1     -24.260  -4.503  -8.207  0.00  0.00     0.163 HD
BRANCH  21  23
HETATM   23  C           1     -23.240  -3.394  -9.731  0.00  0.00     0.235 C 
BRANCH  23  24
HETATM   24  C           1     -24.582  -3.337 -10.418  0.00  0.00     0.191 C 
HETATM   25  O           1     -24.659  -3.512 -11.653  0.00  0.00    -0.647 OA
HETATM   26  O           1     -25.616  -3.113  -9.752  0.00  0.00    -0.647 OA
ENDBRANCH  23  24
ENDBRANCH  21  23
ENDBRANCH  14  19
ENDBRANCH   1  14
TORSDOF 9
ENDMDL
MODEL 8
REMARK VINA RESULT:      -6.7      3.320      8.491
REMARK  9 active torsions:
REMARK  status: ('A' for Active; 'I' for Inactive)
REMARK    1  A    between atoms: N_9  and  C_20 
REMARK    2  A    between atoms: O_14  and  P_15 
REMARK    3  A    between atoms: P_15  and  O_16 
REMARK    4  A    between atoms: O_16  and  C_17 
REMARK    5  A    between atoms: C_18  and  C_19 
REMARK    6  A    between atoms: C_19  and  C_20 
REMARK    7  A    between atoms: C_20  and  C_21 
REMARK       I    between atoms: C_21  and  N_22 
REMARK    8  A    between atoms: N_22  and  C_23 
REMARK    9  A    between atoms: C_23  and  C_25 
ROOT
HETATM    1  C           1     -20.653  -3.800  -8.832  0.00  0.00     0.081 C 
ENDROOT
BRANCH   1   2
HETATM    2  C           1     -20.948  -4.677  -7.656  0.00  0.00    -0.056 A 
HETATM    3  C           1     -22.215  -4.662  -7.075  0.00  0.00     0.010 A 
HETATM    4  C           1     -22.489  -5.481  -5.979  0.00  0.00     0.038 A 
HETATM    5  C           1     -21.496  -6.314  -5.465  0.00  0.00     0.081 A 
HETATM    6  C           1     -20.228  -6.330  -6.047  0.00  0.00     0.038 A 
HETATM    7  C           1     -19.954  -5.511  -7.143  0.00  0.00     0.010 A 
BRANCH   5   8
HETATM    8  O           1     -21.763  -7.109  -4.400  0.00  0.00    -0.247 OA
BRANCH   8   9
HETATM    9  P           1     -21.504  -6.510  -2.923  0.00  0.00     0.411 P 
HETATM   10  O           1     -20.601  -5.341  -3.016  0.00  0.00    -0.624 OA
HETATM   11  O           1     -20.882  -7.548  -2.072  0.00  0.00    -0.624 OA
BRANCH   9  12
HETATM   12  O           1     -22.909  -6.051  -2.273  0.00  0.00    -0.300 OA
HETATM   13  H           1     -22.736  -5.970  -1.351  0.00  0.00     0.223 HD
ENDBRANCH   9  12
ENDBRANCH   8   9
ENDBRANCH   5   8
ENDBRANCH   1   2
BRANCH   1  14
HETATM   14  C           1     -21.116  -4.489 -10.109  0.00  0.00     0.278 C 
BRANCH  14  15
HETATM   15  N           1     -19.937  -4.723 -11.007  0.00  0.00    -0.066 N 
HETATM   16  H           1     -20.209  -4.525 -11.996  0.00  0.00     0.275 HD
HETATM   17  H           1     -19.627  -5.717 -10.922  0.00  0.00     0.275 HD
HETATM   18  H           1     -19.155  -4.089 -10.727  0.00  0.00     0.275 HD
ENDBRANCH  14  15
BRANCH  14  19
HETATM   19  C           1     -22.122  -3.615 -10.817  0.00  0.00     0.249 C 
HETATM   20  O           1     -23.158  -3.321 -10.270  0.00  0.00    -0.271 OA
HETATM   21  N           1     -21.861  -3.155 -12.080  0.00  0.00    -0.349 N 
HETATM   22  H           1     -20.993  -3.401 -12.539  0.00  0.00     0.163 HD
BRANCH  21  23
HETATM   23  C           1     -22.827  -2.315 -12.760  0.00  0.00     0.235 C 
BRANCH  23  24
HETATM   24  C           1     -23.295  -3.002 -14.019  0.00  0.00     0.191 C 
HETATM   25  O           1     -22.712  -2.785 -15.103  0.00  0.00    -0.647 OA
HETATM   26  O           1     -24.268  -3.786 -13.978  0.00  0.00    -0.647 OA
ENDBRANCH  23  24
ENDBRANCH  21  23
ENDBRANCH  14  19
ENDBRANCH   1  14
TORSDOF 9
ENDMDL
MODEL 9
REMARK VINA RESULT:      -6.6      2.255      2.898
REMARK  9 active torsions:
REMARK  status: ('A' for Active; 'I' for Inactive)
REMARK    1  A    between atoms: N_9  and  C_20 
REMARK    2  A    between atoms: O_14  and  P_15 
REMARK    3  A    between atoms: P_15  and  O_16 
REMARK    4  A    between atoms: O_16  and  C_17 
REMARK    5  A    between atoms: C_18  and  C_19 
REMARK    6  A    between atoms: C_19  and  C_20 
REMARK    7  A    between atoms: C_20  and  C_21 
REMARK       I    between atoms: C_21  and  N_22 
REMARK    8  A    between atoms: N_22  and  C_23 
REMARK    9  A    between atoms: C_23  and  C_25 
ROOT
HETATM    1  C           1     -20.353  -6.057  -5.991  0.00  0.00     0.081 C 
ENDROOT
BRANCH   1   2
HETATM    2  C           1     -20.917  -5.307  -7.157  0.00  0.00    -0.056 A 
HETATM    3  C           1     -22.174  -4.711  -7.060  0.00  0.00     0.010 A 
HETATM    4  C           1     -22.699  -4.011  -8.147  0.00  0.00     0.038 A 
HETATM    5  C           1     -21.968  -3.909  -9.330  0.00  0.00     0.081 A 
HETATM    6  C           1     -20.710  -4.505  -9.427  0.00  0.00     0.038 A 
HETATM    7  C           1     -20.185  -5.204  -8.340  0.00  0.00     0.010 A 
BRANCH   5   8
HETATM    8  O           1     -22.479  -3.229 -10.386  0.00  0.00    -0.247 OA
BRANCH   8   9
HETATM    9  P           1     -23.685  -3.912 -11.214  0.00  0.00     0.411 P 
HETATM   10  O           1     -23.814  -5.333 -10.818  0.00  0.00    -0.624 OA
HETATM   11  O           1     -23.398  -3.827 -12.663  0.00  0.00    -0.624 OA
BRANCH   9  12
HETATM   12  O           1     -25.066  -3.139 -10.893  0.00  0.00    -0.300 OA
HETATM   13  H           1     -25.437  -3.596 -10.159  0.00  0.00     0.223 HD
ENDBRANCH   9  12
ENDBRANCH   8   9
ENDBRANCH   5   8
ENDBRANCH   1   2
BRANCH   1  14
HETATM   14  C           1     -21.486  -6.707  -5.208  0.00  0.00     0.278 C 
BRANCH  14  15
HETATM   15  N           1     -21.610  -6.045  -3.867  0.00  0.00    -0.066 N 
HETATM   16  H           1     -21.565  -6.769  -3.116  0.00  0.00     0.275 HD
HETATM   17  H           1     -22.524  -5.541  -3.812  0.00  0.00     0.275 HD
HETATM   18  H           1     -20.829  -5.363  -3.741  0.00  0.00     0.275 HD
ENDBRANCH  14  15
BRANCH  14  19
HETATM   19  C           1     -21.191  -8.174  -5.018  0.00  0.00     0.249 C 
HETATM   20  O           1     -20.926  -8.866  -5.973  0.00  0.00    -0.271 OA
HETATM   21  N           1     -21.224  -8.723  -3.764  0.00  0.00    -0.349 N 
HETATM   22  H           1     -21.446  -8.145  -2.964  0.00  0.00     0.163 HD
BRANCH  21  23
HETATM   23  C           1     -20.940 -10.133  -3.582  0.00  0.00     0.235 C 
BRANCH  23  24
HETATM   24  C           1     -22.234 -10.894  -3.436  0.00  0.00     0.191 C 
HETATM   25  O           1     -22.653 -11.601  -4.378  0.00  0.00    -0.647 OA
HETATM   26  O           1     -22.889 -10.816  -2.374  0.00  0.00    -0.647 OA
ENDBRANCH  23  24
ENDBRANCH  21  23
ENDBRANCH  14  19
ENDBRANCH   1  14
TORSDOF 9
ENDMDL
