MODEL 1
REMARK VINA RESULT:      -5.6      0.000      0.000
REMARK  9 active torsions:
REMARK  status: ('A' for Active; 'I' for Inactive)
REMARK    1  A    between atoms: C_1  and  C_3 
REMARK    2  A    between atoms: C_3  and  C_9 
REMARK    3  A    between atoms: C_3  and  N_15 
REMARK    4  A    between atoms: S_7  and  C_8 
REMARK    5  A    between atoms: C_8  and  C_9 
REMARK    6  A    between atoms: O_11  and  C_16 
REMARK    7  A    between atoms: N_12  and  C_17 
REMARK       I    between atoms: N_15  and  C_18 
REMARK    8  A    between atoms: C_16  and  C_17 
REMARK    9  A    between atoms: C_17  and  C_18 
ROOT
HETATM    1  H           1     -22.569  -2.482 -11.473  0.00  0.00     0.163 HD
HETATM    2  N           1     -23.229  -3.178 -11.797  0.00  0.00    -0.345 N 
HETATM    3  C           1     -23.634  -3.182 -13.105  0.00  0.00     0.251 C 
HETATM    4  O           1     -24.421  -4.013 -13.492  0.00  0.00    -0.271 OA
ENDROOT
BRANCH   2   5
HETATM    5  C           1     -23.745  -4.172 -10.876  0.00  0.00     0.186 C 
BRANCH   5   6
HETATM    6  C           1     -24.627  -3.500  -9.853  0.00  0.00     0.196 C 
HETATM    7  O           1     -24.193  -3.278  -8.703  0.00  0.00    -0.646 OA
HETATM    8  O           1     -25.793  -3.167 -10.156  0.00  0.00    -0.646 OA
ENDBRANCH   5   6
BRANCH   5   9
HETATM    9  C           1     -22.584  -4.862 -10.171  0.00  0.00     0.046 C 
BRANCH   9  10
HETATM   10  C           1     -21.318  -4.034 -10.347  0.00  0.00     0.076 C 
BRANCH  10  11
HETATM   11  S           1     -20.204  -4.325  -8.945  0.00  0.00    -0.173 SA
HETATM   12  C           1     -21.399  -5.234  -7.925  0.00  0.00     0.089 C 
ENDBRANCH  10  11
ENDBRANCH   9  10
ENDBRANCH   5   9
ENDBRANCH   2   5
BRANCH   3  13
HETATM   13  C           1     -23.097  -2.148 -14.064  0.00  0.00     0.297 C 
BRANCH  13  14
HETATM   14  N           1     -22.388  -2.835 -15.194  0.00  0.00    -0.064 N 
HETATM   15  H           1     -21.424  -2.442 -15.289  0.00  0.00     0.275 HD
HETATM   16  H           1     -22.916  -2.681 -16.082  0.00  0.00     0.275 HD
HETATM   17  H           1     -22.330  -3.860 -14.997  0.00  0.00     0.275 HD
ENDBRANCH  13  14
BRANCH  13  18
HETATM   18  C           1     -24.250  -1.321 -14.617  0.00  0.00     0.206 C 
BRANCH  18  19
HETATM   19  O           1     -23.748  -0.334 -15.477  0.00  0.00    -0.398 OA
HETATM   20  H           1     -23.438   0.371 -14.935  0.00  0.00     0.209 HD
ENDBRANCH  18  19
ENDBRANCH  13  18
ENDBRANCH   3  13
TORSDOF 9
ENDMDL
MODEL 2
REMARK VINA RESULT:      -5.6      3.288      6.202
REMARK  9 active torsions:
REMARK  status: ('A' for Active; 'I' for Inactive)
REMARK    1  A    between atoms: C_1  and  C_3 
REMARK    2  A    between atoms: C_3  and  C_9 
REMARK    3  A    between atoms: C_3  and  N_15 
REMARK    4  A    between atoms: S_7  and  C_8 
REMARK    5  A    between atoms: C_8  and  C_9 
REMARK    6  A    between atoms: O_11  and  C_16 
REMARK    7  A    between atoms: N_12  and  C_17 
REMARK       I    between atoms: N_15  and  C_18 
REMARK    8  A    between atoms: C_16  and  C_17 
REMARK    9  A    between atoms: C_17  and  C_18 
ROOT
HETATM    1  H           1     -22.121  -5.762  -9.146  0.00  0.00     0.163 HD
HETATM    2  N           1     -22.137  -4.786  -8.879  0.00  0.00    -0.345 N 
HETATM    3  C           1     -21.610  -4.396  -7.676  0.00  0.00     0.251 C 
HETATM    4  O           1     -21.629  -3.231  -7.358  0.00  0.00    -0.271 OA
ENDROOT
BRANCH   2   5
HETATM    5  C           1     -22.718  -3.800  -9.769  0.00  0.00     0.186 C 
BRANCH   5   6
HETATM    6  C           1     -24.223  -3.871  -9.686  0.00  0.00     0.196 C 
HETATM    7  O           1     -24.808  -4.961  -9.868  0.00  0.00    -0.646 OA
HETATM    8  O           1     -24.885  -2.841  -9.437  0.00  0.00    -0.646 OA
ENDBRANCH   5   6
BRANCH   5   9
HETATM    9  C           1     -22.274  -4.083 -11.199  0.00  0.00     0.046 C 
BRANCH   9  10
HETATM   10  C           1     -22.340  -2.801 -12.016  0.00  0.00     0.076 C 
BRANCH  10  11
HETATM   11  S           1     -23.807  -2.837 -13.083  0.00  0.00    -0.173 SA
HETATM   12  C           1     -22.917  -2.631 -14.652  0.00  0.00     0.089 C 
ENDBRANCH  10  11
ENDBRANCH   9  10
ENDBRANCH   5   9
ENDBRANCH   2   5
BRANCH   3  13
HETATM   13  C           1     -21.006  -5.422  -6.749  0.00  0.00     0.297 C 
BRANCH  13  14
HETATM   14  N           1     -19.829  -4.821  -6.039  0.00  0.00    -0.064 N 
HETATM   15  H           1     -19.403  -4.078  -6.639  0.00  0.00     0.275 HD
HETATM   16  H           1     -19.120  -5.564  -5.848  0.00  0.00     0.275 HD
HETATM   17  H           1     -20.145  -4.402  -5.135  0.00  0.00     0.275 HD
ENDBRANCH  13  14
BRANCH  13  18
HETATM   18  C           1     -22.047  -5.859  -5.727  0.00  0.00     0.206 C 
BRANCH  18  19
HETATM   19  O           1     -23.280  -5.268  -6.033  0.00  0.00    -0.398 OA
HETATM   20  H           1     -23.836  -5.951  -6.367  0.00  0.00     0.209 HD
ENDBRANCH  18  19
ENDBRANCH  13  18
ENDBRANCH   3  13
TORSDOF 9
ENDMDL
MODEL 3
REMARK VINA RESULT:      -5.3      2.018      2.591
REMARK  9 active torsions:
REMARK  status: ('A' for Active; 'I' for Inactive)
REMARK    1  A    between atoms: C_1  and  C_3 
REMARK    2  A    between atoms: C_3  and  C_9 
REMARK    3  A    between atoms: C_3  and  N_15 
REMARK    4  A    between atoms: S_7  and  C_8 
REMARK    5  A    between atoms: C_8  and  C_9 
REMARK    6  A    between atoms: O_11  and  C_16 
REMARK    7  A    between atoms: N_12  and  C_17 
REMARK       I    between atoms: N_15  and  C_18 
REMARK    8  A    between atoms: C_16  and  C_17 
REMARK    9  A    between atoms: C_17  and  C_18 
ROOT
HETATM    1  H           1     -21.955  -2.364 -10.235  0.00  0.00     0.163 HD
HETATM    2  N           1     -22.204  -3.337 -10.360  0.00  0.00    -0.345 N 
HETATM    3  C           1     -22.663  -3.776 -11.573  0.00  0.00     0.251 C 
HETATM    4  O           1     -22.961  -4.937 -11.723  0.00  0.00    -0.271 OA
ENDROOT
BRANCH   2   5
HETATM    5  C           1     -22.076  -4.267  -9.254  0.00  0.00     0.186 C 
BRANCH   5   6
HETATM    6  C           1     -23.295  -4.170  -8.371  0.00  0.00     0.196 C 
HETATM    7  O           1     -24.381  -3.773  -8.847  0.00  0.00    -0.646 OA
HETATM    8  O           1     -23.220  -4.486  -7.165  0.00  0.00    -0.646 OA
ENDBRANCH   5   6
BRANCH   5   9
HETATM    9  C           1     -20.832  -3.922  -8.444  0.00  0.00     0.046 C 
BRANCH   9  10
HETATM   10  C           1     -20.145  -5.204  -7.997  0.00  0.00     0.076 C 
BRANCH  10  11
HETATM   11  S           1     -19.877  -5.153  -6.202  0.00  0.00    -0.173 SA
HETATM   12  C           1     -20.741  -6.705  -5.828  0.00  0.00     0.089 C 
ENDBRANCH  10  11
ENDBRANCH   9  10
ENDBRANCH   5   9
ENDBRANCH   2   5
BRANCH   3  13
HETATM   13  C           1     -22.798  -2.809 -12.724  0.00  0.00     0.297 C 
BRANCH  13  14
HETATM   14  N           1     -22.151  -3.393 -13.945  0.00  0.00    -0.064 N 
HETATM   15  H           1     -22.455  -2.857 -14.790  0.00  0.00     0.275 HD
HETATM   16  H           1     -22.436  -4.393 -14.045  0.00  0.00     0.275 HD
HETATM   17  H           1     -21.112  -3.336 -13.850  0.00  0.00     0.275 HD
ENDBRANCH  13  14
BRANCH  13  18
HETATM   18  C           1     -24.273  -2.554 -13.004  0.00  0.00     0.206 C 
BRANCH  18  19
HETATM   19  O           1     -25.039  -2.997 -11.917  0.00  0.00    -0.398 OA
HETATM   20  H           1     -25.939  -2.987 -12.194  0.00  0.00     0.209 HD
ENDBRANCH  18  19
ENDBRANCH  13  18
ENDBRANCH   3  13
TORSDOF 9
ENDMDL
MODEL 4
REMARK VINA RESULT:      -5.0      3.472      5.166
REMARK  9 active torsions:
REMARK  status: ('A' for Active; 'I' for Inactive)
REMARK    1  A    between atoms: C_1  and  C_3 
REMARK    2  A    between atoms: C_3  and  C_9 
REMARK    3  A    between atoms: C_3  and  N_15 
REMARK    4  A    between atoms: S_7  and  C_8 
REMARK    5  A    between atoms: C_8  and  C_9 
REMARK    6  A    between atoms: O_11  and  C_16 
REMARK    7  A    between atoms: N_12  and  C_17 
REMARK       I    between atoms: N_15  and  C_18 
REMARK    8  A    between atoms: C_16  and  C_17 
REMARK    9  A    between atoms: C_17  and  C_18 
ROOT
HETATM    1  H           1     -22.328  -6.233  -8.887  0.00  0.00     0.163 HD
HETATM    2  N           1     -22.206  -5.273  -8.591  0.00  0.00    -0.345 N 
HETATM    3  C           1     -23.050  -4.300  -9.058  0.00  0.00     0.251 C 
HETATM    4  O           1     -22.905  -3.154  -8.705  0.00  0.00    -0.271 OA
ENDROOT
BRANCH   2   5
HETATM    5  C           1     -21.139  -4.926  -7.672  0.00  0.00     0.186 C 
BRANCH   5   6
HETATM    6  C           1     -19.886  -4.614  -8.452  0.00  0.00     0.196 C 
HETATM    7  O           1     -19.860  -4.788  -9.690  0.00  0.00    -0.646 OA
HETATM    8  O           1     -18.873  -4.183  -7.861  0.00  0.00    -0.646 OA
ENDBRANCH   5   6
BRANCH   5   9
HETATM    9  C           1     -20.877  -6.098  -6.735  0.00  0.00     0.046 C 
BRANCH   9  10
HETATM   10  C           1     -20.981  -5.628  -5.291  0.00  0.00     0.076 C 
BRANCH  10  11
HETATM   11  S           1     -21.992  -6.800  -4.344  0.00  0.00    -0.173 SA
HETATM   12  C           1     -21.549  -6.164  -2.703  0.00  0.00     0.089 C 
ENDBRANCH  10  11
ENDBRANCH   9  10
ENDBRANCH   5   9
ENDBRANCH   2   5
BRANCH   3  13
HETATM   13  C           1     -24.161  -4.660 -10.015  0.00  0.00     0.297 C 
BRANCH  13  14
HETATM   14  N           1     -25.309  -3.714  -9.824  0.00  0.00    -0.064 N 
HETATM   15  H           1     -24.988  -2.882  -9.278  0.00  0.00     0.275 HD
HETATM   16  H           1     -26.076  -4.198  -9.304  0.00  0.00     0.275 HD
HETATM   17  H           1     -25.664  -3.404 -10.757  0.00  0.00     0.275 HD
ENDBRANCH  13  14
BRANCH  13  18
HETATM   18  C           1     -23.652  -4.558 -11.446  0.00  0.00     0.206 C 
BRANCH  18  19
HETATM   19  O           1     -22.257  -4.414 -11.438  0.00  0.00    -0.398 OA
HETATM   20  H           1     -21.991  -4.379 -10.536  0.00  0.00     0.209 HD
ENDBRANCH  18  19
ENDBRANCH  13  18
ENDBRANCH   3  13
TORSDOF 9
ENDMDL
MODEL 5
REMARK VINA RESULT:      -4.9      2.475      3.268
REMARK  9 active torsions:
REMARK  status: ('A' for Active; 'I' for Inactive)
REMARK    1  A    between atoms: C_1  and  C_3 
REMARK    2  A    between atoms: C_3  and  C_9 
REMARK    3  A    between atoms: C_3  and  N_15 
REMARK    4  A    between atoms: S_7  and  C_8 
REMARK    5  A    between atoms: C_8  and  C_9 
REMARK    6  A    between atoms: O_11  and  C_16 
REMARK    7  A    between atoms: N_12  and  C_17 
REMARK       I    between atoms: N_15  and  C_18 
REMARK    8  A    between atoms: C_16  and  C_17 
REMARK    9  A    between atoms: C_17  and  C_18 
ROOT
HETATM    1  H           1     -23.013  -5.136 -10.984  0.00  0.00     0.163 HD
HETATM    2  N           1     -22.558  -4.235 -10.918  0.00  0.00    -0.345 N 
HETATM    3  C           1     -22.851  -3.252 -11.825  0.00  0.00     0.251 C 
HETATM    4  O           1     -22.308  -2.175 -11.746  0.00  0.00    -0.271 OA
ENDROOT
BRANCH   2   5
HETATM    5  C           1     -21.597  -3.984  -9.861  0.00  0.00     0.186 C 
BRANCH   5   6
HETATM    6  C           1     -20.242  -4.496 -10.282  0.00  0.00     0.196 C 
HETATM    7  O           1     -19.753  -4.143 -11.377  0.00  0.00    -0.646 OA
HETATM    8  O           1     -19.610  -5.275  -9.537  0.00  0.00    -0.646 OA
ENDBRANCH   5   6
BRANCH   5   9
HETATM    9  C           1     -22.040  -4.699  -8.592  0.00  0.00     0.046 C 
BRANCH   9  10
HETATM   10  C           1     -21.823  -3.788  -7.392  0.00  0.00     0.076 C 
BRANCH  10  11
HETATM   11  S           1     -20.663  -4.572  -6.238  0.00  0.00    -0.173 SA
HETATM   12  C           1     -21.192  -6.279  -6.552  0.00  0.00     0.089 C 
ENDBRANCH  10  11
ENDBRANCH   9  10
ENDBRANCH   5   9
ENDBRANCH   2   5
BRANCH   3  13
HETATM   13  C           1     -23.851  -3.513 -12.925  0.00  0.00     0.297 C 
BRANCH  13  14
HETATM   14  N           1     -25.225  -3.145 -12.447  0.00  0.00    -0.064 N 
HETATM   15  H           1     -25.878  -3.942 -12.622  0.00  0.00     0.275 HD
HETATM   16  H           1     -25.559  -2.301 -12.963  0.00  0.00     0.275 HD
HETATM   17  H           1     -25.194  -2.937 -11.423  0.00  0.00     0.275 HD
ENDBRANCH  13  14
BRANCH  13  18
HETATM   18  C           1     -23.496  -2.673 -14.144  0.00  0.00     0.206 C 
BRANCH  18  19
HETATM   19  O           1     -24.231  -1.479 -14.121  0.00  0.00    -0.398 OA
HETATM   20  H           1     -23.712  -0.829 -14.561  0.00  0.00     0.209 HD
ENDBRANCH  18  19
ENDBRANCH  13  18
ENDBRANCH   3  13
TORSDOF 9
ENDMDL
MODEL 6
REMARK VINA RESULT:      -4.8     16.186     17.902
REMARK  9 active torsions:
REMARK  status: ('A' for Active; 'I' for Inactive)
REMARK    1  A    between atoms: C_1  and  C_3 
REMARK    2  A    between atoms: C_3  and  C_9 
REMARK    3  A    between atoms: C_3  and  N_15 
REMARK    4  A    between atoms: S_7  and  C_8 
REMARK    5  A    between atoms: C_8  and  C_9 
REMARK    6  A    between atoms: O_11  and  C_16 
REMARK    7  A    between atoms: N_12  and  C_17 
REMARK       I    between atoms: N_15  and  C_18 
REMARK    8  A    between atoms: C_16  and  C_17 
REMARK    9  A    between atoms: C_17  and  C_18 
ROOT
HETATM    1  H           1     -10.239   7.379 -20.699  0.00  0.00     0.163 HD
HETATM    2  N           1     -11.107   6.908 -20.476  0.00  0.00    -0.345 N 
HETATM    3  C           1     -12.156   7.616 -19.954  0.00  0.00     0.251 C 
HETATM    4  O           1     -13.192   7.054 -19.688  0.00  0.00    -0.271 OA
ENDROOT
BRANCH   2   5
HETATM    5  C           1     -11.239   5.483 -20.710  0.00  0.00     0.186 C 
BRANCH   5   6
HETATM    6  C           1     -10.386   4.730 -19.719  0.00  0.00     0.196 C 
HETATM    7  O           1     -10.486   3.487 -19.626  0.00  0.00    -0.646 OA
HETATM    8  O           1      -9.581   5.348 -18.991  0.00  0.00    -0.646 OA
ENDBRANCH   5   6
BRANCH   5   9
HETATM    9  C           1     -10.782   5.157 -22.126  0.00  0.00     0.046 C 
BRANCH   9  10
HETATM   10  C           1     -11.716   4.121 -22.736  0.00  0.00     0.076 C 
BRANCH  10  11
HETATM   11  S           1     -13.360   4.266 -21.980  0.00  0.00    -0.173 SA
HETATM   12  C           1     -13.456   2.555 -21.384  0.00  0.00     0.089 C 
ENDBRANCH  10  11
ENDBRANCH   9  10
ENDBRANCH   5   9
ENDBRANCH   2   5
BRANCH   3  13
HETATM   13  C           1     -12.019   9.099 -19.710  0.00  0.00     0.297 C 
BRANCH  13  14
HETATM   14  N           1     -12.938   9.509 -18.598  0.00  0.00    -0.064 N 
HETATM   15  H           1     -13.773   8.880 -18.586  0.00  0.00     0.275 HD
HETATM   16  H           1     -13.246  10.496 -18.746  0.00  0.00     0.275 HD
HETATM   17  H           1     -12.434   9.436 -17.685  0.00  0.00     0.275 HD
ENDBRANCH  13  14
BRANCH  13  18
HETATM   18  C           1     -10.581   9.420 -19.326  0.00  0.00     0.206 C 
BRANCH  18  19
HETATM   19  O           1     -10.254   8.751 -18.139  0.00  0.00    -0.398 OA
HETATM   20  H           1      -9.454   8.279 -18.302  0.00  0.00     0.209 HD
ENDBRANCH  18  19
ENDBRANCH  13  18
ENDBRANCH   3  13
TORSDOF 9
ENDMDL
MODEL 7
REMARK VINA RESULT:      -4.7      5.660      7.955
REMARK  9 active torsions:
REMARK  status: ('A' for Active; 'I' for Inactive)
REMARK    1  A    between atoms: C_1  and  C_3 
REMARK    2  A    between atoms: C_3  and  C_9 
REMARK    3  A    between atoms: C_3  and  N_15 
REMARK    4  A    between atoms: S_7  and  C_8 
REMARK    5  A    between atoms: C_8  and  C_9 
REMARK    6  A    between atoms: O_11  and  C_16 
REMARK    7  A    between atoms: N_12  and  C_17 
REMARK       I    between atoms: N_15  and  C_18 
REMARK    8  A    between atoms: C_16  and  C_17 
REMARK    9  A    between atoms: C_17  and  C_18 
ROOT
HETATM    1  H           1     -22.353  -6.199  -6.192  0.00  0.00     0.163 HD
HETATM    2  N           1     -21.509  -5.907  -5.717  0.00  0.00    -0.345 N 
HETATM    3  C           1     -20.856  -4.770  -6.115  0.00  0.00     0.251 C 
HETATM    4  O           1     -19.848  -4.422  -5.547  0.00  0.00    -0.271 OA
ENDROOT
BRANCH   2   5
HETATM    5  C           1     -20.990  -6.692  -4.614  0.00  0.00     0.186 C 
BRANCH   5   6
HETATM    6  C           1     -20.489  -8.018  -5.132  0.00  0.00     0.196 C 
HETATM    7  O           1     -21.147  -8.641  -5.993  0.00  0.00    -0.646 OA
HETATM    8  O           1     -19.419  -8.494  -4.699  0.00  0.00    -0.646 OA
ENDBRANCH   5   6
BRANCH   5   9
HETATM    9  C           1     -22.097  -6.929  -3.595  0.00  0.00     0.046 C 
BRANCH   9  10
HETATM   10  C           1     -21.805  -6.131  -2.332  0.00  0.00     0.076 C 
BRANCH  10  11
HETATM   11  S           1     -22.263  -7.113  -0.876  0.00  0.00    -0.173 SA
HETATM   12  C           1     -21.724  -8.715  -1.538  0.00  0.00     0.089 C 
ENDBRANCH  10  11
ENDBRANCH   9  10
ENDBRANCH   5   9
ENDBRANCH   2   5
BRANCH   3  13
HETATM   13  C           1     -21.396  -3.953  -7.263  0.00  0.00     0.297 C 
BRANCH  13  14
HETATM   14  N           1     -20.395  -3.939  -8.380  0.00  0.00    -0.064 N 
HETATM   15  H           1     -19.429  -3.910  -7.980  0.00  0.00     0.275 HD
HETATM   16  H           1     -20.551  -3.097  -8.977  0.00  0.00     0.275 HD
HETATM   17  H           1     -20.507  -4.802  -8.959  0.00  0.00     0.275 HD
ENDBRANCH  13  14
BRANCH  13  18
HETATM   18  C           1     -22.698  -4.568  -7.757  0.00  0.00     0.206 C 
BRANCH  18  19
HETATM   19  O           1     -23.718  -4.312  -6.830  0.00  0.00    -0.398 OA
HETATM   20  H           1     -23.725  -3.383  -6.679  0.00  0.00     0.209 HD
ENDBRANCH  18  19
ENDBRANCH  13  18
ENDBRANCH   3  13
TORSDOF 9
ENDMDL
MODEL 8
REMARK VINA RESULT:      -4.6      4.656      6.873
REMARK  9 active torsions:
REMARK  status: ('A' for Active; 'I' for Inactive)
REMARK    1  A    between atoms: C_1  and  C_3 
REMARK    2  A    between atoms: C_3  and  C_9 
REMARK    3  A    between atoms: C_3  and  N_15 
REMARK    4  A    between atoms: S_7  and  C_8 
REMARK    5  A    between atoms: C_8  and  C_9 
REMARK    6  A    between atoms: O_11  and  C_16 
REMARK    7  A    between atoms: N_12  and  C_17 
REMARK       I    between atoms: N_15  and  C_18 
REMARK    8  A    between atoms: C_16  and  C_17 
REMARK    9  A    between atoms: C_17  and  C_18 
ROOT
HETATM    1  H           1     -22.809  -5.843  -6.911  0.00  0.00     0.163 HD
HETATM    2  N           1     -21.923  -5.441  -6.633  0.00  0.00    -0.345 N 
HETATM    3  C           1     -21.426  -4.352  -7.299  0.00  0.00     0.251 C 
HETATM    4  O           1     -20.368  -3.872  -6.966  0.00  0.00    -0.271 OA
ENDROOT
BRANCH   2   5
HETATM    5  C           1     -21.179  -6.017  -5.529  0.00  0.00     0.186 C 
BRANCH   5   6
HETATM    6  C           1     -20.437  -7.241  -6.007  0.00  0.00     0.196 C 
HETATM    7  O           1     -20.872  -8.381  -5.735  0.00  0.00    -0.646 OA
HETATM    8  O           1     -19.388  -7.115  -6.673  0.00  0.00    -0.646 OA
ENDBRANCH   5   6
BRANCH   5   9
HETATM    9  C           1     -22.144  -6.409  -4.418  0.00  0.00     0.046 C 
BRANCH   9  10
HETATM   10  C           1     -21.496  -6.147  -3.065  0.00  0.00     0.076 C 
BRANCH  10  11
HETATM   11  S           1     -21.429  -7.692  -2.116  0.00  0.00    -0.173 SA
HETATM   12  C           1     -22.388  -7.095  -0.695  0.00  0.00     0.089 C 
ENDBRANCH  10  11
ENDBRANCH   9  10
ENDBRANCH   5   9
ENDBRANCH   2   5
BRANCH   3  13
HETATM   13  C           1     -22.199  -3.752  -8.447  0.00  0.00     0.297 C 
BRANCH  13  14
HETATM   14  N           1     -21.569  -4.168  -9.744  0.00  0.00    -0.064 N 
HETATM   15  H           1     -20.531  -4.070  -9.673  0.00  0.00     0.275 HD
HETATM   16  H           1     -21.926  -3.560 -10.515  0.00  0.00     0.275 HD
HETATM   17  H           1     -21.813  -5.165  -9.946  0.00  0.00     0.275 HD
ENDBRANCH  13  14
BRANCH  13  18
HETATM   18  C           1     -23.639  -4.244  -8.402  0.00  0.00     0.206 C 
BRANCH  18  19
HETATM   19  O           1     -24.491  -3.243  -8.890  0.00  0.00    -0.398 OA
HETATM   20  H           1     -24.729  -2.704  -8.155  0.00  0.00     0.209 HD
ENDBRANCH  18  19
ENDBRANCH  13  18
ENDBRANCH   3  13
TORSDOF 9
ENDMDL
MODEL 9
REMARK VINA RESULT:      -4.5     16.615     17.776
REMARK  9 active torsions:
REMARK  status: ('A' for Active; 'I' for Inactive)
REMARK    1  A    between atoms: C_1  and  C_3 
REMARK    2  A    between atoms: C_3  and  C_9 
REMARK    3  A    between atoms: C_3  and  N_15 
REMARK    4  A    between atoms: S_7  and  C_8 
REMARK    5  A    between atoms: C_8  and  C_9 
REMARK    6  A    between atoms: O_11  and  C_16 
REMARK    7  A    between atoms: N_12  and  C_17 
REMARK       I    between atoms: N_15  and  C_18 
REMARK    8  A    between atoms: C_16  and  C_17 
REMARK    9  A    between atoms: C_17  and  C_18 
ROOT
HETATM    1  H           1     -12.441   6.304 -21.333  0.00  0.00     0.163 HD
HETATM    2  N           1     -11.793   5.531 -21.428  0.00  0.00    -0.345 N 
HETATM    3  C           1     -12.128   4.448 -22.195  0.00  0.00     0.251 C 
HETATM    4  O           1     -11.354   3.526 -22.309  0.00  0.00    -0.271 OA
ENDROOT
BRANCH   2   5
HETATM    5  C           1     -10.511   5.573 -20.752  0.00  0.00     0.186 C 
BRANCH   5   6
HETATM    6  C           1     -10.721   5.415 -19.266  0.00  0.00     0.196 C 
HETATM    7  O           1     -11.820   5.011 -18.829  0.00  0.00    -0.646 OA
HETATM    8  O           1      -9.796   5.690 -18.472  0.00  0.00    -0.646 OA
ENDBRANCH   5   6
BRANCH   5   9
HETATM    9  C           1      -9.834   6.909 -21.031  0.00  0.00     0.046 C 
BRANCH   9  10
HETATM   10  C           1     -10.784   7.808 -21.809  0.00  0.00     0.076 C 
BRANCH  10  11
HETATM   11  S           1     -10.711   9.492 -21.137  0.00  0.00    -0.173 SA
HETATM   12  C           1     -10.656   9.007 -19.389  0.00  0.00     0.089 C 
ENDBRANCH  10  11
ENDBRANCH   9  10
ENDBRANCH   5   9
ENDBRANCH   2   5
BRANCH   3  13
HETATM   13  C           1     -13.462   4.404 -22.899  0.00  0.00     0.297 C 
BRANCH  13  14
HETATM   14  N           1     -14.165   3.124 -22.555  0.00  0.00    -0.064 N 
HETATM   15  H           1     -13.648   2.319 -22.977  0.00  0.00     0.275 HD
HETATM   16  H           1     -15.139   3.150 -22.933  0.00  0.00     0.275 HD
HETATM   17  H           1     -14.198   3.012 -21.517  0.00  0.00     0.275 HD
ENDBRANCH  13  14
BRANCH  13  18
HETATM   18  C           1     -14.311   5.585 -22.451  0.00  0.00     0.206 C 
BRANCH  18  19
HETATM   19  O           1     -14.765   5.367 -21.143  0.00  0.00    -0.398 OA
HETATM   20  H           1     -14.545   6.136 -20.645  0.00  0.00     0.209 HD
ENDBRANCH  18  19
ENDBRANCH  13  18
ENDBRANCH   3  13
TORSDOF 9
ENDMDL
