MODEL 1
REMARK VINA RESULT:      -8.4      0.000      0.000
REMARK  8 active torsions:
REMARK  status: ('A' for Active; 'I' for Inactive)
REMARK    1  A    between atoms: N_1  and  C_2 
REMARK    2  A    between atoms: C_2  and  C_15 
REMARK    3  A    between atoms: C_2  and  C_22 
REMARK    4  A    between atoms: C_4  and  C_10 
REMARK    5  A    between atoms: C_6  and  C_22 
REMARK    6  A    between atoms: C_10  and  C_13 
REMARK    7  A    between atoms: C_10  and  N_16 
REMARK    8  A    between atoms: C_13  and  O_14 
REMARK       I    between atoms: C_15  and  N_16 
ROOT
HETATM    1  C           1     -21.139  -5.883  -6.984  0.00  0.00     0.278 C 
ENDROOT
BRANCH   1   2
HETATM    2  N           1     -19.732  -6.106  -7.455  0.00  0.00    -0.066 N 
HETATM    3  H           1     -19.747  -6.522  -8.412  0.00  0.00     0.275 HD
HETATM    4  H           1     -19.225  -5.192  -7.479  0.00  0.00     0.275 HD
HETATM    5  H           1     -19.245  -6.757  -6.799  0.00  0.00     0.275 HD
ENDBRANCH   1   2
BRANCH   1   6
HETATM    6  C           1     -21.733  -4.705  -7.716  0.00  0.00     0.249 C 
HETATM    7  O           1     -21.861  -3.644  -7.153  0.00  0.00    -0.271 OA
HETATM    8  N           1     -22.128  -4.839  -9.021  0.00  0.00    -0.343 N 
HETATM    9  H           1     -22.021  -5.727  -9.494  0.00  0.00     0.163 HD
BRANCH   8  10
HETATM   10  C           1     -22.700  -3.707  -9.725  0.00  0.00     0.214 C 
BRANCH  10  11
HETATM   11  C           1     -24.202  -3.843  -9.757  0.00  0.00     0.199 C 
HETATM   12  O           1     -24.725  -4.965  -9.928  0.00  0.00    -0.646 OA
HETATM   13  O           1     -24.924  -2.832  -9.613  0.00  0.00    -0.646 OA
ENDBRANCH  10  11
BRANCH  10  14
HETATM   14  C           1     -22.163  -3.671 -11.150  0.00  0.00     0.147 C 
HETATM   15  C           1     -20.653  -3.867 -11.129  0.00  0.00     0.042 C 
BRANCH  14  16
HETATM   16  O           1     -22.756  -4.698 -11.898  0.00  0.00    -0.393 OA
HETATM   17  H           1     -22.101  -5.365 -12.017  0.00  0.00     0.210 HD
ENDBRANCH  14  16
ENDBRANCH  10  14
ENDBRANCH   8  10
ENDBRANCH   1   6
BRANCH   1  18
HETATM   18  C           1     -21.134  -5.601  -5.487  0.00  0.00     0.083 C 
BRANCH  18  19
HETATM   19  C           1     -21.202  -6.892  -4.735  0.00  0.00    -0.028 A 
HETATM   20  C           1     -20.930  -8.142  -5.242  0.00  0.00     0.096 A 
HETATM   21  N           1     -21.108  -9.052  -4.234  0.00  0.00    -0.365 N 
HETATM   22  C           1     -21.493  -8.411  -3.077  0.00  0.00     0.042 A 
HETATM   23  H           1     -20.971 -10.089  -4.330  0.00  0.00     0.165 HD
HETATM   24  C           1     -21.784  -8.930  -1.810  0.00  0.00     0.030 A 
HETATM   25  C           1     -21.559  -7.048  -3.367  0.00  0.00    -0.002 A 
HETATM   26  C           1     -22.153  -8.024  -0.810  0.00  0.00     0.002 A 
HETATM   27  C           1     -22.228  -6.657  -1.070  0.00  0.00     0.001 A 
HETATM   28  C           1     -21.933  -6.156  -2.344  0.00  0.00     0.014 A 
ENDBRANCH  18  19
ENDBRANCH   1  18
TORSDOF 8
ENDMDL
MODEL 2
REMARK VINA RESULT:      -7.8      2.902      7.879
REMARK  8 active torsions:
REMARK  status: ('A' for Active; 'I' for Inactive)
REMARK    1  A    between atoms: N_1  and  C_2 
REMARK    2  A    between atoms: C_2  and  C_15 
REMARK    3  A    between atoms: C_2  and  C_22 
REMARK    4  A    between atoms: C_4  and  C_10 
REMARK    5  A    between atoms: C_6  and  C_22 
REMARK    6  A    between atoms: C_10  and  C_13 
REMARK    7  A    between atoms: C_10  and  N_16 
REMARK    8  A    between atoms: C_13  and  O_14 
REMARK       I    between atoms: C_15  and  N_16 
ROOT
HETATM    1  C           1     -22.251  -5.202  -6.725  0.00  0.00     0.278 C 
ENDROOT
BRANCH   1   2
HETATM    2  N           1     -23.650  -4.914  -6.267  0.00  0.00    -0.066 N 
HETATM    3  H           1     -24.166  -4.407  -7.020  0.00  0.00     0.275 HD
HETATM    4  H           1     -24.138  -5.814  -6.055  0.00  0.00     0.275 HD
HETATM    5  H           1     -23.620  -4.323  -5.406  0.00  0.00     0.275 HD
ENDBRANCH   1   2
BRANCH   1   6
HETATM    6  C           1     -21.449  -5.757  -5.573  0.00  0.00     0.249 C 
HETATM    7  O           1     -20.245  -5.660  -5.572  0.00  0.00    -0.271 OA
HETATM    8  N           1     -22.088  -6.371  -4.528  0.00  0.00    -0.343 N 
HETATM    9  H           1     -23.096  -6.452  -4.528  0.00  0.00     0.163 HD
BRANCH   8  10
HETATM   10  C           1     -21.318  -6.905  -3.422  0.00  0.00     0.214 C 
BRANCH  10  11
HETATM   11  C           1     -20.905  -8.323  -3.735  0.00  0.00     0.199 C 
HETATM   12  O           1     -21.774  -9.186  -3.984  0.00  0.00    -0.646 OA
HETATM   13  O           1     -19.694  -8.633  -3.745  0.00  0.00    -0.646 OA
ENDBRANCH  10  11
BRANCH  10  14
HETATM   14  C           1     -22.167  -6.892  -2.157  0.00  0.00     0.147 C 
HETATM   15  C           1     -21.412  -7.583  -1.031  0.00  0.00     0.042 C 
BRANCH  14  16
HETATM   16  O           1     -22.439  -5.565  -1.792  0.00  0.00    -0.393 OA
HETATM   17  H           1     -21.675  -5.242  -1.345  0.00  0.00     0.210 HD
ENDBRANCH  14  16
ENDBRANCH  10  14
ENDBRANCH   8  10
ENDBRANCH   1   6
BRANCH   1  18
HETATM   18  C           1     -21.605  -3.914  -7.219  0.00  0.00     0.083 C 
BRANCH  18  19
HETATM   19  C           1     -21.365  -4.009  -8.693  0.00  0.00    -0.028 A 
HETATM   20  C           1     -20.170  -4.318  -9.303  0.00  0.00     0.096 A 
HETATM   21  N           1     -20.374  -4.302 -10.657  0.00  0.00    -0.365 N 
HETATM   22  C           1     -21.684  -3.986 -10.937  0.00  0.00     0.042 A 
HETATM   23  H           1     -19.636  -4.501 -11.378  0.00  0.00     0.165 HD
HETATM   24  C           1     -22.340  -3.855 -12.168  0.00  0.00     0.030 A 
HETATM   25  C           1     -22.331  -3.797  -9.716  0.00  0.00    -0.002 A 
HETATM   26  C           1     -23.698  -3.522 -12.144  0.00  0.00     0.002 A 
HETATM   27  C           1     -24.370  -3.327 -10.939  0.00  0.00     0.001 A 
HETATM   28  C           1     -23.698  -3.462  -9.718  0.00  0.00     0.014 A 
ENDBRANCH  18  19
ENDBRANCH   1  18
TORSDOF 8
ENDMDL
MODEL 3
REMARK VINA RESULT:      -7.7      2.774      8.080
REMARK  8 active torsions:
REMARK  status: ('A' for Active; 'I' for Inactive)
REMARK    1  A    between atoms: N_1  and  C_2 
REMARK    2  A    between atoms: C_2  and  C_15 
REMARK    3  A    between atoms: C_2  and  C_22 
REMARK    4  A    between atoms: C_4  and  C_10 
REMARK    5  A    between atoms: C_6  and  C_22 
REMARK    6  A    between atoms: C_10  and  C_13 
REMARK    7  A    between atoms: C_10  and  N_16 
REMARK    8  A    between atoms: C_13  and  O_14 
REMARK       I    between atoms: C_15  and  N_16 
ROOT
HETATM    1  C           1     -22.026  -4.273  -7.264  0.00  0.00     0.278 C 
ENDROOT
BRANCH   1   2
HETATM    2  N           1     -21.596  -2.837  -7.202  0.00  0.00    -0.066 N 
HETATM    3  H           1     -20.658  -2.773  -6.746  0.00  0.00     0.275 HD
HETATM    4  H           1     -21.540  -2.448  -8.170  0.00  0.00     0.275 HD
HETATM    5  H           1     -22.291  -2.289  -6.646  0.00  0.00     0.275 HD
ENDBRANCH   1   2
BRANCH   1   6
HETATM    6  C           1     -21.151  -5.099  -6.354  0.00  0.00     0.249 C 
HETATM    7  O           1     -19.954  -4.934  -6.352  0.00  0.00    -0.271 OA
HETATM    8  N           1     -21.713  -6.037  -5.530  0.00  0.00    -0.343 N 
HETATM    9  H           1     -22.715  -6.176  -5.531  0.00  0.00     0.163 HD
BRANCH   8  10
HETATM   10  C           1     -20.872  -6.832  -4.656  0.00  0.00     0.214 C 
BRANCH  10  11
HETATM   11  C           1     -20.462  -8.097  -5.369  0.00  0.00     0.199 C 
HETATM   12  O           1     -19.254  -8.323  -5.595  0.00  0.00    -0.646 OA
HETATM   13  O           1     -21.331  -8.919  -5.733  0.00  0.00    -0.646 OA
ENDBRANCH  10  11
BRANCH  10  14
HETATM   14  C           1     -21.646  -7.189  -3.393  0.00  0.00     0.147 C 
HETATM   15  C           1     -20.685  -7.744  -2.350  0.00  0.00     0.042 C 
BRANCH  14  16
HETATM   16  O           1     -22.270  -6.040  -2.888  0.00  0.00    -0.393 OA
HETATM   17  H           1     -22.876  -6.326  -2.224  0.00  0.00     0.210 HD
ENDBRANCH  14  16
ENDBRANCH  10  14
ENDBRANCH   8  10
ENDBRANCH   1   6
BRANCH   1  18
HETATM   18  C           1     -21.894  -4.779  -8.694  0.00  0.00     0.083 C 
BRANCH  18  19
HETATM   19  C           1     -23.031  -4.260  -9.516  0.00  0.00    -0.028 A 
HETATM   20  C           1     -24.335  -4.115  -9.097  0.00  0.00     0.096 A 
HETATM   21  N           1     -25.057  -3.610 -10.146  0.00  0.00    -0.365 N 
HETATM   22  C           1     -24.243  -3.425 -11.240  0.00  0.00     0.042 A 
HETATM   23  H           1     -26.085  -3.396 -10.118  0.00  0.00     0.165 HD
HETATM   24  C           1     -24.542  -2.937 -12.518  0.00  0.00     0.030 A 
HETATM   25  C           1     -22.960  -3.828 -10.869  0.00  0.00    -0.002 A 
HETATM   26  C           1     -23.495  -2.858 -13.441  0.00  0.00     0.002 A 
HETATM   27  C           1     -22.203  -3.253 -13.099  0.00  0.00     0.001 A 
HETATM   28  C           1     -21.922  -3.740 -11.816  0.00  0.00     0.014 A 
ENDBRANCH  18  19
ENDBRANCH   1  18
TORSDOF 8
ENDMDL
MODEL 4
REMARK VINA RESULT:      -7.7      2.845      7.804
REMARK  8 active torsions:
REMARK  status: ('A' for Active; 'I' for Inactive)
REMARK    1  A    between atoms: N_1  and  C_2 
REMARK    2  A    between atoms: C_2  and  C_15 
REMARK    3  A    between atoms: C_2  and  C_22 
REMARK    4  A    between atoms: C_4  and  C_10 
REMARK    5  A    between atoms: C_6  and  C_22 
REMARK    6  A    between atoms: C_10  and  C_13 
REMARK    7  A    between atoms: C_10  and  N_16 
REMARK    8  A    between atoms: C_13  and  O_14 
REMARK       I    between atoms: C_15  and  N_16 
ROOT
HETATM    1  C           1     -21.175  -4.941  -6.206  0.00  0.00     0.278 C 
ENDROOT
BRANCH   1   2
HETATM    2  N           1     -19.747  -4.656  -5.845  0.00  0.00    -0.066 N 
HETATM    3  H           1     -19.624  -4.746  -4.812  0.00  0.00     0.275 HD
HETATM    4  H           1     -19.123  -5.338  -6.332  0.00  0.00     0.275 HD
HETATM    5  H           1     -19.501  -3.685  -6.142  0.00  0.00     0.275 HD
ENDBRANCH   1   2
BRANCH   1   6
HETATM    6  C           1     -21.728  -5.991  -5.275  0.00  0.00     0.249 C 
HETATM    7  O           1     -22.922  -6.161  -5.196  0.00  0.00    -0.271 OA
HETATM    8  N           1     -20.877  -6.752  -4.518  0.00  0.00    -0.343 N 
HETATM    9  H           1     -19.878  -6.611  -4.584  0.00  0.00     0.163 HD
BRANCH   8  10
HETATM   10  C           1     -21.409  -7.761  -3.623  0.00  0.00     0.214 C 
BRANCH  10  11
HETATM   11  C           1     -21.306  -7.273  -2.199  0.00  0.00     0.199 C 
HETATM   12  O           1     -20.472  -7.784  -1.421  0.00  0.00    -0.646 OA
HETATM   13  O           1     -22.055  -6.356  -1.797  0.00  0.00    -0.646 OA
ENDBRANCH  10  11
BRANCH  10  14
HETATM   14  C           1     -20.610  -9.049  -3.777  0.00  0.00     0.147 C 
HETATM   15  C           1     -21.154  -9.846  -4.955  0.00  0.00     0.042 C 
BRANCH  14  16
HETATM   16  O           1     -19.263  -8.738  -4.006  0.00  0.00    -0.393 OA
HETATM   17  H           1     -19.035  -9.105  -4.843  0.00  0.00     0.210 HD
ENDBRANCH  14  16
ENDBRANCH  10  14
ENDBRANCH   8  10
ENDBRANCH   1   6
BRANCH   1  18
HETATM   18  C           1     -21.244  -5.447  -7.641  0.00  0.00     0.083 C 
BRANCH  18  19
HETATM   19  C           1     -22.277  -4.672  -8.396  0.00  0.00    -0.028 A 
HETATM   20  C           1     -23.493  -4.250  -7.907  0.00  0.00     0.096 A 
HETATM   21  N           1     -24.137  -3.577  -8.910  0.00  0.00    -0.365 N 
HETATM   22  C           1     -23.359  -3.555 -10.046  0.00  0.00     0.042 A 
HETATM   23  H           1     -25.089  -3.140  -8.826  0.00  0.00     0.165 HD
HETATM   24  C           1     -23.606  -2.987 -11.302  0.00  0.00     0.030 A 
HETATM   25  C           1     -22.180  -4.239  -9.748  0.00  0.00    -0.002 A 
HETATM   26  C           1     -22.616  -3.124 -12.279  0.00  0.00     0.002 A 
HETATM   27  C           1     -21.428  -3.803 -12.010  0.00  0.00     0.001 A 
HETATM   28  C           1     -21.198  -4.364 -10.748  0.00  0.00     0.014 A 
ENDBRANCH  18  19
ENDBRANCH   1  18
TORSDOF 8
ENDMDL
MODEL 5
REMARK VINA RESULT:      -7.5      3.532      7.761
REMARK  8 active torsions:
REMARK  status: ('A' for Active; 'I' for Inactive)
REMARK    1  A    between atoms: N_1  and  C_2 
REMARK    2  A    between atoms: C_2  and  C_15 
REMARK    3  A    between atoms: C_2  and  C_22 
REMARK    4  A    between atoms: C_4  and  C_10 
REMARK    5  A    between atoms: C_6  and  C_22 
REMARK    6  A    between atoms: C_10  and  C_13 
REMARK    7  A    between atoms: C_10  and  N_16 
REMARK    8  A    between atoms: C_13  and  O_14 
REMARK       I    between atoms: C_15  and  N_16 
ROOT
HETATM    1  C           1     -21.268  -6.120  -5.485  0.00  0.00     0.278 C 
ENDROOT
BRANCH   1   2
HETATM    2  N           1     -21.415  -5.842  -4.018  0.00  0.00    -0.066 N 
HETATM    3  H           1     -22.407  -5.999  -3.732  0.00  0.00     0.275 HD
HETATM    4  H           1     -20.790  -6.484  -3.479  0.00  0.00     0.275 HD
HETATM    5  H           1     -21.149  -4.851  -3.824  0.00  0.00     0.275 HD
ENDBRANCH   1   2
BRANCH   1   6
HETATM    6  C           1     -20.222  -7.187  -5.692  0.00  0.00     0.249 C 
HETATM    7  O           1     -19.508  -7.153  -6.666  0.00  0.00    -0.271 OA
HETATM    8  N           1     -20.081  -8.195  -4.776  0.00  0.00    -0.343 N 
HETATM    9  H           1     -20.679  -8.224  -3.960  0.00  0.00     0.163 HD
BRANCH   8  10
HETATM   10  C           1     -19.076  -9.221  -4.975  0.00  0.00     0.214 C 
BRANCH  10  11
HETATM   11  C           1     -19.732 -10.470  -5.508  0.00  0.00     0.199 C 
HETATM   12  O           1     -19.221 -11.084  -6.469  0.00  0.00    -0.646 OA
HETATM   13  O           1     -20.789 -10.891  -4.989  0.00  0.00    -0.646 OA
ENDBRANCH  10  11
BRANCH  10  14
HETATM   14  C           1     -18.397  -9.532  -3.647  0.00  0.00     0.147 C 
HETATM   15  C           1     -19.247  -8.994  -2.504  0.00  0.00     0.042 C 
BRANCH  14  16
HETATM   16  O           1     -18.255 -10.920  -3.510  0.00  0.00    -0.393 OA
HETATM   17  H           1     -17.330 -11.101  -3.493  0.00  0.00     0.210 HD
ENDBRANCH  14  16
ENDBRANCH  10  14
ENDBRANCH   8  10
ENDBRANCH   1   6
BRANCH   1  18
HETATM   18  C           1     -20.843  -4.845  -6.203  0.00  0.00     0.083 C 
BRANCH  18  19
HETATM   19  C           1     -21.821  -4.535  -7.292  0.00  0.00    -0.028 A 
HETATM   20  C           1     -23.181  -4.379  -7.142  0.00  0.00     0.096 A 
HETATM   21  N           1     -23.709  -4.103  -8.375  0.00  0.00    -0.365 N 
HETATM   22  C           1     -22.713  -4.078  -9.325  0.00  0.00     0.042 A 
HETATM   23  H           1     -24.728  -3.936  -8.567  0.00  0.00     0.165 HD
HETATM   24  C           1     -22.783  -3.840 -10.703  0.00  0.00     0.030 A 
HETATM   25  C           1     -21.513  -4.347  -8.668  0.00  0.00    -0.002 A 
HETATM   26  C           1     -21.588  -3.878 -11.427  0.00  0.00     0.002 A 
HETATM   27  C           1     -20.373  -4.145 -10.797  0.00  0.00     0.001 A 
HETATM   28  C           1     -20.322  -4.381  -9.418  0.00  0.00     0.014 A 
ENDBRANCH  18  19
ENDBRANCH   1  18
TORSDOF 8
ENDMDL
MODEL 6
REMARK VINA RESULT:      -7.4     12.898     14.688
REMARK  8 active torsions:
REMARK  status: ('A' for Active; 'I' for Inactive)
REMARK    1  A    between atoms: N_1  and  C_2 
REMARK    2  A    between atoms: C_2  and  C_15 
REMARK    3  A    between atoms: C_2  and  C_22 
REMARK    4  A    between atoms: C_4  and  C_10 
REMARK    5  A    between atoms: C_6  and  C_22 
REMARK    6  A    between atoms: C_10  and  C_13 
REMARK    7  A    between atoms: C_10  and  N_16 
REMARK    8  A    between atoms: C_13  and  O_14 
REMARK       I    between atoms: C_15  and  N_16 
ROOT
HETATM    1  C           1     -34.426  -2.221 -11.902  0.00  0.00     0.278 C 
ENDROOT
BRANCH   1   2
HETATM    2  N           1     -33.920  -1.253 -10.873  0.00  0.00    -0.066 N 
HETATM    3  H           1     -33.068  -1.646 -10.415  0.00  0.00     0.275 HD
HETATM    4  H           1     -33.680  -0.347 -11.337  0.00  0.00     0.275 HD
HETATM    5  H           1     -34.660  -1.092 -10.153  0.00  0.00     0.275 HD
ENDBRANCH   1   2
BRANCH   1   6
HETATM    6  C           1     -35.473  -1.546 -12.754  0.00  0.00     0.249 C 
HETATM    7  O           1     -36.604  -1.431 -12.346  0.00  0.00    -0.271 OA
HETATM    8  N           1     -35.140  -1.063 -13.992  0.00  0.00    -0.343 N 
HETATM    9  H           1     -34.193  -1.159 -14.335  0.00  0.00     0.163 HD
BRANCH   8  10
HETATM   10  C           1     -36.146  -0.415 -14.811  0.00  0.00     0.214 C 
BRANCH  10  11
HETATM   11  C           1     -35.988  -0.859 -16.245  0.00  0.00     0.199 C 
HETATM   12  O           1     -36.946  -0.756 -17.040  0.00  0.00    -0.646 OA
HETATM   13  O           1     -34.898  -1.331 -16.636  0.00  0.00    -0.646 OA
ENDBRANCH  10  11
BRANCH  10  14
HETATM   14  C           1     -35.974   1.096 -14.726  0.00  0.00     0.147 C 
HETATM   15  C           1     -34.619   1.419 -14.111  0.00  0.00     0.042 C 
BRANCH  14  16
HETATM   16  O           1     -36.045   1.647 -16.014  0.00  0.00    -0.393 OA
HETATM   17  H           1     -36.551   2.439 -15.946  0.00  0.00     0.210 HD
ENDBRANCH  14  16
ENDBRANCH  10  14
ENDBRANCH   8  10
ENDBRANCH   1   6
BRANCH   1  18
HETATM   18  C           1     -35.040  -3.427 -11.204  0.00  0.00     0.083 C 
BRANCH  18  19
HETATM   19  C           1     -34.079  -4.573 -11.249  0.00  0.00    -0.028 A 
HETATM   20  C           1     -32.857  -4.584 -11.883  0.00  0.00     0.096 A 
HETATM   21  N           1     -32.293  -5.816 -11.686  0.00  0.00    -0.365 N 
HETATM   22  C           1     -33.131  -6.608 -10.933  0.00  0.00     0.042 A 
HETATM   23  H           1     -31.357  -6.114 -12.057  0.00  0.00     0.165 HD
HETATM   24  C           1     -32.972  -7.927 -10.490  0.00  0.00     0.030 A 
HETATM   25  C           1     -34.264  -5.848 -10.644  0.00  0.00    -0.002 A 
HETATM   26  C           1     -34.005  -8.481  -9.728  0.00  0.00     0.002 A 
HETATM   27  C           1     -35.149  -7.745  -9.424  0.00  0.00     0.001 A 
HETATM   28  C           1     -35.291  -6.427  -9.876  0.00  0.00     0.014 A 
ENDBRANCH  18  19
ENDBRANCH   1  18
TORSDOF 8
ENDMDL
MODEL 7
REMARK VINA RESULT:      -7.3      2.804      7.864
REMARK  8 active torsions:
REMARK  status: ('A' for Active; 'I' for Inactive)
REMARK    1  A    between atoms: N_1  and  C_2 
REMARK    2  A    between atoms: C_2  and  C_15 
REMARK    3  A    between atoms: C_2  and  C_22 
REMARK    4  A    between atoms: C_4  and  C_10 
REMARK    5  A    between atoms: C_6  and  C_22 
REMARK    6  A    between atoms: C_10  and  C_13 
REMARK    7  A    between atoms: C_10  and  N_16 
REMARK    8  A    between atoms: C_13  and  O_14 
REMARK       I    between atoms: C_15  and  N_16 
ROOT
HETATM    1  C           1     -21.192  -5.447  -6.326  0.00  0.00     0.278 C 
ENDROOT
BRANCH   1   2
HETATM    2  N           1     -20.648  -6.460  -7.290  0.00  0.00    -0.066 N 
HETATM    3  H           1     -19.841  -6.958  -6.854  0.00  0.00     0.275 HD
HETATM    4  H           1     -21.397  -7.150  -7.527  0.00  0.00     0.275 HD
HETATM    5  H           1     -20.331  -5.977  -8.160  0.00  0.00     0.275 HD
ENDBRANCH   1   2
BRANCH   1   6
HETATM    6  C           1     -21.863  -6.157  -5.176  0.00  0.00     0.249 C 
HETATM    7  O           1     -23.068  -6.232  -5.132  0.00  0.00    -0.271 OA
HETATM    8  N           1     -21.106  -6.716  -4.182  0.00  0.00    -0.343 N 
HETATM    9  H           1     -20.097  -6.654  -4.218  0.00  0.00     0.163 HD
BRANCH   8  10
HETATM   10  C           1     -21.751  -7.398  -3.076  0.00  0.00     0.214 C 
BRANCH  10  11
HETATM   11  C           1     -22.068  -6.401  -1.989  0.00  0.00     0.199 C 
HETATM   12  O           1     -22.753  -6.749  -1.003  0.00  0.00    -0.646 OA
HETATM   13  O           1     -21.646  -5.227  -2.074  0.00  0.00    -0.646 OA
ENDBRANCH  10  11
BRANCH  10  14
HETATM   14  C           1     -20.818  -8.469  -2.526  0.00  0.00     0.147 C 
HETATM   15  C           1     -19.766  -8.813  -3.572  0.00  0.00     0.042 C 
BRANCH  14  16
HETATM   16  O           1     -20.187  -7.989  -1.370  0.00  0.00    -0.393 OA
HETATM   17  H           1     -19.754  -8.724  -0.968  0.00  0.00     0.210 HD
ENDBRANCH  14  16
ENDBRANCH  10  14
ENDBRANCH   8  10
ENDBRANCH   1   6
BRANCH   1  18
HETATM   18  C           1     -22.206  -4.562  -7.039  0.00  0.00     0.083 C 
BRANCH  18  19
HETATM   19  C           1     -21.693  -4.209  -8.400  0.00  0.00    -0.028 A 
HETATM   20  C           1     -20.372  -4.175  -8.785  0.00  0.00     0.096 A 
HETATM   21  N           1     -20.330  -3.808 -10.104  0.00  0.00    -0.365 N 
HETATM   22  C           1     -21.604  -3.602 -10.582  0.00  0.00     0.042 A 
HETATM   23  H           1     -19.451  -3.698 -10.668  0.00  0.00     0.165 HD
HETATM   24  C           1     -22.042  -3.219 -11.856  0.00  0.00     0.030 A 
HETATM   25  C           1     -22.482  -3.848  -9.526  0.00  0.00    -0.002 A 
HETATM   26  C           1     -23.420  -3.088 -12.053  0.00  0.00     0.002 A 
HETATM   27  C           1     -24.321  -3.328 -11.017  0.00  0.00     0.001 A 
HETATM   28  C           1     -23.865  -3.709  -9.749  0.00  0.00     0.014 A 
ENDBRANCH  18  19
ENDBRANCH   1  18
TORSDOF 8
ENDMDL
MODEL 8
REMARK VINA RESULT:      -7.2      1.692      2.613
REMARK  8 active torsions:
REMARK  status: ('A' for Active; 'I' for Inactive)
REMARK    1  A    between atoms: N_1  and  C_2 
REMARK    2  A    between atoms: C_2  and  C_15 
REMARK    3  A    between atoms: C_2  and  C_22 
REMARK    4  A    between atoms: C_4  and  C_10 
REMARK    5  A    between atoms: C_6  and  C_22 
REMARK    6  A    between atoms: C_10  and  C_13 
REMARK    7  A    between atoms: C_10  and  N_16 
REMARK    8  A    between atoms: C_13  and  O_14 
REMARK       I    between atoms: C_15  and  N_16 
ROOT
HETATM    1  C           1     -20.491  -5.808  -5.236  0.00  0.00     0.278 C 
ENDROOT
BRANCH   1   2
HETATM    2  N           1     -20.014  -4.407  -4.987  0.00  0.00    -0.066 N 
HETATM    3  H           1     -19.745  -3.965  -5.894  0.00  0.00     0.275 HD
HETATM    4  H           1     -20.781  -3.853  -4.542  0.00  0.00     0.275 HD
HETATM    5  H           1     -19.185  -4.430  -4.351  0.00  0.00     0.275 HD
ENDBRANCH   1   2
BRANCH   1   6
HETATM    6  C           1     -21.039  -5.910  -6.638  0.00  0.00     0.249 C 
HETATM    7  O           1     -21.205  -6.994  -7.144  0.00  0.00    -0.271 OA
HETATM    8  N           1     -21.348  -4.774  -7.337  0.00  0.00    -0.343 N 
HETATM    9  H           1     -21.210  -3.866  -6.913  0.00  0.00     0.163 HD
BRANCH   8  10
HETATM   10  C           1     -21.875  -4.873  -8.684  0.00  0.00     0.214 C 
BRANCH  10  11
HETATM   11  C           1     -20.854  -4.345  -9.662  0.00  0.00     0.199 C 
HETATM   12  O           1     -20.833  -4.773 -10.836  0.00  0.00    -0.646 OA
HETATM   13  O           1     -20.029  -3.479  -9.297  0.00  0.00    -0.646 OA
ENDBRANCH  10  11
BRANCH  10  14
HETATM   14  C           1     -23.153  -4.051  -8.792  0.00  0.00     0.147 C 
HETATM   15  C           1     -24.026  -4.613  -9.906  0.00  0.00     0.042 C 
BRANCH  14  16
HETATM   16  O           1     -23.851  -4.111  -7.577  0.00  0.00    -0.393 OA
HETATM   17  H           1     -24.384  -4.888  -7.605  0.00  0.00     0.210 HD
ENDBRANCH  14  16
ENDBRANCH  10  14
ENDBRANCH   8  10
ENDBRANCH   1   6
BRANCH   1  18
HETATM   18  C           1     -21.585  -6.156  -4.235  0.00  0.00     0.083 C 
BRANCH  18  19
HETATM   19  C           1     -21.138  -7.303  -3.384  0.00  0.00    -0.028 A 
HETATM   20  C           1     -20.288  -8.315  -3.768  0.00  0.00     0.096 A 
HETATM   21  N           1     -20.135  -9.160  -2.701  0.00  0.00    -0.365 N 
HETATM   22  C           1     -20.874  -8.713  -1.629  0.00  0.00     0.042 A 
HETATM   23  H           1     -19.539 -10.025  -2.702  0.00  0.00     0.165 HD
HETATM   24  C           1     -21.021  -9.250  -0.344  0.00  0.00     0.030 A 
HETATM   25  C           1     -21.516  -7.542  -2.034  0.00  0.00    -0.002 A 
HETATM   26  C           1     -21.849  -8.566   0.551  0.00  0.00     0.002 A 
HETATM   27  C           1     -22.504  -7.395   0.174  0.00  0.00     0.001 A 
HETATM   28  C           1     -22.346  -6.872  -1.115  0.00  0.00     0.014 A 
ENDBRANCH  18  19
ENDBRANCH   1  18
TORSDOF 8
ENDMDL
MODEL 9
REMARK VINA RESULT:      -7.2      3.952      7.517
REMARK  8 active torsions:
REMARK  status: ('A' for Active; 'I' for Inactive)
REMARK    1  A    between atoms: N_1  and  C_2 
REMARK    2  A    between atoms: C_2  and  C_15 
REMARK    3  A    between atoms: C_2  and  C_22 
REMARK    4  A    between atoms: C_4  and  C_10 
REMARK    5  A    between atoms: C_6  and  C_22 
REMARK    6  A    between atoms: C_10  and  C_13 
REMARK    7  A    between atoms: C_10  and  N_16 
REMARK    8  A    between atoms: C_13  and  O_14 
REMARK       I    between atoms: C_15  and  N_16 
ROOT
HETATM    1  C           1     -21.606  -6.849  -5.185  0.00  0.00     0.278 C 
ENDROOT
BRANCH   1   2
HETATM    2  N           1     -22.120  -6.142  -3.966  0.00  0.00    -0.066 N 
HETATM    3  H           1     -23.047  -5.710  -4.179  0.00  0.00     0.275 HD
HETATM    4  H           1     -22.227  -6.829  -3.185  0.00  0.00     0.275 HD
HETATM    5  H           1     -21.444  -5.397  -3.685  0.00  0.00     0.275 HD
ENDBRANCH   1   2
BRANCH   1   6
HETATM    6  C           1     -20.721  -7.997  -4.764  0.00  0.00     0.249 C 
HETATM    7  O           1     -20.318  -8.064  -3.627  0.00  0.00    -0.271 OA
HETATM    8  N           1     -20.375  -8.963  -5.671  0.00  0.00    -0.343 N 
HETATM    9  H           1     -20.712  -8.907  -6.623  0.00  0.00     0.163 HD
BRANCH   8  10
HETATM   10  C           1     -19.525 -10.066  -5.267  0.00  0.00     0.214 C 
BRANCH  10  11
HETATM   11  C           1     -18.107  -9.792  -5.704  0.00  0.00     0.199 C 
HETATM   12  O           1     -17.159 -10.414  -5.177  0.00  0.00    -0.646 OA
HETATM   13  O           1     -17.880  -8.944  -6.594  0.00  0.00    -0.646 OA
ENDBRANCH  10  11
BRANCH  10  14
HETATM   14  C           1     -20.017 -11.352  -5.917  0.00  0.00     0.147 C 
HETATM   15  C           1     -21.512 -11.245  -6.187  0.00  0.00     0.042 C 
BRANCH  14  16
HETATM   16  O           1     -19.338 -11.554  -7.126  0.00  0.00    -0.393 OA
HETATM   17  H           1     -18.423 -11.404  -6.955  0.00  0.00     0.210 HD
ENDBRANCH  14  16
ENDBRANCH  10  14
ENDBRANCH   8  10
ENDBRANCH   1   6
BRANCH   1  18
HETATM   18  C           1     -20.803  -5.874  -6.036  0.00  0.00     0.083 C 
BRANCH  18  19
HETATM   19  C           1     -21.716  -5.174  -6.992  0.00  0.00    -0.028 A 
HETATM   20  C           1     -23.020  -4.806  -6.746  0.00  0.00     0.096 A 
HETATM   21  N           1     -23.501  -4.193  -7.873  0.00  0.00    -0.365 N 
HETATM   22  C           1     -22.530  -4.157  -8.847  0.00  0.00     0.042 A 
HETATM   23  H           1     -24.472  -3.806  -7.977  0.00  0.00     0.165 HD
HETATM   24  C           1     -22.569  -3.635 -10.146  0.00  0.00     0.030 A 
HETATM   25  C           1     -21.394  -4.770  -8.317  0.00  0.00    -0.002 A 
HETATM   26  C           1     -21.411  -3.742 -10.922  0.00  0.00     0.002 A 
HETATM   27  C           1     -20.262  -4.349 -10.418  0.00  0.00     0.001 A 
HETATM   28  C           1     -20.240  -4.867  -9.117  0.00  0.00     0.014 A 
ENDBRANCH  18  19
ENDBRANCH   1  18
TORSDOF 8
ENDMDL
