MODEL 1
REMARK VINA RESULT:      -5.9      0.000      0.000
REMARK  10 active torsions:
REMARK  status: ('A' for Active; 'I' for Inactive)
REMARK    1  A    between atoms: C_6  and  C_21 
REMARK    2  A    between atoms: N_9  and  C_21 
REMARK       I    between atoms: N_9  and  C_10 
REMARK    3  A    between atoms: C_10  and  C_11 
REMARK    4  A    between atoms: C_11  and  C_12 
REMARK    5  A    between atoms: C_11  and  N_20 
REMARK    6  A    between atoms: C_12  and  C_13 
REMARK    7  A    between atoms: C_13  and  C_19 
REMARK    8  A    between atoms: Se_14  and  C_16 
REMARK    9  A    between atoms: C_16  and  C_22 
REMARK   10  A    between atoms: C_21  and  C_22 
ROOT
HETATM    1  H           1     -35.092  -0.441 -11.349  0.00  0.00     0.163 HD
HETATM    2  N           1     -35.262  -1.005 -12.173  0.00  0.00    -0.345 N 
HETATM    3  C           1     -34.487  -2.107 -12.418  0.00  0.00     0.249 C 
HETATM    4  O           1     -34.690  -2.781 -13.400  0.00  0.00    -0.271 OA
ENDROOT
BRANCH   3   5
HETATM    5  C           1     -33.381  -2.480 -11.462  0.00  0.00     0.275 C 
BRANCH   5   6
HETATM    6  C           1     -33.121  -3.979 -11.546  0.00  0.00     0.053 C 
BRANCH   6   7
HETATM    7  C           1     -34.031  -4.708 -10.566  0.00  0.00     0.115 C 
BRANCH   7   8
HETATM    8  C           1     -34.616  -5.928 -11.233  0.00  0.00     0.172 C 
HETATM    9  O           1     -35.113  -5.838 -12.375  0.00  0.00    -0.648 OA
HETATM   10  O           1     -34.603  -7.029 -10.642  0.00  0.00    -0.648 OA
ENDBRANCH   7   8
ENDBRANCH   6   7
ENDBRANCH   5   6
BRANCH   5  11
HETATM   11  N           1     -33.787  -2.121 -10.064  0.00  0.00    -0.066 N 
HETATM   12  H           1     -33.293  -2.744  -9.386  0.00  0.00     0.275 HD
HETATM   13  H           1     -33.531  -1.126  -9.871  0.00  0.00     0.275 HD
HETATM   14  H           1     -34.820  -2.243  -9.959  0.00  0.00     0.275 HD
ENDBRANCH   5  11
ENDBRANCH   3   5
BRANCH   2  15
HETATM   15  C           1     -36.325  -0.647 -13.091  0.00  0.00     0.185 C 
BRANCH  15  16
HETATM   16  C           1     -35.839   0.436 -14.023  0.00  0.00     0.196 C 
HETATM   17  O           1     -36.423   0.633 -15.110  0.00  0.00    -0.646 OA
HETATM   18  O           1     -34.854   1.138 -13.706  0.00  0.00    -0.646 OA
ENDBRANCH  15  16
BRANCH  15  19
HETATM   19  C           1     -37.525  -0.138 -12.303  0.00  0.00     0.036 C 
BRANCH  19  20
HETATM   20  C           1     -37.406  -0.584 -10.851  0.00  0.00     0.003 C 
BRANCH  20  21
HETATM   21 Se           1     -37.975   0.864  -9.677  0.00  0.00     0.000 Se
HETATM   22  C           1     -36.760   0.387  -8.230  0.00  0.00     0.000 C 
ENDBRANCH  20  21
ENDBRANCH  19  20
ENDBRANCH  15  19
ENDBRANCH   2  15
TORSDOF 10
ENDMDL
MODEL 2
REMARK VINA RESULT:      -5.7     13.380     15.720
REMARK  10 active torsions:
REMARK  status: ('A' for Active; 'I' for Inactive)
REMARK    1  A    between atoms: C_6  and  C_21 
REMARK    2  A    between atoms: N_9  and  C_21 
REMARK       I    between atoms: N_9  and  C_10 
REMARK    3  A    between atoms: C_10  and  C_11 
REMARK    4  A    between atoms: C_11  and  C_12 
REMARK    5  A    between atoms: C_11  and  N_20 
REMARK    6  A    between atoms: C_12  and  C_13 
REMARK    7  A    between atoms: C_13  and  C_19 
REMARK    8  A    between atoms: Se_14  and  C_16 
REMARK    9  A    between atoms: C_16  and  C_22 
REMARK   10  A    between atoms: C_21  and  C_22 
ROOT
HETATM    1  H           1     -22.644  -6.590  -6.868  0.00  0.00     0.163 HD
HETATM    2  N           1     -22.014  -5.838  -6.615  0.00  0.00    -0.345 N 
HETATM    3  C           1     -21.983  -4.693  -7.365  0.00  0.00     0.249 C 
HETATM    4  O           1     -21.233  -3.794  -7.063  0.00  0.00    -0.271 OA
ENDROOT
BRANCH   3   5
HETATM    5  C           1     -22.884  -4.552  -8.566  0.00  0.00     0.275 C 
BRANCH   5   6
HETATM    6  C           1     -22.197  -3.690  -9.618  0.00  0.00     0.053 C 
BRANCH   6   7
HETATM    7  C           1     -22.629  -4.141 -11.006  0.00  0.00     0.115 C 
BRANCH   7   8
HETATM    8  C           1     -23.640  -3.168 -11.561  0.00  0.00     0.172 C 
HETATM    9  O           1     -24.815  -3.178 -11.137  0.00  0.00    -0.648 OA
HETATM   10  O           1     -23.301  -2.352 -12.446  0.00  0.00    -0.648 OA
ENDBRANCH   7   8
ENDBRANCH   6   7
ENDBRANCH   5   6
BRANCH   5  11
HETATM   11  N           1     -24.171  -3.903  -8.152  0.00  0.00    -0.066 N 
HETATM   12  H           1     -24.933  -4.190  -8.808  0.00  0.00     0.275 HD
HETATM   13  H           1     -24.416  -4.205  -7.182  0.00  0.00     0.275 HD
HETATM   14  H           1     -24.062  -2.864  -8.179  0.00  0.00     0.275 HD
ENDBRANCH   5  11
ENDBRANCH   3   5
BRANCH   2  15
HETATM   15  C           1     -21.150  -5.973  -5.460  0.00  0.00     0.185 C 
BRANCH  15  16
HETATM   16  C           1     -20.054  -6.964  -5.767  0.00  0.00     0.196 C 
HETATM   17  O           1     -19.809  -7.892  -4.967  0.00  0.00    -0.646 OA
HETATM   18  O           1     -19.393  -6.858  -6.822  0.00  0.00    -0.646 OA
ENDBRANCH  15  16
BRANCH  15  19
HETATM   19  C           1     -21.964  -6.468  -4.272  0.00  0.00     0.036 C 
BRANCH  19  20
HETATM   20  C           1     -21.388  -5.892  -2.985  0.00  0.00     0.003 C 
BRANCH  20  21
HETATM   21 Se           1     -22.190  -6.792  -1.453  0.00  0.00     0.000 Se
HETATM   22  C           1     -20.761  -8.104  -1.268  0.00  0.00     0.000 C 
ENDBRANCH  20  21
ENDBRANCH  19  20
ENDBRANCH  15  19
ENDBRANCH   2  15
TORSDOF 10
ENDMDL
MODEL 3
REMARK VINA RESULT:      -5.5     12.810     14.895
REMARK  10 active torsions:
REMARK  status: ('A' for Active; 'I' for Inactive)
REMARK    1  A    between atoms: C_6  and  C_21 
REMARK    2  A    between atoms: N_9  and  C_21 
REMARK       I    between atoms: N_9  and  C_10 
REMARK    3  A    between atoms: C_10  and  C_11 
REMARK    4  A    between atoms: C_11  and  C_12 
REMARK    5  A    between atoms: C_11  and  N_20 
REMARK    6  A    between atoms: C_12  and  C_13 
REMARK    7  A    between atoms: C_13  and  C_19 
REMARK    8  A    between atoms: Se_14  and  C_16 
REMARK    9  A    between atoms: C_16  and  C_22 
REMARK   10  A    between atoms: C_21  and  C_22 
ROOT
HETATM    1  H           1     -21.352  -5.795  -9.172  0.00  0.00     0.163 HD
HETATM    2  N           1     -21.749  -5.091  -8.562  0.00  0.00    -0.345 N 
HETATM    3  C           1     -22.713  -4.242  -9.035  0.00  0.00     0.249 C 
HETATM    4  O           1     -23.189  -3.403  -8.307  0.00  0.00    -0.271 OA
ENDROOT
BRANCH   3   5
HETATM    5  C           1     -23.182  -4.355 -10.464  0.00  0.00     0.275 C 
BRANCH   5   6
HETATM    6  C           1     -22.717  -3.134 -11.249  0.00  0.00     0.053 C 
BRANCH   6   7
HETATM    7  C           1     -22.461  -3.529 -12.697  0.00  0.00     0.115 C 
BRANCH   7   8
HETATM    8  C           1     -23.591  -3.029 -13.563  0.00  0.00     0.172 C 
HETATM    9  O           1     -24.699  -2.761 -13.052  0.00  0.00    -0.648 OA
HETATM   10  O           1     -23.418  -2.884 -14.793  0.00  0.00    -0.648 OA
ENDBRANCH   7   8
ENDBRANCH   6   7
ENDBRANCH   5   6
BRANCH   5  11
HETATM   11  N           1     -24.680  -4.426 -10.494  0.00  0.00    -0.066 N 
HETATM   12  H           1     -24.982  -5.426 -10.450  0.00  0.00     0.275 HD
HETATM   13  H           1     -25.069  -3.909  -9.674  0.00  0.00     0.275 HD
HETATM   14  H           1     -25.032  -3.996 -11.379  0.00  0.00     0.275 HD
ENDBRANCH   5  11
ENDBRANCH   3   5
BRANCH   2  15
HETATM   15  C           1     -21.299  -4.984  -7.188  0.00  0.00     0.185 C 
BRANCH  15  16
HETATM   16  C           1     -19.892  -4.441  -7.162  0.00  0.00     0.196 C 
HETATM   17  O           1     -19.451  -3.801  -8.140  0.00  0.00    -0.646 OA
HETATM   18  O           1     -19.167  -4.631  -6.162  0.00  0.00    -0.646 OA
ENDBRANCH  15  16
BRANCH  15  19
HETATM   19  C           1     -21.324  -6.362  -6.537  0.00  0.00     0.036 C 
BRANCH  19  20
HETATM   20  C           1     -22.125  -6.299  -5.244  0.00  0.00     0.003 C 
BRANCH  20  21
HETATM   21 Se           1     -21.189  -7.287  -3.849  0.00  0.00     0.000 Se
HETATM   22  C           1     -21.958  -6.263  -2.380  0.00  0.00     0.000 C 
ENDBRANCH  20  21
ENDBRANCH  19  20
ENDBRANCH  15  19
ENDBRANCH   2  15
TORSDOF 10
ENDMDL
MODEL 4
REMARK VINA RESULT:      -5.4     13.885     16.207
REMARK  10 active torsions:
REMARK  status: ('A' for Active; 'I' for Inactive)
REMARK    1  A    between atoms: C_6  and  C_21 
REMARK    2  A    between atoms: N_9  and  C_21 
REMARK       I    between atoms: N_9  and  C_10 
REMARK    3  A    between atoms: C_10  and  C_11 
REMARK    4  A    between atoms: C_11  and  C_12 
REMARK    5  A    between atoms: C_11  and  N_20 
REMARK    6  A    between atoms: C_12  and  C_13 
REMARK    7  A    between atoms: C_13  and  C_19 
REMARK    8  A    between atoms: Se_14  and  C_16 
REMARK    9  A    between atoms: C_16  and  C_22 
REMARK   10  A    between atoms: C_21  and  C_22 
ROOT
HETATM    1  H           1     -22.036  -6.219  -6.716  0.00  0.00     0.163 HD
HETATM    2  N           1     -21.255  -5.919  -6.144  0.00  0.00    -0.345 N 
HETATM    3  C           1     -20.528  -4.817  -6.504  0.00  0.00     0.249 C 
HETATM    4  O           1     -19.597  -4.458  -5.821  0.00  0.00    -0.271 OA
ENDROOT
BRANCH   3   5
HETATM    5  C           1     -20.887  -4.050  -7.752  0.00  0.00     0.275 C 
BRANCH   5   6
HETATM    6  C           1     -22.395  -4.103  -7.965  0.00  0.00     0.053 C 
BRANCH   6   7
HETATM    7  C           1     -22.721  -3.707  -9.398  0.00  0.00     0.115 C 
BRANCH   7   8
HETATM    8  C           1     -24.207  -3.825  -9.629  0.00  0.00     0.172 C 
HETATM    9  O           1     -24.942  -2.824  -9.496  0.00  0.00    -0.648 OA
HETATM   10  O           1     -24.703  -4.926  -9.953  0.00  0.00    -0.648 OA
ENDBRANCH   7   8
ENDBRANCH   6   7
ENDBRANCH   5   6
BRANCH   5  11
HETATM   11  N           1     -20.195  -4.663  -8.932  0.00  0.00    -0.066 N 
HETATM   12  H           1     -20.851  -4.693  -9.745  0.00  0.00     0.275 HD
HETATM   13  H           1     -19.359  -4.089  -9.182  0.00  0.00     0.275 HD
HETATM   14  H           1     -19.894  -5.635  -8.693  0.00  0.00     0.275 HD
ENDBRANCH   5  11
ENDBRANCH   3   5
BRANCH   2  15
HETATM   15  C           1     -20.911  -6.656  -4.944  0.00  0.00     0.185 C 
BRANCH  15  16
HETATM   16  C           1     -20.539  -8.071  -5.314  0.00  0.00     0.196 C 
HETATM   17  O           1     -19.444  -8.305  -5.868  0.00  0.00    -0.646 OA
HETATM   18  O           1     -21.326  -9.009  -5.064  0.00  0.00    -0.646 OA
ENDBRANCH  15  16
BRANCH  15  19
HETATM   19  C           1     -22.107  -6.675  -4.000  0.00  0.00     0.036 C 
BRANCH  19  20
HETATM   20  C           1     -21.662  -6.243  -2.609  0.00  0.00     0.003 C 
BRANCH  20  21
HETATM   21 Se           1     -21.210  -7.817  -1.552  0.00  0.00     0.000 Se
HETATM   22  C           1     -22.579  -7.505  -0.201  0.00  0.00     0.000 C 
ENDBRANCH  20  21
ENDBRANCH  19  20
ENDBRANCH  15  19
ENDBRANCH   2  15
TORSDOF 10
ENDMDL
MODEL 5
REMARK VINA RESULT:      -5.3      3.239      5.525
REMARK  10 active torsions:
REMARK  status: ('A' for Active; 'I' for Inactive)
REMARK    1  A    between atoms: C_6  and  C_21 
REMARK    2  A    between atoms: N_9  and  C_21 
REMARK       I    between atoms: N_9  and  C_10 
REMARK    3  A    between atoms: C_10  and  C_11 
REMARK    4  A    between atoms: C_11  and  C_12 
REMARK    5  A    between atoms: C_11  and  N_20 
REMARK    6  A    between atoms: C_12  and  C_13 
REMARK    7  A    between atoms: C_13  and  C_19 
REMARK    8  A    between atoms: Se_14  and  C_16 
REMARK    9  A    between atoms: C_16  and  C_22 
REMARK   10  A    between atoms: C_21  and  C_22 
ROOT
HETATM    1  H           1     -34.629   0.093 -11.711  0.00  0.00     0.163 HD
HETATM    2  N           1     -35.501  -0.377 -11.925  0.00  0.00    -0.345 N 
HETATM    3  C           1     -36.174  -0.075 -13.078  0.00  0.00     0.249 C 
HETATM    4  O           1     -37.214  -0.636 -13.335  0.00  0.00    -0.271 OA
ENDROOT
BRANCH   3   5
HETATM    5  C           1     -35.620   0.957 -14.029  0.00  0.00     0.275 C 
BRANCH   5   6
HETATM    6  C           1     -36.274   0.794 -15.394  0.00  0.00     0.053 C 
BRANCH   6   7
HETATM    7  C           1     -35.333   0.038 -16.322  0.00  0.00     0.115 C 
BRANCH   7   8
HETATM    8  C           1     -35.851  -1.363 -16.536  0.00  0.00     0.172 C 
HETATM    9  O           1     -35.078  -2.338 -16.432  0.00  0.00    -0.648 OA
HETATM   10  O           1     -37.056  -1.546 -16.816  0.00  0.00    -0.648 OA
ENDBRANCH   7   8
ENDBRANCH   6   7
ENDBRANCH   5   6
BRANCH   5  11
HETATM   11  N           1     -34.138   0.770 -14.159  0.00  0.00    -0.066 N 
HETATM   12  H           1     -33.673   1.027 -13.259  0.00  0.00     0.275 HD
HETATM   13  H           1     -33.931  -0.230 -14.383  0.00  0.00     0.275 HD
HETATM   14  H           1     -33.775   1.382 -14.925  0.00  0.00     0.275 HD
ENDBRANCH   5  11
ENDBRANCH   3   5
BRANCH   2  15
HETATM   15  C           1     -36.033  -1.369 -11.013  0.00  0.00     0.185 C 
BRANCH  15  16
HETATM   16  C           1     -36.631  -0.678  -9.812  0.00  0.00     0.196 C 
HETATM   17  O           1     -37.864  -0.489  -9.749  0.00  0.00    -0.646 OA
HETATM   18  O           1     -35.892  -0.294  -8.880  0.00  0.00    -0.646 OA
ENDBRANCH  15  16
BRANCH  15  19
HETATM   19  C           1     -34.911  -2.295 -10.559  0.00  0.00     0.036 C 
BRANCH  19  20
HETATM   20  C           1     -35.200  -3.714 -11.030  0.00  0.00     0.003 C 
BRANCH  20  21
HETATM   21 Se           1     -33.524  -4.689 -11.227  0.00  0.00     0.000 Se
HETATM   22  C           1     -34.265  -6.402 -10.666  0.00  0.00     0.000 C 
ENDBRANCH  20  21
ENDBRANCH  19  20
ENDBRANCH  15  19
ENDBRANCH   2  15
TORSDOF 10
ENDMDL
MODEL 6
REMARK VINA RESULT:      -5.2     14.740     16.821
REMARK  10 active torsions:
REMARK  status: ('A' for Active; 'I' for Inactive)
REMARK    1  A    between atoms: C_6  and  C_21 
REMARK    2  A    between atoms: N_9  and  C_21 
REMARK       I    between atoms: N_9  and  C_10 
REMARK    3  A    between atoms: C_10  and  C_11 
REMARK    4  A    between atoms: C_11  and  C_12 
REMARK    5  A    between atoms: C_11  and  N_20 
REMARK    6  A    between atoms: C_12  and  C_13 
REMARK    7  A    between atoms: C_13  and  C_19 
REMARK    8  A    between atoms: Se_14  and  C_16 
REMARK    9  A    between atoms: C_16  and  C_22 
REMARK   10  A    between atoms: C_21  and  C_22 
ROOT
HETATM    1  H           1     -21.504  -7.247  -7.071  0.00  0.00     0.163 HD
HETATM    2  N           1     -21.083  -6.620  -6.396  0.00  0.00    -0.345 N 
HETATM    3  C           1     -20.935  -5.293  -6.696  0.00  0.00     0.249 C 
HETATM    4  O           1     -20.433  -4.544  -5.891  0.00  0.00    -0.271 OA
ENDROOT
BRANCH   3   5
HETATM    5  C           1     -21.400  -4.764  -8.031  0.00  0.00     0.275 C 
BRANCH   5   6
HETATM    6  C           1     -20.219  -4.151  -8.773  0.00  0.00     0.053 C 
BRANCH   6   7
HETATM    7  C           1     -20.106  -4.780 -10.155  0.00  0.00     0.115 C 
BRANCH   7   8
HETATM    8  C           1     -20.970  -4.018 -11.129  0.00  0.00     0.172 C 
HETATM    9  O           1     -20.790  -2.793 -11.299  0.00  0.00    -0.648 OA
HETATM   10  O           1     -21.865  -4.612 -11.767  0.00  0.00    -0.648 OA
ENDBRANCH   7   8
ENDBRANCH   6   7
ENDBRANCH   5   6
BRANCH   5  11
HETATM   11  N           1     -22.452  -3.718  -7.815  0.00  0.00    -0.066 N 
HETATM   12  H           1     -22.129  -3.045  -7.083  0.00  0.00     0.275 HD
HETATM   13  H           1     -22.621  -3.205  -8.709  0.00  0.00     0.275 HD
HETATM   14  H           1     -23.338  -4.175  -7.500  0.00  0.00     0.275 HD
ENDBRANCH   5  11
ENDBRANCH   3   5
BRANCH   2  15
HETATM   15  C           1     -20.637  -7.128  -5.114  0.00  0.00     0.185 C 
BRANCH  15  16
HETATM   16  C           1     -20.076  -8.517  -5.292  0.00  0.00     0.196 C 
HETATM   17  O           1     -20.698  -9.504  -4.844  0.00  0.00    -0.646 OA
HETATM   18  O           1     -18.990  -8.681  -5.889  0.00  0.00    -0.646 OA
ENDBRANCH  15  16
BRANCH  15  19
HETATM   19  C           1     -21.817  -7.176  -4.150  0.00  0.00     0.036 C 
BRANCH  19  20
HETATM   20  C           1     -21.422  -6.529  -2.830  0.00  0.00     0.003 C 
BRANCH  20  21
HETATM   21 Se           1     -21.005  -7.914  -1.524  0.00  0.00     0.000 Se
HETATM   22  C           1     -22.492  -7.478  -0.343  0.00  0.00     0.000 C 
ENDBRANCH  20  21
ENDBRANCH  19  20
ENDBRANCH  15  19
ENDBRANCH   2  15
TORSDOF 10
ENDMDL
MODEL 7
REMARK VINA RESULT:      -5.2     14.504     16.232
REMARK  10 active torsions:
REMARK  status: ('A' for Active; 'I' for Inactive)
REMARK    1  A    between atoms: C_6  and  C_21 
REMARK    2  A    between atoms: N_9  and  C_21 
REMARK       I    between atoms: N_9  and  C_10 
REMARK    3  A    between atoms: C_10  and  C_11 
REMARK    4  A    between atoms: C_11  and  C_12 
REMARK    5  A    between atoms: C_11  and  N_20 
REMARK    6  A    between atoms: C_12  and  C_13 
REMARK    7  A    between atoms: C_13  and  C_19 
REMARK    8  A    between atoms: Se_14  and  C_16 
REMARK    9  A    between atoms: C_16  and  C_22 
REMARK   10  A    between atoms: C_21  and  C_22 
ROOT
HETATM    1  H           1     -21.848  -5.058  -5.176  0.00  0.00     0.163 HD
HETATM    2  N           1     -21.582  -5.749  -5.867  0.00  0.00    -0.345 N 
HETATM    3  C           1     -21.511  -7.071  -5.519  0.00  0.00     0.249 C 
HETATM    4  O           1     -21.193  -7.896  -6.343  0.00  0.00    -0.271 OA
ENDROOT
BRANCH   3   5
HETATM    5  C           1     -21.829  -7.499  -4.107  0.00  0.00     0.275 C 
BRANCH   5   6
HETATM    6  C           1     -21.198  -6.519  -3.125  0.00  0.00     0.053 C 
BRANCH   6   7
HETATM    7  C           1     -22.215  -6.146  -2.056  0.00  0.00     0.115 C 
BRANCH   7   8
HETATM    8  C           1     -22.167  -7.160  -0.939  0.00  0.00     0.172 C 
HETATM    9  O           1     -21.135  -7.839  -0.755  0.00  0.00    -0.648 OA
HETATM   10  O           1     -23.162  -7.320  -0.198  0.00  0.00    -0.648 OA
ENDBRANCH   7   8
ENDBRANCH   6   7
ENDBRANCH   5   6
BRANCH   5  11
HETATM   11  N           1     -21.278  -8.872  -3.866  0.00  0.00    -0.066 N 
HETATM   12  H           1     -20.287  -8.799  -3.542  0.00  0.00     0.275 HD
HETATM   13  H           1     -21.848  -9.352  -3.133  0.00  0.00     0.275 HD
HETATM   14  H           1     -21.314  -9.423  -4.753  0.00  0.00     0.275 HD
ENDBRANCH   5  11
ENDBRANCH   3   5
BRANCH   2  15
HETATM   15  C           1     -21.277  -5.338  -7.223  0.00  0.00     0.185 C 
BRANCH  15  16
HETATM   16  C           1     -19.977  -4.573  -7.235  0.00  0.00     0.196 C 
HETATM   17  O           1     -19.224  -4.603  -6.238  0.00  0.00    -0.646 OA
HETATM   18  O           1     -19.651  -3.910  -8.243  0.00  0.00    -0.646 OA
ENDBRANCH  15  16
BRANCH  15  19
HETATM   19  C           1     -22.396  -4.446  -7.746  0.00  0.00     0.036 C 
BRANCH  19  20
HETATM   20  C           1     -22.780  -4.885  -9.153  0.00  0.00     0.003 C 
BRANCH  20  21
HETATM   21 Se           1     -23.408  -3.344 -10.167  0.00  0.00     0.000 Se
HETATM   22  C           1     -22.000  -3.447 -11.510  0.00  0.00     0.000 C 
ENDBRANCH  20  21
ENDBRANCH  19  20
ENDBRANCH  15  19
ENDBRANCH   2  15
TORSDOF 10
ENDMDL
MODEL 8
REMARK VINA RESULT:      -5.1     11.089     12.860
REMARK  10 active torsions:
REMARK  status: ('A' for Active; 'I' for Inactive)
REMARK    1  A    between atoms: C_6  and  C_21 
REMARK    2  A    between atoms: N_9  and  C_21 
REMARK       I    between atoms: N_9  and  C_10 
REMARK    3  A    between atoms: C_10  and  C_11 
REMARK    4  A    between atoms: C_11  and  C_12 
REMARK    5  A    between atoms: C_11  and  N_20 
REMARK    6  A    between atoms: C_12  and  C_13 
REMARK    7  A    between atoms: C_13  and  C_19 
REMARK    8  A    between atoms: Se_14  and  C_16 
REMARK    9  A    between atoms: C_16  and  C_22 
REMARK   10  A    between atoms: C_21  and  C_22 
ROOT
HETATM    1  H           1     -27.939  -8.048 -18.305  0.00  0.00     0.163 HD
HETATM    2  N           1     -28.061  -7.218 -18.874  0.00  0.00    -0.345 N 
HETATM    3  C           1     -28.813  -6.175 -18.406  0.00  0.00     0.249 C 
HETATM    4  O           1     -28.959  -5.184 -19.084  0.00  0.00    -0.271 OA
ENDROOT
BRANCH   3   5
HETATM    5  C           1     -29.461  -6.261 -17.046  0.00  0.00     0.275 C 
BRANCH   5   6
HETATM    6  C           1     -28.697  -7.256 -16.182  0.00  0.00     0.053 C 
BRANCH   6   7
HETATM    7  C           1     -27.717  -6.507 -15.290  0.00  0.00     0.115 C 
BRANCH   7   8
HETATM    8  C           1     -26.321  -6.647 -15.847  0.00  0.00     0.172 C 
HETATM    9  O           1     -25.554  -7.525 -15.399  0.00  0.00    -0.648 OA
HETATM   10  O           1     -25.933  -5.883 -16.756  0.00  0.00    -0.648 OA
ENDBRANCH   7   8
ENDBRANCH   6   7
ENDBRANCH   5   6
BRANCH   5  11
HETATM   11  N           1     -30.881  -6.717 -17.198  0.00  0.00    -0.066 N 
HETATM   12  H           1     -31.515  -6.062 -16.686  0.00  0.00     0.275 HD
HETATM   13  H           1     -31.137  -6.728 -18.211  0.00  0.00     0.275 HD
HETATM   14  H           1     -30.982  -7.679 -16.801  0.00  0.00     0.275 HD
ENDBRANCH   5  11
ENDBRANCH   3   5
BRANCH   2  15
HETATM   15  C           1     -27.437  -7.136 -20.180  0.00  0.00     0.185 C 
BRANCH  15  16
HETATM   16  C           1     -27.744  -8.389 -20.962  0.00  0.00     0.196 C 
HETATM   17  O           1     -26.861  -8.913 -21.674  0.00  0.00    -0.646 OA
HETATM   18  O           1     -28.881  -8.904 -20.897  0.00  0.00    -0.646 OA
ENDBRANCH  15  16
BRANCH  15  19
HETATM   19  C           1     -25.929  -6.997 -20.014  0.00  0.00     0.036 C 
BRANCH  19  20
HETATM   20  C           1     -25.378  -6.094 -21.109  0.00  0.00     0.003 C 
BRANCH  20  21
HETATM   21 Se           1     -24.197  -7.122 -22.269  0.00  0.00     0.000 Se
HETATM   22  C           1     -23.494  -8.240 -20.835  0.00  0.00     0.000 C 
ENDBRANCH  20  21
ENDBRANCH  19  20
ENDBRANCH  15  19
ENDBRANCH   2  15
TORSDOF 10
ENDMDL
MODEL 9
REMARK VINA RESULT:      -5.0      9.930     11.729
REMARK  10 active torsions:
REMARK  status: ('A' for Active; 'I' for Inactive)
REMARK    1  A    between atoms: C_6  and  C_21 
REMARK    2  A    between atoms: N_9  and  C_21 
REMARK       I    between atoms: N_9  and  C_10 
REMARK    3  A    between atoms: C_10  and  C_11 
REMARK    4  A    between atoms: C_11  and  C_12 
REMARK    5  A    between atoms: C_11  and  N_20 
REMARK    6  A    between atoms: C_12  and  C_13 
REMARK    7  A    between atoms: C_13  and  C_19 
REMARK    8  A    between atoms: Se_14  and  C_16 
REMARK    9  A    between atoms: C_16  and  C_22 
REMARK   10  A    between atoms: C_21  and  C_22 
ROOT
HETATM    1  H           1     -27.853  -8.327 -18.962  0.00  0.00     0.163 HD
HETATM    2  N           1     -27.773  -7.350 -19.217  0.00  0.00    -0.345 N 
HETATM    3  C           1     -28.774  -6.475 -18.891  0.00  0.00     0.249 C 
HETATM    4  O           1     -28.680  -5.309 -19.195  0.00  0.00    -0.271 OA
ENDROOT
BRANCH   3   5
HETATM    5  C           1     -29.995  -6.966 -18.152  0.00  0.00     0.275 C 
BRANCH   5   6
HETATM    6  C           1     -30.380  -5.955 -17.079  0.00  0.00     0.053 C 
BRANCH   6   7
HETATM    7  C           1     -31.875  -5.677 -17.155  0.00  0.00     0.115 C 
BRANCH   7   8
HETATM    8  C           1     -32.122  -4.198 -16.988  0.00  0.00     0.172 C 
HETATM    9  O           1     -31.300  -3.372 -17.437  0.00  0.00    -0.648 OA
HETATM   10  O           1     -33.151  -3.800 -16.400  0.00  0.00    -0.648 OA
ENDBRANCH   7   8
ENDBRANCH   6   7
ENDBRANCH   5   6
BRANCH   5  11
HETATM   11  N           1     -29.693  -8.286 -17.510  0.00  0.00    -0.066 N 
HETATM   12  H           1     -30.476  -8.550 -16.870  0.00  0.00     0.275 HD
HETATM   13  H           1     -29.587  -9.017 -18.249  0.00  0.00     0.275 HD
HETATM   14  H           1     -28.806  -8.212 -16.961  0.00  0.00     0.275 HD
ENDBRANCH   5  11
ENDBRANCH   3   5
BRANCH   2  15
HETATM   15  C           1     -26.600  -6.879 -19.925  0.00  0.00     0.185 C 
BRANCH  15  16
HETATM   16  C           1     -26.259  -7.847 -21.031  0.00  0.00     0.196 C 
HETATM   17  O           1     -27.134  -8.618 -21.479  0.00  0.00    -0.646 OA
HETATM   18  O           1     -25.101  -7.877 -21.501  0.00  0.00    -0.646 OA
ENDBRANCH  15  16
BRANCH  15  19
HETATM   19  C           1     -25.428  -6.781 -18.957  0.00  0.00     0.036 C 
BRANCH  19  20
HETATM   20  C           1     -25.869  -6.047 -17.697  0.00  0.00     0.003 C 
BRANCH  20  21
HETATM   21 Se           1     -25.368  -7.088 -16.128  0.00  0.00     0.000 Se
HETATM   22  C           1     -27.181  -7.200 -15.421  0.00  0.00     0.000 C 
ENDBRANCH  20  21
ENDBRANCH  19  20
ENDBRANCH  15  19
ENDBRANCH   2  15
TORSDOF 10
ENDMDL
