MODEL 1
REMARK VINA RESULT:      -9.8      0.000      0.000
REMARK  8 active torsions:
REMARK  status: ('A' for Active; 'I' for Inactive)
REMARK    1  A    between atoms: C_4  and  C_7 
REMARK    2  A    between atoms: C_4  and  C_20 
REMARK    3  A    between atoms: C_5  and  C_11 
REMARK    4  A    between atoms: C_5  and  C_18 
REMARK    5  A    between atoms: C_7  and  C_12 
REMARK    6  A    between atoms: C_7  and  N_14 
REMARK    7  A    between atoms: C_11  and  C_31 
REMARK    8  A    between atoms: C_11  and  N_24 
REMARK       I    between atoms: N_14  and  C_31 
ROOT
HETATM    1  N           1     -20.796  -7.580  -6.060  0.00  0.00    -0.344 N 
HETATM    2  H           1     -21.508  -8.105  -6.552  0.00  0.00     0.163 HD
HETATM    3  C           1     -20.235  -6.476  -6.645  0.00  0.00     0.249 C 
HETATM    4  O           1     -19.248  -6.591  -7.331  0.00  0.00    -0.271 OA
ENDROOT
BRANCH   3   5
HETATM    5  C           1     -20.851  -5.114  -6.431  0.00  0.00     0.278 C 
BRANCH   5   6
HETATM    6  C           1     -20.698  -4.283  -7.697  0.00  0.00     0.083 C 
BRANCH   6   7
HETATM    7  C           1     -22.042  -4.074  -8.322  0.00  0.00    -0.028 A 
HETATM    8  C           1     -23.259  -4.185  -7.688  0.00  0.00     0.096 A 
HETATM    9  N           1     -24.238  -3.914  -8.608  0.00  0.00    -0.365 N 
HETATM   10  H           1     -25.268  -3.924  -8.408  0.00  0.00     0.165 HD
HETATM   11  C           1     -23.674  -3.629  -9.832  0.00  0.00     0.042 A 
HETATM   12  C           1     -24.279  -3.298 -11.051  0.00  0.00     0.030 A 
HETATM   13  C           1     -22.291  -3.722  -9.678  0.00  0.00    -0.002 A 
HETATM   14  C           1     -23.441  -3.056 -12.142  0.00  0.00     0.002 A 
HETATM   15  C           1     -22.056  -3.142 -12.019  0.00  0.00     0.001 A 
HETATM   16  C           1     -21.467  -3.474 -10.793  0.00  0.00     0.014 A 
ENDBRANCH   6   7
ENDBRANCH   5   6
BRANCH   5  17
HETATM   17  N           1     -20.156  -4.426  -5.294  0.00  0.00    -0.066 N 
HETATM   18  H           1     -20.065  -3.407  -5.507  0.00  0.00     0.275 HD
HETATM   19  H           1     -19.204  -4.840  -5.165  0.00  0.00     0.275 HD
HETATM   20  H           1     -20.712  -4.551  -4.418  0.00  0.00     0.275 HD
ENDBRANCH   5  17
ENDBRANCH   3   5
BRANCH   1  21
HETATM   21  C           1     -20.369  -7.996  -4.738  0.00  0.00     0.190 C 
BRANCH  21  22
HETATM   22  C           1     -21.534  -8.657  -4.015  0.00  0.00     0.077 C 
BRANCH  22  23
HETATM   23  C           1     -21.725  -8.009  -2.678  0.00  0.00    -0.028 A 
HETATM   24  C           1     -22.182  -6.730  -2.456  0.00  0.00     0.096 A 
HETATM   25  N           1     -22.210  -6.526  -1.101  0.00  0.00    -0.365 N 
HETATM   26  C           1     -21.779  -7.655  -0.440  0.00  0.00     0.042 A 
HETATM   27  H           1     -22.518  -5.638  -0.633  0.00  0.00     0.165 HD
HETATM   28  C           1     -21.645  -7.905   0.930  0.00  0.00     0.030 A 
HETATM   29  C           1     -21.468  -8.605  -1.412  0.00  0.00    -0.002 A 
HETATM   30  C           1     -21.174  -9.165   1.315  0.00  0.00     0.002 A 
HETATM   31  C           1     -20.855 -10.133   0.366  0.00  0.00     0.001 A 
HETATM   32  C           1     -20.996  -9.867  -1.002  0.00  0.00     0.014 A 
ENDBRANCH  22  23
ENDBRANCH  21  22
BRANCH  21  33
HETATM   33  C           1     -19.231  -8.979  -4.866  0.00  0.00     0.197 C 
HETATM   34  O           1     -19.103  -9.656  -5.908  0.00  0.00    -0.646 OA
HETATM   35  O           1     -18.415  -9.115  -3.928  0.00  0.00    -0.646 OA
ENDBRANCH  21  33
ENDBRANCH   1  21
TORSDOF 8
ENDMDL
MODEL 2
REMARK VINA RESULT:      -9.3      1.548      2.293
REMARK  8 active torsions:
REMARK  status: ('A' for Active; 'I' for Inactive)
REMARK    1  A    between atoms: C_4  and  C_7 
REMARK    2  A    between atoms: C_4  and  C_20 
REMARK    3  A    between atoms: C_5  and  C_11 
REMARK    4  A    between atoms: C_5  and  C_18 
REMARK    5  A    between atoms: C_7  and  C_12 
REMARK    6  A    between atoms: C_7  and  N_14 
REMARK    7  A    between atoms: C_11  and  C_31 
REMARK    8  A    between atoms: C_11  and  N_24 
REMARK       I    between atoms: N_14  and  C_31 
ROOT
HETATM    1  N           1     -19.707  -7.109  -6.346  0.00  0.00    -0.344 N 
HETATM    2  H           1     -19.266  -7.486  -7.176  0.00  0.00     0.163 HD
HETATM    3  C           1     -20.152  -5.815  -6.338  0.00  0.00     0.249 C 
HETATM    4  O           1     -19.417  -4.925  -5.984  0.00  0.00    -0.271 OA
ENDROOT
BRANCH   3   5
HETATM    5  C           1     -21.564  -5.499  -6.770  0.00  0.00     0.278 C 
BRANCH   5   6
HETATM    6  C           1     -21.629  -4.069  -7.287  0.00  0.00     0.083 C 
BRANCH   6   7
HETATM    7  C           1     -21.414  -4.062  -8.768  0.00  0.00    -0.028 A 
HETATM    8  C           1     -20.221  -4.291  -9.415  0.00  0.00     0.096 A 
HETATM    9  N           1     -20.451  -4.197 -10.763  0.00  0.00    -0.365 N 
HETATM   10  H           1     -19.721  -4.325 -11.507  0.00  0.00     0.165 HD
HETATM   11  C           1     -21.777  -3.908 -11.000  0.00  0.00     0.042 A 
HETATM   12  C           1     -22.459  -3.723 -12.209  0.00  0.00     0.030 A 
HETATM   13  C           1     -22.406  -3.819  -9.759  0.00  0.00    -0.002 A 
HETATM   14  C           1     -23.826  -3.437 -12.141  0.00  0.00     0.002 A 
HETATM   15  C           1     -24.481  -3.342 -10.915  0.00  0.00     0.001 A 
HETATM   16  C           1     -23.783  -3.530  -9.716  0.00  0.00     0.014 A 
ENDBRANCH   6   7
ENDBRANCH   5   6
BRANCH   5  17
HETATM   17  N           1     -22.489  -5.652  -5.600  0.00  0.00    -0.066 N 
HETATM   18  H           1     -23.103  -4.809  -5.529  0.00  0.00     0.275 HD
HETATM   19  H           1     -21.929  -5.748  -4.722  0.00  0.00     0.275 HD
HETATM   20  H           1     -23.080  -6.504  -5.732  0.00  0.00     0.275 HD
ENDBRANCH   5  17
ENDBRANCH   3   5
BRANCH   1  21
HETATM   21  C           1     -19.866  -7.939  -5.168  0.00  0.00     0.190 C 
BRANCH  21  22
HETATM   22  C           1     -21.228  -8.617  -5.206  0.00  0.00     0.077 C 
BRANCH  22  23
HETATM   23  C           1     -21.541  -9.184  -3.855  0.00  0.00    -0.028 A 
HETATM   24  C           1     -21.620 -10.520  -3.535  0.00  0.00     0.096 A 
HETATM   25  N           1     -21.927 -10.613  -2.202  0.00  0.00    -0.365 N 
HETATM   26  C           1     -22.049  -9.357  -1.653  0.00  0.00     0.042 A 
HETATM   27  H           1     -22.051 -11.513  -1.676  0.00  0.00     0.165 HD
HETATM   28  C           1     -22.349  -8.968  -0.342  0.00  0.00     0.030 A 
HETATM   29  C           1     -21.810  -8.437  -2.674  0.00  0.00    -0.002 A 
HETATM   30  C           1     -22.407  -7.597  -0.071  0.00  0.00     0.002 A 
HETATM   31  C           1     -22.173  -6.656  -1.072  0.00  0.00     0.001 A 
HETATM   32  C           1     -21.874  -7.062  -2.378  0.00  0.00     0.014 A 
ENDBRANCH  22  23
ENDBRANCH  21  22
BRANCH  21  33
HETATM   33  C           1     -18.781  -8.987  -5.143  0.00  0.00     0.197 C 
HETATM   34  O           1     -18.504  -9.626  -6.181  0.00  0.00    -0.646 OA
HETATM   35  O           1     -18.156  -9.215  -4.084  0.00  0.00    -0.646 OA
ENDBRANCH  21  33
ENDBRANCH   1  21
TORSDOF 8
ENDMDL
MODEL 3
REMARK VINA RESULT:      -9.2      1.924      2.532
REMARK  8 active torsions:
REMARK  status: ('A' for Active; 'I' for Inactive)
REMARK    1  A    between atoms: C_4  and  C_7 
REMARK    2  A    between atoms: C_4  and  C_20 
REMARK    3  A    between atoms: C_5  and  C_11 
REMARK    4  A    between atoms: C_5  and  C_18 
REMARK    5  A    between atoms: C_7  and  C_12 
REMARK    6  A    between atoms: C_7  and  N_14 
REMARK    7  A    between atoms: C_11  and  C_31 
REMARK    8  A    between atoms: C_11  and  N_24 
REMARK       I    between atoms: N_14  and  C_31 
ROOT
HETATM    1  N           1     -20.754  -6.819  -6.752  0.00  0.00    -0.344 N 
HETATM    2  H           1     -20.404  -7.397  -7.506  0.00  0.00     0.163 HD
HETATM    3  C           1     -20.577  -5.462  -6.793  0.00  0.00     0.249 C 
HETATM    4  O           1     -19.588  -4.966  -6.309  0.00  0.00    -0.271 OA
ENDROOT
BRANCH   3   5
HETATM    5  C           1     -21.620  -4.584  -7.442  0.00  0.00     0.278 C 
BRANCH   5   6
HETATM    6  C           1     -21.427  -4.599  -8.953  0.00  0.00     0.083 C 
BRANCH   6   7
HETATM    7  C           1     -22.702  -4.192  -9.623  0.00  0.00    -0.028 A 
HETATM    8  C           1     -23.953  -4.180  -9.049  0.00  0.00     0.096 A 
HETATM    9  N           1     -24.844  -3.743  -9.994  0.00  0.00    -0.365 N 
HETATM   10  H           1     -25.876  -3.633  -9.840  0.00  0.00     0.165 HD
HETATM   11  C           1     -24.189  -3.471 -11.175  0.00  0.00     0.042 A 
HETATM   12  C           1     -24.687  -3.007 -12.399  0.00  0.00     0.030 A 
HETATM   13  C           1     -22.837  -3.744 -10.967  0.00  0.00    -0.002 A 
HETATM   14  C           1     -23.772  -2.819 -13.438  0.00  0.00     0.002 A 
HETATM   15  C           1     -22.415  -3.084 -13.259  0.00  0.00     0.001 A 
HETATM   16  C           1     -21.934  -3.547 -12.030  0.00  0.00     0.014 A 
ENDBRANCH   6   7
ENDBRANCH   5   6
BRANCH   5  17
HETATM   17  N           1     -21.477  -3.181  -6.934  0.00  0.00    -0.066 N 
HETATM   18  H           1     -20.611  -3.107  -6.354  0.00  0.00     0.275 HD
HETATM   19  H           1     -22.308  -2.936  -6.348  0.00  0.00     0.275 HD
HETATM   20  H           1     -21.414  -2.522  -7.742  0.00  0.00     0.275 HD
ENDBRANCH   5  17
ENDBRANCH   3   5
BRANCH   1  21
HETATM   21  C           1     -21.440  -7.427  -5.629  0.00  0.00     0.190 C 
BRANCH  21  22
HETATM   22  C           1     -20.422  -8.082  -4.707  0.00  0.00     0.077 C 
BRANCH  22  23
HETATM   23  C           1     -21.113  -9.074  -3.823  0.00  0.00    -0.028 A 
HETATM   24  C           1     -21.643 -10.281  -4.218  0.00  0.00     0.096 A 
HETATM   25  N           1     -22.183 -10.883  -3.112  0.00  0.00    -0.365 N 
HETATM   26  C           1     -22.010 -10.084  -2.003  0.00  0.00     0.042 A 
HETATM   27  H           1     -22.658 -11.818  -3.109  0.00  0.00     0.165 HD
HETATM   28  C           1     -22.394 -10.289  -0.673  0.00  0.00     0.030 A 
HETATM   29  C           1     -21.337  -8.937  -2.425  0.00  0.00    -0.002 A 
HETATM   30  C           1     -22.080  -9.288   0.253  0.00  0.00     0.002 A 
HETATM   31  C           1     -21.409  -8.131  -0.140  0.00  0.00     0.001 A 
HETATM   32  C           1     -21.032  -7.943  -1.476  0.00  0.00     0.014 A 
ENDBRANCH  22  23
ENDBRANCH  21  22
BRANCH  21  33
HETATM   33  C           1     -22.199  -6.366  -4.871  0.00  0.00     0.197 C 
HETATM   34  O           1     -21.643  -5.742  -3.942  0.00  0.00    -0.646 OA
HETATM   35  O           1     -23.386  -6.110  -5.173  0.00  0.00    -0.646 OA
ENDBRANCH  21  33
ENDBRANCH   1  21
TORSDOF 8
ENDMDL
MODEL 4
REMARK VINA RESULT:      -9.1      2.428      3.073
REMARK  8 active torsions:
REMARK  status: ('A' for Active; 'I' for Inactive)
REMARK    1  A    between atoms: C_4  and  C_7 
REMARK    2  A    between atoms: C_4  and  C_20 
REMARK    3  A    between atoms: C_5  and  C_11 
REMARK    4  A    between atoms: C_5  and  C_18 
REMARK    5  A    between atoms: C_7  and  C_12 
REMARK    6  A    between atoms: C_7  and  N_14 
REMARK    7  A    between atoms: C_11  and  C_31 
REMARK    8  A    between atoms: C_11  and  N_24 
REMARK       I    between atoms: N_14  and  C_31 
ROOT
HETATM    1  N           1     -20.446  -6.982  -5.275  0.00  0.00    -0.344 N 
HETATM    2  H           1     -19.691  -7.482  -5.727  0.00  0.00     0.163 HD
HETATM    3  C           1     -20.679  -5.669  -5.585  0.00  0.00     0.249 C 
HETATM    4  O           1     -20.130  -4.794  -4.959  0.00  0.00    -0.271 OA
ENDROOT
BRANCH   3   5
HETATM    5  C           1     -21.622  -5.314  -6.709  0.00  0.00     0.278 C 
BRANCH   5   6
HETATM    6  C           1     -21.209  -3.981  -7.317  0.00  0.00     0.083 C 
BRANCH   6   7
HETATM    7  C           1     -21.200  -4.094  -8.810  0.00  0.00    -0.028 A 
HETATM    8  C           1     -20.120  -4.438  -9.591  0.00  0.00     0.096 A 
HETATM    9  N           1     -20.529  -4.429 -10.899  0.00  0.00    -0.365 N 
HETATM   10  H           1     -19.916  -4.653 -11.722  0.00  0.00     0.165 HD
HETATM   11  C           1     -21.860  -4.084 -10.978  0.00  0.00     0.042 A 
HETATM   12  C           1     -22.694  -3.948 -12.096  0.00  0.00     0.030 A 
HETATM   13  C           1     -22.307  -3.869  -9.675  0.00  0.00    -0.002 A 
HETATM   14  C           1     -24.023  -3.580 -11.868  0.00  0.00     0.002 A 
HETATM   15  C           1     -24.497  -3.359 -10.576  0.00  0.00     0.001 A 
HETATM   16  C           1     -23.650  -3.499  -9.471  0.00  0.00     0.014 A 
ENDBRANCH   6   7
ENDBRANCH   5   6
BRANCH   5  17
HETATM   17  N           1     -23.019  -5.208  -6.173  0.00  0.00    -0.066 N 
HETATM   18  H           1     -23.113  -5.812  -5.325  0.00  0.00     0.275 HD
HETATM   19  H           1     -23.697  -5.526  -6.902  0.00  0.00     0.275 HD
HETATM   20  H           1     -23.220  -4.215  -5.918  0.00  0.00     0.275 HD
ENDBRANCH   5  17
ENDBRANCH   3   5
BRANCH   1  21
HETATM   21  C           1     -21.281  -7.656  -4.300  0.00  0.00     0.190 C 
BRANCH  21  22
HETATM   22  C           1     -20.531  -8.852  -3.730  0.00  0.00     0.077 C 
BRANCH  22  23
HETATM   23  C           1     -21.499  -9.956  -3.437  0.00  0.00    -0.028 A 
HETATM   24  C           1     -21.840 -10.983  -4.288  0.00  0.00     0.096 A 
HETATM   25  N           1     -22.752 -11.776  -3.642  0.00  0.00    -0.365 N 
HETATM   26  C           1     -23.009 -11.279  -2.384  0.00  0.00     0.042 A 
HETATM   27  H           1     -23.191 -12.638  -4.048  0.00  0.00     0.165 HD
HETATM   28  C           1     -23.862 -11.753  -1.381  0.00  0.00     0.030 A 
HETATM   29  C           1     -22.231 -10.131  -2.230  0.00  0.00    -0.002 A 
HETATM   30  C           1     -23.920 -11.030  -0.185  0.00  0.00     0.002 A 
HETATM   31  C           1     -23.154  -9.880  -0.003  0.00  0.00     0.001 A 
HETATM   32  C           1     -22.306  -9.419  -1.017  0.00  0.00     0.014 A 
ENDBRANCH  22  23
ENDBRANCH  21  22
BRANCH  21  33
HETATM   33  C           1     -21.624  -6.698  -3.186  0.00  0.00     0.197 C 
HETATM   34  O           1     -22.707  -6.074  -3.207  0.00  0.00    -0.646 OA
HETATM   35  O           1     -20.824  -6.528  -2.240  0.00  0.00    -0.646 OA
ENDBRANCH  21  33
ENDBRANCH   1  21
TORSDOF 8
ENDMDL
MODEL 5
REMARK VINA RESULT:      -9.0      1.688      2.355
REMARK  8 active torsions:
REMARK  status: ('A' for Active; 'I' for Inactive)
REMARK    1  A    between atoms: C_4  and  C_7 
REMARK    2  A    between atoms: C_4  and  C_20 
REMARK    3  A    between atoms: C_5  and  C_11 
REMARK    4  A    between atoms: C_5  and  C_18 
REMARK    5  A    between atoms: C_7  and  C_12 
REMARK    6  A    between atoms: C_7  and  N_14 
REMARK    7  A    between atoms: C_11  and  C_31 
REMARK    8  A    between atoms: C_11  and  N_24 
REMARK       I    between atoms: N_14  and  C_31 
ROOT
HETATM    1  N           1     -20.835  -8.548  -4.349  0.00  0.00    -0.344 N 
HETATM    2  H           1     -21.442  -9.036  -3.703  0.00  0.00     0.163 HD
HETATM    3  C           1     -21.375  -7.800  -5.361  0.00  0.00     0.249 C 
HETATM    4  O           1     -21.604  -8.308  -6.432  0.00  0.00    -0.271 OA
ENDROOT
BRANCH   3   5
HETATM    5  C           1     -21.683  -6.339  -5.138  0.00  0.00     0.278 C 
BRANCH   5   6
HETATM    6  C           1     -20.866  -5.494  -6.105  0.00  0.00     0.083 C 
BRANCH   6   7
HETATM    7  C           1     -21.771  -4.912  -7.147  0.00  0.00    -0.028 A 
HETATM    8  C           1     -23.096  -4.579  -6.976  0.00  0.00     0.096 A 
HETATM    9  N           1     -23.558  -4.078  -8.165  0.00  0.00    -0.365 N 
HETATM   10  H           1     -24.538  -3.741  -8.334  0.00  0.00     0.165 HD
HETATM   11  C           1     -22.553  -4.082  -9.106  0.00  0.00     0.042 A 
HETATM   12  C           1     -22.564  -3.666 -10.443  0.00  0.00     0.030 A 
HETATM   13  C           1     -21.415  -4.601  -8.488  0.00  0.00    -0.002 A 
HETATM   14  C           1     -21.375  -3.789 -11.167  0.00  0.00     0.002 A 
HETATM   15  C           1     -20.223  -4.305 -10.577  0.00  0.00     0.001 A 
HETATM   16  C           1     -20.229  -4.716  -9.239  0.00  0.00     0.014 A 
ENDBRANCH   6   7
ENDBRANCH   5   6
BRANCH   5  17
HETATM   17  N           1     -21.332  -5.966  -3.728  0.00  0.00    -0.066 N 
HETATM   18  H           1     -21.314  -4.925  -3.638  0.00  0.00     0.275 HD
HETATM   19  H           1     -20.390  -6.351  -3.490  0.00  0.00     0.275 HD
HETATM   20  H           1     -22.046  -6.361  -3.075  0.00  0.00     0.275 HD
ENDBRANCH   5  17
ENDBRANCH   3   5
BRANCH   1  21
HETATM   21  C           1     -19.396  -8.641  -4.204  0.00  0.00     0.190 C 
BRANCH  21  22
HETATM   22  C           1     -19.061  -9.233  -2.842  0.00  0.00     0.077 C 
BRANCH  22  23
HETATM   23  C           1     -20.297  -9.821  -2.235  0.00  0.00    -0.028 A 
HETATM   24  C           1     -20.773 -11.096  -2.438  0.00  0.00     0.096 A 
HETATM   25  N           1     -21.922 -11.236  -1.704  0.00  0.00    -0.365 N 
HETATM   26  C           1     -22.200 -10.069  -1.028  0.00  0.00     0.042 A 
HETATM   27  H           1     -22.506 -12.107  -1.664  0.00  0.00     0.165 HD
HETATM   28  C           1     -23.257  -9.753  -0.166  0.00  0.00     0.030 A 
HETATM   29  C           1     -21.190  -9.161  -1.345  0.00  0.00    -0.002 A 
HETATM   30  C           1     -23.280  -8.467   0.385  0.00  0.00     0.002 A 
HETATM   31  C           1     -22.285  -7.539   0.085  0.00  0.00     0.001 A 
HETATM   32  C           1     -21.234  -7.872  -0.778  0.00  0.00     0.014 A 
ENDBRANCH  22  23
ENDBRANCH  21  22
BRANCH  21  33
HETATM   33  C           1     -18.839  -9.528  -5.290  0.00  0.00     0.197 C 
HETATM   34  O           1     -19.076 -10.755  -5.279  0.00  0.00    -0.646 OA
HETATM   35  O           1     -18.141  -9.035  -6.203  0.00  0.00    -0.646 OA
ENDBRANCH  21  33
ENDBRANCH   1  21
TORSDOF 8
ENDMDL
MODEL 6
REMARK VINA RESULT:      -8.9      1.755      9.245
REMARK  8 active torsions:
REMARK  status: ('A' for Active; 'I' for Inactive)
REMARK    1  A    between atoms: C_4  and  C_7 
REMARK    2  A    between atoms: C_4  and  C_20 
REMARK    3  A    between atoms: C_5  and  C_11 
REMARK    4  A    between atoms: C_5  and  C_18 
REMARK    5  A    between atoms: C_7  and  C_12 
REMARK    6  A    between atoms: C_7  and  N_14 
REMARK    7  A    between atoms: C_11  and  C_31 
REMARK    8  A    between atoms: C_11  and  N_24 
REMARK       I    between atoms: N_14  and  C_31 
ROOT
HETATM    1  N           1     -21.997  -5.247  -6.236  0.00  0.00    -0.344 N 
HETATM    2  H           1     -22.907  -4.837  -6.070  0.00  0.00     0.163 HD
HETATM    3  C           1     -21.343  -5.893  -5.220  0.00  0.00     0.249 C 
HETATM    4  O           1     -20.601  -5.279  -4.493  0.00  0.00    -0.271 OA
ENDROOT
BRANCH   3   5
HETATM    5  C           1     -21.552  -7.373  -5.011  0.00  0.00     0.278 C 
BRANCH   5   6
HETATM    6  C           1     -20.441  -7.922  -4.127  0.00  0.00     0.083 C 
BRANCH   6   7
HETATM    7  C           1     -21.025  -8.854  -3.111  0.00  0.00    -0.028 A 
HETATM    8  C           1     -21.016 -10.229  -3.172  0.00  0.00     0.096 A 
HETATM    9  N           1     -21.649 -10.702  -2.051  0.00  0.00    -0.365 N 
HETATM   10  H           1     -21.793 -11.717  -1.826  0.00  0.00     0.165 HD
HETATM   11  C           1     -22.069  -9.653  -1.264  0.00  0.00     0.042 A 
HETATM   12  C           1     -22.750  -9.657  -0.040  0.00  0.00     0.030 A 
HETATM   13  C           1     -21.687  -8.477  -1.909  0.00  0.00    -0.002 A 
HETATM   14  C           1     -23.048  -8.419   0.536  0.00  0.00     0.002 A 
HETATM   15  C           1     -22.679  -7.228  -0.086  0.00  0.00     0.001 A 
HETATM   16  C           1     -21.999  -7.242  -1.309  0.00  0.00     0.014 A 
ENDBRANCH   6   7
ENDBRANCH   5   6
BRANCH   5  17
HETATM   17  N           1     -21.527  -8.072  -6.338  0.00  0.00    -0.066 N 
HETATM   18  H           1     -20.540  -8.298  -6.594  0.00  0.00     0.275 HD
HETATM   19  H           1     -21.941  -7.449  -7.068  0.00  0.00     0.275 HD
HETATM   20  H           1     -22.083  -8.955  -6.277  0.00  0.00     0.275 HD
ENDBRANCH   5  17
ENDBRANCH   3   5
BRANCH   1  21
HETATM   21  C           1     -21.383  -5.149  -7.546  0.00  0.00     0.190 C 
BRANCH  21  22
HETATM   22  C           1     -21.615  -3.754  -8.110  0.00  0.00     0.077 C 
BRANCH  22  23
HETATM   23  C           1     -22.805  -3.774  -9.020  0.00  0.00    -0.028 A 
HETATM   24  C           1     -24.104  -4.038  -8.650  0.00  0.00     0.096 A 
HETATM   25  N           1     -24.883  -3.957  -9.774  0.00  0.00    -0.365 N 
HETATM   26  C           1     -24.109  -3.645 -10.869  0.00  0.00     0.042 A 
HETATM   27  H           1     -25.921  -4.111  -9.797  0.00  0.00     0.165 HD
HETATM   28  C           1     -24.469  -3.461 -12.209  0.00  0.00     0.030 A 
HETATM   29  C           1     -22.794  -3.524 -10.420  0.00  0.00    -0.002 A 
HETATM   30  C           1     -23.452  -3.146 -13.116  0.00  0.00     0.002 A 
HETATM   31  C           1     -22.130  -3.019 -12.695  0.00  0.00     0.001 A 
HETATM   32  C           1     -21.786  -3.205 -11.351  0.00  0.00     0.014 A 
ENDBRANCH  22  23
ENDBRANCH  21  22
BRANCH  21  33
HETATM   33  C           1     -19.901  -5.405  -7.426  0.00  0.00     0.197 C 
HETATM   34  O           1     -19.461  -6.573  -7.488  0.00  0.00    -0.646 OA
HETATM   35  O           1     -19.113  -4.448  -7.265  0.00  0.00    -0.646 OA
ENDBRANCH  21  33
ENDBRANCH   1  21
TORSDOF 8
ENDMDL
MODEL 7
REMARK VINA RESULT:      -8.9      1.990      9.289
REMARK  8 active torsions:
REMARK  status: ('A' for Active; 'I' for Inactive)
REMARK    1  A    between atoms: C_4  and  C_7 
REMARK    2  A    between atoms: C_4  and  C_20 
REMARK    3  A    between atoms: C_5  and  C_11 
REMARK    4  A    between atoms: C_5  and  C_18 
REMARK    5  A    between atoms: C_7  and  C_12 
REMARK    6  A    between atoms: C_7  and  N_14 
REMARK    7  A    between atoms: C_11  and  C_31 
REMARK    8  A    between atoms: C_11  and  N_24 
REMARK       I    between atoms: N_14  and  C_31 
ROOT
HETATM    1  N           1     -22.325  -5.818  -5.610  0.00  0.00    -0.344 N 
HETATM    2  H           1     -23.306  -5.570  -5.584  0.00  0.00     0.163 HD
HETATM    3  C           1     -21.736  -6.391  -4.515  0.00  0.00     0.249 C 
HETATM    4  O           1     -21.227  -5.695  -3.669  0.00  0.00    -0.271 OA
ENDROOT
BRANCH   3   5
HETATM    5  C           1     -21.723  -7.893  -4.364  0.00  0.00     0.278 C 
BRANCH   5   6
HETATM    6  C           1     -20.809  -8.279  -3.209  0.00  0.00     0.083 C 
BRANCH   6   7
HETATM    7  C           1     -21.637  -8.626  -2.011  0.00  0.00    -0.028 A 
HETATM    8  C           1     -21.869  -7.815  -0.923  0.00  0.00     0.096 A 
HETATM    9  N           1     -22.674  -8.503  -0.053  0.00  0.00    -0.365 N 
HETATM   10  H           1     -23.017  -8.133   0.868  0.00  0.00     0.165 HD
HETATM   11  C           1     -22.967  -9.750  -0.560  0.00  0.00     0.042 A 
HETATM   12  C           1     -23.745 -10.783  -0.024  0.00  0.00     0.030 A 
HETATM   13  C           1     -22.326  -9.852  -1.794  0.00  0.00    -0.002 A 
HETATM   14  C           1     -23.868 -11.955  -0.776  0.00  0.00     0.002 A 
HETATM   15  C           1     -23.238 -12.085  -2.012  0.00  0.00     0.001 A 
HETATM   16  C           1     -22.464 -11.042  -2.533  0.00  0.00     0.014 A 
ENDBRANCH   6   7
ENDBRANCH   5   6
BRANCH   5  17
HETATM   17  N           1     -21.218  -8.517  -5.631  0.00  0.00    -0.066 N 
HETATM   18  H           1     -21.036  -9.533  -5.470  0.00  0.00     0.275 HD
HETATM   19  H           1     -20.331  -8.046  -5.922  0.00  0.00     0.275 HD
HETATM   20  H           1     -21.935  -8.405  -6.384  0.00  0.00     0.275 HD
ENDBRANCH   5  17
ENDBRANCH   3   5
BRANCH   1  21
HETATM   21  C           1     -21.544  -5.567  -6.805  0.00  0.00     0.190 C 
BRANCH  21  22
HETATM   22  C           1     -21.897  -4.196  -7.363  0.00  0.00     0.077 C 
BRANCH  22  23
HETATM   23  C           1     -21.556  -4.146  -8.820  0.00  0.00    -0.028 A 
HETATM   24  C           1     -20.319  -4.388  -9.372  0.00  0.00     0.096 A 
HETATM   25  N           1     -20.431  -4.241 -10.730  0.00  0.00    -0.365 N 
HETATM   26  C           1     -21.723  -3.906 -11.068  0.00  0.00     0.042 A 
HETATM   27  H           1     -19.645  -4.365 -11.414  0.00  0.00     0.165 HD
HETATM   28  C           1     -22.295  -3.660 -12.322  0.00  0.00     0.030 A 
HETATM   29  C           1     -22.453  -3.840  -9.882  0.00  0.00    -0.002 A 
HETATM   30  C           1     -23.656  -3.335 -12.359  0.00  0.00     0.002 A 
HETATM   31  C           1     -24.409  -3.262 -11.190  0.00  0.00     0.001 A 
HETATM   32  C           1     -23.821  -3.511  -9.944  0.00  0.00     0.014 A 
ENDBRANCH  22  23
ENDBRANCH  21  22
BRANCH  21  33
HETATM   33  C           1     -20.075  -5.609  -6.462  0.00  0.00     0.197 C 
HETATM   34  O           1     -19.404  -6.634  -6.706  0.00  0.00    -0.646 OA
HETATM   35  O           1     -19.528  -4.616  -5.933  0.00  0.00    -0.646 OA
ENDBRANCH  21  33
ENDBRANCH   1  21
TORSDOF 8
ENDMDL
MODEL 8
REMARK VINA RESULT:      -8.8      1.774      9.298
REMARK  8 active torsions:
REMARK  status: ('A' for Active; 'I' for Inactive)
REMARK    1  A    between atoms: C_4  and  C_7 
REMARK    2  A    between atoms: C_4  and  C_20 
REMARK    3  A    between atoms: C_5  and  C_11 
REMARK    4  A    between atoms: C_5  and  C_18 
REMARK    5  A    between atoms: C_7  and  C_12 
REMARK    6  A    between atoms: C_7  and  N_14 
REMARK    7  A    between atoms: C_11  and  C_31 
REMARK    8  A    between atoms: C_11  and  N_24 
REMARK       I    between atoms: N_14  and  C_31 
ROOT
HETATM    1  N           1     -22.241  -5.834  -5.870  0.00  0.00    -0.344 N 
HETATM    2  H           1     -23.245  -5.703  -5.864  0.00  0.00     0.163 HD
HETATM    3  C           1     -21.608  -6.312  -4.753  0.00  0.00     0.249 C 
HETATM    4  O           1     -21.200  -5.545  -3.915  0.00  0.00    -0.271 OA
ENDROOT
BRANCH   3   5
HETATM    5  C           1     -21.420  -7.798  -4.571  0.00  0.00     0.278 C 
BRANCH   5   6
HETATM    6  C           1     -20.079  -8.062  -3.900  0.00  0.00     0.083 C 
BRANCH   6   7
HETATM    7  C           1     -20.294  -8.853  -2.647  0.00  0.00    -0.028 A 
HETATM    8  C           1     -19.752 -10.085  -2.362  0.00  0.00     0.096 A 
HETATM    9  N           1     -20.193 -10.460  -1.120  0.00  0.00    -0.365 N 
HETATM   10  H           1     -19.941 -11.359  -0.639  0.00  0.00     0.165 HD
HETATM   11  C           1     -21.014  -9.488  -0.594  0.00  0.00     0.042 A 
HETATM   12  C           1     -21.686  -9.439   0.635  0.00  0.00     0.030 A 
HETATM   13  C           1     -21.094  -8.463  -1.536  0.00  0.00    -0.002 A 
HETATM   14  C           1     -22.460  -8.307   0.902  0.00  0.00     0.002 A 
HETATM   15  C           1     -22.558  -7.268  -0.022  0.00  0.00     0.001 A 
HETATM   16  C           1     -21.881  -7.333  -1.244  0.00  0.00     0.014 A 
ENDBRANCH   6   7
ENDBRANCH   5   6
BRANCH   5  17
HETATM   17  N           1     -21.450  -8.473  -5.910  0.00  0.00    -0.066 N 
HETATM   18  H           1     -20.584  -9.044  -6.032  0.00  0.00     0.275 HD
HETATM   19  H           1     -21.498  -7.749  -6.664  0.00  0.00     0.275 HD
HETATM   20  H           1     -22.290  -9.093  -5.969  0.00  0.00     0.275 HD
ENDBRANCH   5  17
ENDBRANCH   3   5
BRANCH   1  21
HETATM   21  C           1     -21.474  -5.515  -7.058  0.00  0.00     0.190 C 
BRANCH  21  22
HETATM   22  C           1     -21.822  -4.108  -7.522  0.00  0.00     0.077 C 
BRANCH  22  23
HETATM   23  C           1     -21.544  -3.983  -8.989  0.00  0.00    -0.028 A 
HETATM   24  C           1     -20.315  -4.110  -9.595  0.00  0.00     0.096 A 
HETATM   25  N           1     -20.493  -3.927 -10.942  0.00  0.00    -0.365 N 
HETATM   26  C           1     -21.819  -3.682 -11.219  0.00  0.00     0.042 A 
HETATM   27  H           1     -19.728  -3.967 -11.659  0.00  0.00     0.165 HD
HETATM   28  C           1     -22.459  -3.440 -12.440  0.00  0.00     0.030 A 
HETATM   29  C           1     -22.504  -3.713 -10.004  0.00  0.00    -0.002 A 
HETATM   30  C           1     -23.840  -3.222 -12.415  0.00  0.00     0.002 A 
HETATM   31  C           1     -24.550  -3.246 -11.216  0.00  0.00     0.001 A 
HETATM   32  C           1     -23.894  -3.490 -10.003  0.00  0.00     0.014 A 
ENDBRANCH  22  23
ENDBRANCH  21  22
BRANCH  21  33
HETATM   33  C           1     -20.001  -5.592  -6.739  0.00  0.00     0.197 C 
HETATM   34  O           1     -19.356  -6.628  -7.007  0.00  0.00    -0.646 OA
HETATM   35  O           1     -19.425  -4.617  -6.208  0.00  0.00    -0.646 OA
ENDBRANCH  21  33
ENDBRANCH   1  21
TORSDOF 8
ENDMDL
MODEL 9
REMARK VINA RESULT:      -8.7      2.467      4.563
REMARK  8 active torsions:
REMARK  status: ('A' for Active; 'I' for Inactive)
REMARK    1  A    between atoms: C_4  and  C_7 
REMARK    2  A    between atoms: C_4  and  C_20 
REMARK    3  A    between atoms: C_5  and  C_11 
REMARK    4  A    between atoms: C_5  and  C_18 
REMARK    5  A    between atoms: C_7  and  C_12 
REMARK    6  A    between atoms: C_7  and  N_14 
REMARK    7  A    between atoms: C_11  and  C_31 
REMARK    8  A    between atoms: C_11  and  N_24 
REMARK       I    between atoms: N_14  and  C_31 
ROOT
HETATM    1  N           1     -21.302  -6.756  -2.985  0.00  0.00    -0.344 N 
HETATM    2  H           1     -21.088  -6.064  -2.278  0.00  0.00     0.163 HD
HETATM    3  C           1     -21.640  -6.357  -4.251  0.00  0.00     0.249 C 
HETATM    4  O           1     -22.797  -6.154  -4.531  0.00  0.00    -0.271 OA
ENDROOT
BRANCH   3   5
HETATM    5  C           1     -20.567  -6.173  -5.296  0.00  0.00     0.278 C 
BRANCH   5   6
HETATM    6  C           1     -20.441  -4.695  -5.639  0.00  0.00     0.083 C 
BRANCH   6   7
HETATM    7  C           1     -20.418  -4.528  -7.127  0.00  0.00    -0.028 A 
HETATM    8  C           1     -19.298  -4.543  -7.928  0.00  0.00     0.096 A 
HETATM    9  N           1     -19.707  -4.359  -9.223  0.00  0.00    -0.365 N 
HETATM   10  H           1     -19.068  -4.325 -10.055  0.00  0.00     0.165 HD
HETATM   11  C           1     -21.077  -4.224  -9.275  0.00  0.00     0.042 A 
HETATM   12  C           1     -21.924  -4.021 -10.371  0.00  0.00     0.030 A 
HETATM   13  C           1     -21.549  -4.328  -7.967  0.00  0.00    -0.002 A 
HETATM   14  C           1     -23.295  -3.922 -10.117  0.00  0.00     0.002 A 
HETATM   15  C           1     -23.795  -4.021  -8.820  0.00  0.00     0.001 A 
HETATM   16  C           1     -22.934  -4.224  -7.736  0.00  0.00     0.014 A 
ENDBRANCH   6   7
ENDBRANCH   5   6
BRANCH   5  17
HETATM   17  N           1     -20.934  -6.943  -6.529  0.00  0.00    -0.066 N 
HETATM   18  H           1     -21.082  -6.280  -7.323  0.00  0.00     0.275 HD
HETATM   19  H           1     -21.815  -7.479  -6.356  0.00  0.00     0.275 HD
HETATM   20  H           1     -20.163  -7.608  -6.767  0.00  0.00     0.275 HD
ENDBRANCH   5  17
ENDBRANCH   3   5
BRANCH   1  21
HETATM   21  C           1     -21.250  -8.167  -2.659  0.00  0.00     0.190 C 
BRANCH  21  22
HETATM   22  C           1     -19.798  -8.613  -2.562  0.00  0.00     0.077 C 
BRANCH  22  23
HETATM   23  C           1     -19.422  -9.364  -3.802  0.00  0.00    -0.028 A 
HETATM   24  C           1     -20.291  -9.832  -4.761  0.00  0.00     0.096 A 
HETATM   25  N           1     -19.549 -10.461  -5.727  0.00  0.00    -0.365 N 
HETATM   26  C           1     -18.211 -10.408  -5.409  0.00  0.00     0.042 A 
HETATM   27  H           1     -19.944 -10.917  -6.586  0.00  0.00     0.165 HD
HETATM   28  C           1     -17.097 -10.910  -6.093  0.00  0.00     0.030 A 
HETATM   29  C           1     -18.103  -9.721  -4.199  0.00  0.00    -0.002 A 
HETATM   30  C           1     -15.838 -10.702  -5.520  0.00  0.00     0.002 A 
HETATM   31  C           1     -15.701 -10.020  -4.313  0.00  0.00     0.001 A 
HETATM   32  C           1     -16.825  -9.524  -3.642  0.00  0.00     0.014 A 
ENDBRANCH  22  23
ENDBRANCH  21  22
BRANCH  21  33
HETATM   33  C           1     -21.939  -8.401  -1.337  0.00  0.00     0.197 C 
HETATM   34  O           1     -21.931  -9.539  -0.820  0.00  0.00    -0.646 OA
HETATM   35  O           1     -22.516  -7.456  -0.757  0.00  0.00    -0.646 OA
ENDBRANCH  21  33
ENDBRANCH   1  21
TORSDOF 8
ENDMDL
