MODEL 1
REMARK VINA RESULT:      -6.7      0.000      0.000
REMARK  9 active torsions:
REMARK  status: ('A' for Active; 'I' for Inactive)
REMARK    1  A    between atoms: C_2  and  C_12 
REMARK    2  A    between atoms: C_2  and  N_3 
REMARK    3  A    between atoms: N_6  and  C_16 
REMARK       I    between atoms: N_6  and  C_7 
REMARK    4  A    between atoms: C_7  and  C_8 
REMARK    5  A    between atoms: C_8  and  C_13 
REMARK    6  A    between atoms: C_8  and  N_19 
REMARK    7  A    between atoms: C_9  and  C_16 
REMARK    8  A    between atoms: C_12  and  C_21 
REMARK    9  A    between atoms: C_13  and  C_21 
ROOT
HETATM    1  C           1     -34.294  -2.400 -11.996  0.00  0.00     0.274 C 
ENDROOT
BRANCH   1   2
HETATM    2  C           1     -35.266  -1.629 -12.854  0.00  0.00     0.249 C 
HETATM    3  N           1     -34.870  -1.140 -14.070  0.00  0.00    -0.345 N 
HETATM    4  H           1     -33.924  -1.295 -14.393  0.00  0.00     0.163 HD
HETATM    5  O           1     -36.397  -1.443 -12.468  0.00  0.00    -0.271 OA
BRANCH   3   6
HETATM    6  C           1     -35.805  -0.400 -14.893  0.00  0.00     0.181 C 
HETATM    7  C           1     -35.392   1.066 -14.938  0.00  0.00     0.043 C 
BRANCH   6   8
HETATM    8  C           1     -35.803  -0.967 -16.291  0.00  0.00     0.196 C 
HETATM    9  O           1     -34.851  -1.681 -16.674  0.00  0.00    -0.646 OA
HETATM   10  O           1     -36.752  -0.723 -17.067  0.00  0.00    -0.646 OA
ENDBRANCH   6   8
ENDBRANCH   3   6
ENDBRANCH   1   2
BRANCH   1  11
HETATM   11  C           1     -34.960  -3.671 -11.487  0.00  0.00     0.042 C 
BRANCH  11  12
HETATM   12  C           1     -34.010  -4.400 -10.545  0.00  0.00     0.004 C 
BRANCH  12  13
HETATM   13  C           1     -33.858  -5.847 -10.995  0.00  0.00     0.027 C 
BRANCH  13  14
HETATM   14  C           1     -34.688  -6.750 -10.092  0.00  0.00     0.229 C 
BRANCH  14  15
HETATM   15  N           1     -34.509  -8.179 -10.512  0.00  0.00    -0.079 N 
HETATM   16  H           1     -33.502  -8.443 -10.425  0.00  0.00     0.274 HD
HETATM   17  H           1     -35.085  -8.796  -9.898  0.00  0.00     0.274 HD
HETATM   18  H           1     -34.813  -8.291 -11.506  0.00  0.00     0.274 HD
ENDBRANCH  14  15
ENDBRANCH  13  14
ENDBRANCH  12  13
ENDBRANCH  11  12
ENDBRANCH   1  11
BRANCH   1  19
HETATM   19  N           1     -33.877  -1.553 -10.831  0.00  0.00    -0.067 N 
HETATM   20  H           1     -33.256  -0.782 -11.165  0.00  0.00     0.275 HD
HETATM   21  H           1     -33.360  -2.143 -10.139  0.00  0.00     0.275 HD
HETATM   22  H           1     -34.723  -1.145 -10.375  0.00  0.00     0.275 HD
ENDBRANCH   1  19
TORSDOF 9
ENDMDL
MODEL 2
REMARK VINA RESULT:      -6.4      1.142      1.488
REMARK  9 active torsions:
REMARK  status: ('A' for Active; 'I' for Inactive)
REMARK    1  A    between atoms: C_2  and  C_12 
REMARK    2  A    between atoms: C_2  and  N_3 
REMARK    3  A    between atoms: N_6  and  C_16 
REMARK       I    between atoms: N_6  and  C_7 
REMARK    4  A    between atoms: C_7  and  C_8 
REMARK    5  A    between atoms: C_8  and  C_13 
REMARK    6  A    between atoms: C_8  and  N_19 
REMARK    7  A    between atoms: C_9  and  C_16 
REMARK    8  A    between atoms: C_12  and  C_21 
REMARK    9  A    between atoms: C_13  and  C_21 
ROOT
HETATM    1  C           1     -34.867  -1.328 -11.638  0.00  0.00     0.274 C 
ENDROOT
BRANCH   1   2
HETATM    2  C           1     -35.745  -0.867 -12.774  0.00  0.00     0.249 C 
HETATM    3  N           1     -35.187  -0.510 -13.972  0.00  0.00    -0.345 N 
HETATM    4  H           1     -34.183  -0.556 -14.095  0.00  0.00     0.163 HD
HETATM    5  O           1     -36.944  -0.812 -12.627  0.00  0.00    -0.271 OA
BRANCH   3   6
HETATM    6  C           1     -36.032  -0.067 -15.063  0.00  0.00     0.181 C 
HETATM    7  C           1     -35.636   1.347 -15.468  0.00  0.00     0.043 C 
BRANCH   6   8
HETATM    8  C           1     -35.861  -0.995 -16.240  0.00  0.00     0.196 C 
HETATM    9  O           1     -36.539  -0.823 -17.275  0.00  0.00    -0.646 OA
HETATM   10  O           1     -35.041  -1.937 -16.179  0.00  0.00    -0.646 OA
ENDBRANCH   6   8
ENDBRANCH   3   6
ENDBRANCH   1   2
BRANCH   1  11
HETATM   11  C           1     -34.628  -2.828 -11.755  0.00  0.00     0.042 C 
BRANCH  11  12
HETATM   12  C           1     -33.198  -3.149 -11.338  0.00  0.00     0.004 C 
BRANCH  12  13
HETATM   13  C           1     -32.818  -4.532 -11.849  0.00  0.00     0.027 C 
BRANCH  13  14
HETATM   14  C           1     -33.567  -5.592 -11.051  0.00  0.00     0.229 C 
BRANCH  14  15
HETATM   15  N           1     -34.577  -6.263 -11.935  0.00  0.00    -0.079 N 
HETATM   16  H           1     -35.156  -6.919 -11.366  0.00  0.00     0.274 HD
HETATM   17  H           1     -35.194  -5.539 -12.368  0.00  0.00     0.274 HD
HETATM   18  H           1     -34.083  -6.796 -12.686  0.00  0.00     0.274 HD
ENDBRANCH  14  15
ENDBRANCH  13  14
ENDBRANCH  12  13
ENDBRANCH  11  12
ENDBRANCH   1  11
BRANCH   1  19
HETATM   19  N           1     -35.543  -1.031 -10.332  0.00  0.00    -0.067 N 
HETATM   20  H           1     -35.832  -0.027 -10.310  0.00  0.00     0.275 HD
HETATM   21  H           1     -34.881  -1.221  -9.546  0.00  0.00     0.275 HD
HETATM   22  H           1     -36.387  -1.638 -10.230  0.00  0.00     0.275 HD
ENDBRANCH   1  19
TORSDOF 9
ENDMDL
MODEL 3
REMARK VINA RESULT:      -6.2      2.332      3.120
REMARK  9 active torsions:
REMARK  status: ('A' for Active; 'I' for Inactive)
REMARK    1  A    between atoms: C_2  and  C_12 
REMARK    2  A    between atoms: C_2  and  N_3 
REMARK    3  A    between atoms: N_6  and  C_16 
REMARK       I    between atoms: N_6  and  C_7 
REMARK    4  A    between atoms: C_7  and  C_8 
REMARK    5  A    between atoms: C_8  and  C_13 
REMARK    6  A    between atoms: C_8  and  N_19 
REMARK    7  A    between atoms: C_9  and  C_16 
REMARK    8  A    between atoms: C_12  and  C_21 
REMARK    9  A    between atoms: C_13  and  C_21 
ROOT
HETATM    1  C           1     -34.061  -4.024 -11.953  0.00  0.00     0.274 C 
ENDROOT
BRANCH   1   2
HETATM    2  C           1     -34.173  -2.534 -11.746  0.00  0.00     0.249 C 
HETATM    3  N           1     -35.013  -1.793 -12.534  0.00  0.00    -0.345 N 
HETATM    4  H           1     -35.560  -2.246 -13.255  0.00  0.00     0.163 HD
HETATM    5  O           1     -33.520  -1.992 -10.884  0.00  0.00    -0.271 OA
BRANCH   3   6
HETATM    6  C           1     -35.121  -0.362 -12.334  0.00  0.00     0.181 C 
HETATM    7  C           1     -35.022   0.346 -13.679  0.00  0.00     0.043 C 
BRANCH   6   8
HETATM    8  C           1     -36.448  -0.042 -11.693  0.00  0.00     0.196 C 
HETATM    9  O           1     -36.488   0.615 -10.630  0.00  0.00    -0.646 OA
HETATM   10  O           1     -37.510  -0.434 -12.225  0.00  0.00    -0.646 OA
ENDBRANCH   6   8
ENDBRANCH   3   6
ENDBRANCH   1   2
BRANCH   1  11
HETATM   11  C           1     -34.049  -4.726 -10.601  0.00  0.00     0.042 C 
BRANCH  11  12
HETATM   12  C           1     -33.705  -6.197 -10.797  0.00  0.00     0.004 C 
BRANCH  12  13
HETATM   13  C           1     -34.892  -7.056 -10.378  0.00  0.00     0.027 C 
BRANCH  13  14
HETATM   14  C           1     -34.395  -8.253  -9.577  0.00  0.00     0.229 C 
BRANCH  14  15
HETATM   15  N           1     -33.414  -9.034 -10.401  0.00  0.00    -0.079 N 
HETATM   16  H           1     -32.920  -8.389 -11.058  0.00  0.00     0.274 HD
HETATM   17  H           1     -32.717  -9.490  -9.770  0.00  0.00     0.274 HD
HETATM   18  H           1     -33.923  -9.765 -10.947  0.00  0.00     0.274 HD
ENDBRANCH  14  15
ENDBRANCH  13  14
ENDBRANCH  12  13
ENDBRANCH  11  12
ENDBRANCH   1  11
BRANCH   1  19
HETATM   19  N           1     -32.789  -4.331 -12.686  0.00  0.00    -0.067 N 
HETATM   20  H           1     -32.554  -5.343 -12.566  0.00  0.00     0.275 HD
HETATM   21  H           1     -32.014  -3.745 -12.301  0.00  0.00     0.275 HD
HETATM   22  H           1     -32.912  -4.121 -13.702  0.00  0.00     0.275 HD
ENDBRANCH   1  19
TORSDOF 9
ENDMDL
MODEL 4
REMARK VINA RESULT:      -5.9      1.711      2.113
REMARK  9 active torsions:
REMARK  status: ('A' for Active; 'I' for Inactive)
REMARK    1  A    between atoms: C_2  and  C_12 
REMARK    2  A    between atoms: C_2  and  N_3 
REMARK    3  A    between atoms: N_6  and  C_16 
REMARK       I    between atoms: N_6  and  C_7 
REMARK    4  A    between atoms: C_7  and  C_8 
REMARK    5  A    between atoms: C_8  and  C_13 
REMARK    6  A    between atoms: C_8  and  N_19 
REMARK    7  A    between atoms: C_9  and  C_16 
REMARK    8  A    between atoms: C_12  and  C_21 
REMARK    9  A    between atoms: C_13  and  C_21 
ROOT
HETATM    1  C           1     -33.406  -3.171 -11.521  0.00  0.00     0.274 C 
ENDROOT
BRANCH   1   2
HETATM    2  C           1     -34.319  -2.582 -12.568  0.00  0.00     0.249 C 
HETATM    3  N           1     -34.959  -1.395 -12.330  0.00  0.00    -0.345 N 
HETATM    4  H           1     -34.819  -0.912 -11.452  0.00  0.00     0.163 HD
HETATM    5  O           1     -34.486  -3.158 -13.617  0.00  0.00    -0.271 OA
BRANCH   3   6
HETATM    6  C           1     -35.836  -0.829 -13.336  0.00  0.00     0.181 C 
HETATM    7  C           1     -37.004  -0.130 -12.655  0.00  0.00     0.043 C 
BRANCH   6   8
HETATM    8  C           1     -35.068   0.167 -14.169  0.00  0.00     0.196 C 
HETATM    9  O           1     -34.752  -0.112 -15.345  0.00  0.00    -0.646 OA
HETATM   10  O           1     -34.748   1.274 -13.682  0.00  0.00    -0.646 OA
ENDBRANCH   6   8
ENDBRANCH   3   6
ENDBRANCH   1   2
BRANCH   1  11
HETATM   11  C           1     -33.349  -4.684 -11.687  0.00  0.00     0.042 C 
BRANCH  11  12
HETATM   12  C           1     -34.622  -5.304 -11.124  0.00  0.00     0.004 C 
BRANCH  12  13
HETATM   13  C           1     -34.260  -6.299 -10.028  0.00  0.00     0.027 C 
BRANCH  13  14
HETATM   14  C           1     -34.768  -7.683 -10.410  0.00  0.00     0.229 C 
BRANCH  14  15
HETATM   15  N           1     -33.649  -8.676 -10.292  0.00  0.00    -0.079 N 
HETATM   16  H           1     -34.044  -9.621 -10.085  0.00  0.00     0.274 HD
HETATM   17  H           1     -33.118  -8.709 -11.190  0.00  0.00     0.274 HD
HETATM   18  H           1     -33.010  -8.389  -9.517  0.00  0.00     0.274 HD
ENDBRANCH  14  15
ENDBRANCH  13  14
ENDBRANCH  12  13
ENDBRANCH  11  12
ENDBRANCH   1  11
BRANCH   1  19
HETATM   19  N           1     -33.931  -2.838 -10.157  0.00  0.00    -0.067 N 
HETATM   20  H           1     -33.395  -3.374  -9.437  0.00  0.00     0.275 HD
HETATM   21  H           1     -34.942  -3.093 -10.100  0.00  0.00     0.275 HD
HETATM   22  H           1     -33.821  -1.814  -9.981  0.00  0.00     0.275 HD
ENDBRANCH   1  19
TORSDOF 9
ENDMDL
MODEL 5
REMARK VINA RESULT:      -5.8     13.407     14.595
REMARK  9 active torsions:
REMARK  status: ('A' for Active; 'I' for Inactive)
REMARK    1  A    between atoms: C_2  and  C_12 
REMARK    2  A    between atoms: C_2  and  N_3 
REMARK    3  A    between atoms: N_6  and  C_16 
REMARK       I    between atoms: N_6  and  C_7 
REMARK    4  A    between atoms: C_7  and  C_8 
REMARK    5  A    between atoms: C_8  and  C_13 
REMARK    6  A    between atoms: C_8  and  N_19 
REMARK    7  A    between atoms: C_9  and  C_16 
REMARK    8  A    between atoms: C_12  and  C_21 
REMARK    9  A    between atoms: C_13  and  C_21 
ROOT
HETATM    1  C           1     -21.104  -5.842  -6.845  0.00  0.00     0.274 C 
ENDROOT
BRANCH   1   2
HETATM    2  C           1     -21.632  -4.628  -7.568  0.00  0.00     0.249 C 
HETATM    3  N           1     -22.291  -4.771  -8.759  0.00  0.00    -0.345 N 
HETATM    4  H           1     -22.423  -5.692  -9.156  0.00  0.00     0.163 HD
HETATM    5  O           1     -21.474  -3.527  -7.093  0.00  0.00    -0.271 OA
BRANCH   3   6
HETATM    6  C           1     -22.798  -3.603  -9.452  0.00  0.00     0.181 C 
HETATM    7  C           1     -22.086  -3.459 -10.790  0.00  0.00     0.043 C 
BRANCH   6   8
HETATM    8  C           1     -24.280  -3.761  -9.684  0.00  0.00     0.196 C 
HETATM    9  O           1     -25.041  -2.778  -9.561  0.00  0.00    -0.646 OA
HETATM   10  O           1     -24.748  -4.877 -10.000  0.00  0.00    -0.646 OA
ENDBRANCH   6   8
ENDBRANCH   3   6
ENDBRANCH   1   2
BRANCH   1  11
HETATM   11  C           1     -20.939  -5.524  -5.365  0.00  0.00     0.042 C 
BRANCH  11  12
HETATM   12  C           1     -21.866  -6.416  -4.548  0.00  0.00     0.004 C 
BRANCH  12  13
HETATM   13  C           1     -21.038  -7.270  -3.596  0.00  0.00     0.027 C 
BRANCH  13  14
HETATM   14  C           1     -21.616  -7.171  -2.191  0.00  0.00     0.229 C 
BRANCH  14  15
HETATM   15  N           1     -22.341  -5.865  -2.039  0.00  0.00    -0.079 N 
HETATM   16  H           1     -22.410  -5.396  -2.969  0.00  0.00     0.274 HD
HETATM   17  H           1     -23.300  -6.043  -1.666  0.00  0.00     0.274 HD
HETATM   18  H           1     -21.816  -5.251  -1.377  0.00  0.00     0.274 HD
ENDBRANCH  14  15
ENDBRANCH  13  14
ENDBRANCH  12  13
ENDBRANCH  11  12
ENDBRANCH   1  11
BRANCH   1  19
HETATM   19  N           1     -19.774  -6.227  -7.423  0.00  0.00    -0.067 N 
HETATM   20  H           1     -19.868  -6.356  -8.456  0.00  0.00     0.275 HD
HETATM   21  H           1     -19.451  -7.121  -6.988  0.00  0.00     0.275 HD
HETATM   22  H           1     -19.077  -5.474  -7.228  0.00  0.00     0.275 HD
ENDBRANCH   1  19
TORSDOF 9
ENDMDL
MODEL 6
REMARK VINA RESULT:      -5.8      2.519      6.007
REMARK  9 active torsions:
REMARK  status: ('A' for Active; 'I' for Inactive)
REMARK    1  A    between atoms: C_2  and  C_12 
REMARK    2  A    between atoms: C_2  and  N_3 
REMARK    3  A    between atoms: N_6  and  C_16 
REMARK       I    between atoms: N_6  and  C_7 
REMARK    4  A    between atoms: C_7  and  C_8 
REMARK    5  A    between atoms: C_8  and  C_13 
REMARK    6  A    between atoms: C_8  and  N_19 
REMARK    7  A    between atoms: C_9  and  C_16 
REMARK    8  A    between atoms: C_12  and  C_21 
REMARK    9  A    between atoms: C_13  and  C_21 
ROOT
HETATM    1  C           1     -36.276  -0.658 -12.454  0.00  0.00     0.274 C 
ENDROOT
BRANCH   1   2
HETATM    2  C           1     -35.349  -1.755 -12.912  0.00  0.00     0.249 C 
HETATM    3  N           1     -34.921  -2.707 -12.025  0.00  0.00    -0.345 N 
HETATM    4  H           1     -35.227  -2.673 -11.061  0.00  0.00     0.163 HD
HETATM    5  O           1     -34.982  -1.796 -14.064  0.00  0.00    -0.271 OA
BRANCH   3   6
HETATM    6  C           1     -34.030  -3.761 -12.466  0.00  0.00     0.181 C 
HETATM    7  C           1     -32.748  -3.718 -11.645  0.00  0.00     0.043 C 
BRANCH   6   8
HETATM    8  C           1     -34.703  -5.099 -12.279  0.00  0.00     0.196 C 
HETATM    9  O           1     -35.277  -5.650 -13.243  0.00  0.00    -0.646 OA
HETATM   10  O           1     -34.688  -5.655 -11.160  0.00  0.00    -0.646 OA
ENDBRANCH   6   8
ENDBRANCH   3   6
ENDBRANCH   1   2
BRANCH   1  11
HETATM   11  C           1     -36.595   0.262 -13.626  0.00  0.00     0.042 C 
BRANCH  11  12
HETATM   12  C           1     -38.000  -0.032 -14.136  0.00  0.00     0.004 C 
BRANCH  12  13
HETATM   13  C           1     -38.067   0.251 -15.631  0.00  0.00     0.027 C 
BRANCH  13  14
HETATM   14  C           1     -37.601  -0.977 -16.402  0.00  0.00     0.229 C 
BRANCH  14  15
HETATM   15  N           1     -36.260  -0.703 -17.017  0.00  0.00    -0.079 N 
HETATM   16  H           1     -36.135  -1.304 -17.861  0.00  0.00     0.274 HD
HETATM   17  H           1     -36.204   0.303 -17.293  0.00  0.00     0.274 HD
HETATM   18  H           1     -35.509  -0.917 -16.322  0.00  0.00     0.274 HD
ENDBRANCH  14  15
ENDBRANCH  13  14
ENDBRANCH  12  13
ENDBRANCH  11  12
ENDBRANCH   1  11
BRANCH   1  19
HETATM   19  N           1     -35.615   0.133 -11.365  0.00  0.00    -0.067 N 
HETATM   20  H           1     -36.337   0.679 -10.842  0.00  0.00     0.275 HD
HETATM   21  H           1     -34.917   0.788 -11.784  0.00  0.00     0.275 HD
HETATM   22  H           1     -35.128  -0.518 -10.708  0.00  0.00     0.275 HD
ENDBRANCH   1  19
TORSDOF 9
ENDMDL
MODEL 7
REMARK VINA RESULT:      -5.8      2.476      3.742
REMARK  9 active torsions:
REMARK  status: ('A' for Active; 'I' for Inactive)
REMARK    1  A    between atoms: C_2  and  C_12 
REMARK    2  A    between atoms: C_2  and  N_3 
REMARK    3  A    between atoms: N_6  and  C_16 
REMARK       I    between atoms: N_6  and  C_7 
REMARK    4  A    between atoms: C_7  and  C_8 
REMARK    5  A    between atoms: C_8  and  C_13 
REMARK    6  A    between atoms: C_8  and  N_19 
REMARK    7  A    between atoms: C_9  and  C_16 
REMARK    8  A    between atoms: C_12  and  C_21 
REMARK    9  A    between atoms: C_13  and  C_21 
ROOT
HETATM    1  C           1     -34.278  -3.026 -12.093  0.00  0.00     0.274 C 
ENDROOT
BRANCH   1   2
HETATM    2  C           1     -35.001  -1.708 -12.215  0.00  0.00     0.249 C 
HETATM    3  N           1     -35.904  -1.329 -11.258  0.00  0.00    -0.345 N 
HETATM    4  H           1     -36.087  -1.934 -10.468  0.00  0.00     0.163 HD
HETATM    5  O           1     -34.783  -0.985 -13.159  0.00  0.00    -0.271 OA
BRANCH   3   6
HETATM    6  C           1     -36.598  -0.062 -11.376  0.00  0.00     0.181 C 
HETATM    7  C           1     -37.885  -0.261 -12.164  0.00  0.00     0.043 C 
BRANCH   6   8
HETATM    8  C           1     -36.925   0.462 -10.000  0.00  0.00     0.196 C 
HETATM    9  O           1     -36.239   0.109  -9.016  0.00  0.00    -0.646 OA
HETATM   10  O           1     -37.883   1.250  -9.842  0.00  0.00    -0.646 OA
ENDBRANCH   6   8
ENDBRANCH   3   6
ENDBRANCH   1   2
BRANCH   1  11
HETATM   11  C           1     -35.166  -4.029 -11.368  0.00  0.00     0.042 C 
BRANCH  11  12
HETATM   12  C           1     -34.322  -4.843 -10.394  0.00  0.00     0.004 C 
BRANCH  12  13
HETATM   13  C           1     -34.078  -6.231 -10.970  0.00  0.00     0.027 C 
BRANCH  13  14
HETATM   14  C           1     -34.747  -7.274 -10.085  0.00  0.00     0.229 C 
BRANCH  14  15
HETATM   15  N           1     -34.022  -8.581 -10.216  0.00  0.00    -0.079 N 
HETATM   16  H           1     -33.428  -8.565 -11.074  0.00  0.00     0.274 HD
HETATM   17  H           1     -33.418  -8.729  -9.376  0.00  0.00     0.274 HD
HETATM   18  H           1     -34.717  -9.359 -10.288  0.00  0.00     0.274 HD
ENDBRANCH  14  15
ENDBRANCH  13  14
ENDBRANCH  12  13
ENDBRANCH  11  12
ENDBRANCH   1  11
BRANCH   1  19
HETATM   19  N           1     -33.010  -2.830 -11.317  0.00  0.00    -0.067 N 
HETATM   20  H           1     -33.234  -2.736 -10.300  0.00  0.00     0.275 HD
HETATM   21  H           1     -32.529  -1.964 -11.649  0.00  0.00     0.275 HD
HETATM   22  H           1     -32.382  -3.652 -11.460  0.00  0.00     0.275 HD
ENDBRANCH   1  19
TORSDOF 9
ENDMDL
MODEL 8
REMARK VINA RESULT:      -5.8      2.787      6.042
REMARK  9 active torsions:
REMARK  status: ('A' for Active; 'I' for Inactive)
REMARK    1  A    between atoms: C_2  and  C_12 
REMARK    2  A    between atoms: C_2  and  N_3 
REMARK    3  A    between atoms: N_6  and  C_16 
REMARK       I    between atoms: N_6  and  C_7 
REMARK    4  A    between atoms: C_7  and  C_8 
REMARK    5  A    between atoms: C_8  and  C_13 
REMARK    6  A    between atoms: C_8  and  N_19 
REMARK    7  A    between atoms: C_9  and  C_16 
REMARK    8  A    between atoms: C_12  and  C_21 
REMARK    9  A    between atoms: C_13  and  C_21 
ROOT
HETATM    1  C           1     -36.385  -0.890 -11.195  0.00  0.00     0.274 C 
ENDROOT
BRANCH   1   2
HETATM    2  C           1     -35.240  -1.810 -10.851  0.00  0.00     0.249 C 
HETATM    3  N           1     -35.159  -3.049 -11.428  0.00  0.00    -0.345 N 
HETATM    4  H           1     -35.868  -3.349 -12.085  0.00  0.00     0.163 HD
HETATM    5  O           1     -34.392  -1.453 -10.066  0.00  0.00    -0.271 OA
BRANCH   3   6
HETATM    6  C           1     -34.058  -3.932 -11.098  0.00  0.00     0.181 C 
HETATM    7  C           1     -34.606  -5.280 -10.648  0.00  0.00     0.043 C 
BRANCH   6   8
HETATM    8  C           1     -33.185  -4.123 -12.313  0.00  0.00     0.196 C 
HETATM    9  O           1     -33.617  -3.823 -13.447  0.00  0.00    -0.646 OA
HETATM   10  O           1     -32.028  -4.581 -12.186  0.00  0.00    -0.646 OA
ENDBRANCH   6   8
ENDBRANCH   3   6
ENDBRANCH   1   2
BRANCH   1  11
HETATM   11  C           1     -36.261  -0.442 -12.645  0.00  0.00     0.042 C 
BRANCH  11  12
HETATM   12  C           1     -34.983   0.369 -12.819  0.00  0.00     0.004 C 
BRANCH  12  13
HETATM   13  C           1     -34.976   1.017 -14.197  0.00  0.00     0.027 C 
BRANCH  13  14
HETATM   14  C           1     -36.096   0.425 -15.043  0.00  0.00     0.229 C 
BRANCH  14  15
HETATM   15  N           1     -36.643   1.481 -15.958  0.00  0.00    -0.079 N 
HETATM   16  H           1     -36.192   1.395 -16.897  0.00  0.00     0.274 HD
HETATM   17  H           1     -37.676   1.355 -16.055  0.00  0.00     0.274 HD
HETATM   18  H           1     -36.441   2.426 -15.560  0.00  0.00     0.274 HD
ENDBRANCH  14  15
ENDBRANCH  13  14
ENDBRANCH  12  13
ENDBRANCH  11  12
ENDBRANCH   1  11
BRANCH   1  19
HETATM   19  N           1     -36.347   0.310 -10.296  0.00  0.00    -0.067 N 
HETATM   20  H           1     -36.567   0.019  -9.317  0.00  0.00     0.275 HD
HETATM   21  H           1     -37.054   1.009 -10.619  0.00  0.00     0.275 HD
HETATM   22  H           1     -35.395   0.739 -10.326  0.00  0.00     0.275 HD
ENDBRANCH   1  19
TORSDOF 9
ENDMDL
MODEL 9
REMARK VINA RESULT:      -5.7     13.028     14.089
REMARK  9 active torsions:
REMARK  status: ('A' for Active; 'I' for Inactive)
REMARK    1  A    between atoms: C_2  and  C_12 
REMARK    2  A    between atoms: C_2  and  N_3 
REMARK    3  A    between atoms: N_6  and  C_16 
REMARK       I    between atoms: N_6  and  C_7 
REMARK    4  A    between atoms: C_7  and  C_8 
REMARK    5  A    between atoms: C_8  and  C_13 
REMARK    6  A    between atoms: C_8  and  N_19 
REMARK    7  A    between atoms: C_9  and  C_16 
REMARK    8  A    between atoms: C_12  and  C_21 
REMARK    9  A    between atoms: C_13  and  C_21 
ROOT
HETATM    1  C           1     -22.062  -4.385  -7.177  0.00  0.00     0.274 C 
ENDROOT
BRANCH   1   2
HETATM    2  C           1     -21.645  -3.952  -8.560  0.00  0.00     0.249 C 
HETATM    3  N           1     -22.589  -3.758  -9.532  0.00  0.00    -0.345 N 
HETATM    4  H           1     -23.568  -3.906  -9.323  0.00  0.00     0.163 HD
HETATM    5  O           1     -20.475  -3.775  -8.810  0.00  0.00    -0.271 OA
BRANCH   3   6
HETATM    6  C           1     -22.187  -3.341 -10.861  0.00  0.00     0.181 C 
HETATM    7  C           1     -21.538  -4.514 -11.585  0.00  0.00     0.043 C 
BRANCH   6   8
HETATM    8  C           1     -23.399  -2.881 -11.632  0.00  0.00     0.196 C 
HETATM    9  O           1     -24.534  -2.955 -11.114  0.00  0.00    -0.646 OA
HETATM   10  O           1     -23.268  -2.426 -12.789  0.00  0.00    -0.646 OA
ENDBRANCH   6   8
ENDBRANCH   3   6
ENDBRANCH   1   2
BRANCH   1  11
HETATM   11  C           1     -21.439  -5.738  -6.856  0.00  0.00     0.042 C 
BRANCH  11  12
HETATM   12  C           1     -20.866  -5.712  -5.445  0.00  0.00     0.004 C 
BRANCH  12  13
HETATM   13  C           1     -21.839  -6.391  -4.489  0.00  0.00     0.027 C 
BRANCH  13  14
HETATM   14  C           1     -21.309  -6.286  -3.065  0.00  0.00     0.229 C 
BRANCH  14  15
HETATM   15  N           1     -22.432  -5.922  -2.139  0.00  0.00    -0.079 N 
HETATM   16  H           1     -22.044  -5.464  -1.284  0.00  0.00     0.274 HD
HETATM   17  H           1     -23.081  -5.262  -2.623  0.00  0.00     0.274 HD
HETATM   18  H           1     -22.952  -6.786  -1.866  0.00  0.00     0.274 HD
ENDBRANCH  14  15
ENDBRANCH  13  14
ENDBRANCH  12  13
ENDBRANCH  11  12
ENDBRANCH   1  11
BRANCH   1  19
HETATM   19  N           1     -23.556  -4.498  -7.119  0.00  0.00    -0.067 N 
HETATM   20  H           1     -23.944  -3.703  -6.561  0.00  0.00     0.275 HD
HETATM   21  H           1     -23.820  -5.402  -6.667  0.00  0.00     0.275 HD
HETATM   22  H           1     -23.947  -4.466  -8.087  0.00  0.00     0.275 HD
ENDBRANCH   1  19
TORSDOF 9
ENDMDL
