MODEL 1
REMARK VINA RESULT:      -6.4      0.000      0.000
REMARK  9 active torsions:
REMARK  status: ('A' for Active; 'I' for Inactive)
REMARK    1  A    between atoms: C_2  and  C_19 
REMARK    2  A    between atoms: N_5  and  C_7 
REMARK       I    between atoms: N_5  and  C_15 
REMARK    3  A    between atoms: O_6  and  C_12 
REMARK    4  A    between atoms: C_7  and  C_14 
REMARK    5  A    between atoms: C_7  and  C_18 
REMARK    6  A    between atoms: N_11  and  C_13 
REMARK    7  A    between atoms: C_12  and  C_13 
REMARK    8  A    between atoms: C_13  and  C_15 
REMARK    9  A    between atoms: C_14  and  C_19 
ROOT
HETATM    1  N           1     -34.747  -1.902 -12.792  0.00  0.00    -0.345 N 
HETATM    2  O           1     -33.350  -2.346 -11.107  0.00  0.00    -0.271 OA
HETATM    3  C           1     -33.935  -2.748 -12.084  0.00  0.00     0.251 C 
HETATM    4  H           1     -35.238  -2.238 -13.610  0.00  0.00     0.163 HD
ENDROOT
BRANCH   1   5
HETATM    5  C           1     -34.905  -0.524 -12.367  0.00  0.00     0.186 C 
BRANCH   5   6
HETATM    6  C           1     -35.093   0.364 -13.589  0.00  0.00     0.046 C 
BRANCH   6   7
HETATM    7  C           1     -36.339  -0.072 -14.347  0.00  0.00     0.116 C 
BRANCH   7   8
HETATM    8  C           1     -35.943  -0.608 -15.701  0.00  0.00     0.172 C 
HETATM    9  O           1     -36.354  -0.048 -16.741  0.00  0.00    -0.648 OA
HETATM   10  O           1     -35.203  -1.613 -15.784  0.00  0.00    -0.648 OA
ENDBRANCH   7   8
ENDBRANCH   6   7
ENDBRANCH   5   6
BRANCH   5  11
HETATM   11  C           1     -36.113  -0.411 -11.470  0.00  0.00     0.196 C 
HETATM   12  O           1     -36.927  -1.357 -11.396  0.00  0.00    -0.646 OA
HETATM   13  O           1     -36.301   0.628 -10.802  0.00  0.00    -0.646 OA
ENDBRANCH   5  11
ENDBRANCH   1   5
BRANCH   3  14
HETATM   14  C           1     -33.771  -4.181 -12.526  0.00  0.00     0.302 C 
BRANCH  14  15
HETATM   15  N           1     -32.387  -4.651 -12.191  0.00  0.00    -0.064 N 
HETATM   16  H           1     -31.909  -4.978 -13.061  0.00  0.00     0.275 HD
HETATM   17  H           1     -31.843  -3.864 -11.771  0.00  0.00     0.275 HD
HETATM   18  H           1     -32.443  -5.441 -11.508  0.00  0.00     0.275 HD
ENDBRANCH  14  15
BRANCH  14  19
HETATM   19  C           1     -34.791  -5.054 -11.807  0.00  0.00     0.153 C 
HETATM   20  C           1     -34.079  -5.931 -10.786  0.00  0.00     0.042 C 
BRANCH  19  21
HETATM   21  O           1     -35.725  -4.239 -11.151  0.00  0.00    -0.393 OA
HETATM   22  H           1     -35.263  -3.796 -10.459  0.00  0.00     0.210 HD
ENDBRANCH  19  21
ENDBRANCH  14  19
ENDBRANCH   3  14
TORSDOF 9
ENDMDL
MODEL 2
REMARK VINA RESULT:      -6.2     11.544     13.186
REMARK  9 active torsions:
REMARK  status: ('A' for Active; 'I' for Inactive)
REMARK    1  A    between atoms: C_2  and  C_19 
REMARK    2  A    between atoms: N_5  and  C_7 
REMARK       I    between atoms: N_5  and  C_15 
REMARK    3  A    between atoms: O_6  and  C_12 
REMARK    4  A    between atoms: C_7  and  C_14 
REMARK    5  A    between atoms: C_7  and  C_18 
REMARK    6  A    between atoms: N_11  and  C_13 
REMARK    7  A    between atoms: C_12  and  C_13 
REMARK    8  A    between atoms: C_13  and  C_15 
REMARK    9  A    between atoms: C_14  and  C_19 
ROOT
HETATM    1  N           1     -22.102  -4.768  -9.311  0.00  0.00    -0.345 N 
HETATM    2  O           1     -21.473  -3.261  -7.788  0.00  0.00    -0.271 OA
HETATM    3  C           1     -21.463  -4.412  -8.152  0.00  0.00     0.251 C 
HETATM    4  H           1     -22.095  -5.733  -9.617  0.00  0.00     0.163 HD
ENDROOT
BRANCH   1   5
HETATM    5  C           1     -22.790  -3.762 -10.098  0.00  0.00     0.186 C 
BRANCH   5   6
HETATM    6  C           1     -22.539  -4.019 -11.578  0.00  0.00     0.046 C 
BRANCH   6   7
HETATM    7  C           1     -22.706  -2.720 -12.355  0.00  0.00     0.116 C 
BRANCH   7   8
HETATM    8  C           1     -23.769  -2.899 -13.412  0.00  0.00     0.172 C 
HETATM    9  O           1     -24.976  -2.925 -13.087  0.00  0.00    -0.648 OA
HETATM   10  O           1     -23.442  -3.020 -14.612  0.00  0.00    -0.648 OA
ENDBRANCH   7   8
ENDBRANCH   6   7
ENDBRANCH   5   6
BRANCH   5  11
HETATM   11  C           1     -24.271  -3.832  -9.818  0.00  0.00     0.196 C 
HETATM   12  O           1     -24.866  -4.930  -9.872  0.00  0.00    -0.646 OA
HETATM   13  O           1     -24.903  -2.793  -9.533  0.00  0.00    -0.646 OA
ENDBRANCH   5  11
ENDBRANCH   1   5
BRANCH   3  14
HETATM   14  C           1     -20.749  -5.458  -7.334  0.00  0.00     0.302 C 
BRANCH  14  15
HETATM   15  N           1     -19.480  -4.879  -6.783  0.00  0.00    -0.064 N 
HETATM   16  H           1     -18.816  -5.652  -6.548  0.00  0.00     0.275 HD
HETATM   17  H           1     -19.044  -4.252  -7.496  0.00  0.00     0.275 HD
HETATM   18  H           1     -19.693  -4.331  -5.919  0.00  0.00     0.275 HD
ENDBRANCH  14  15
BRANCH  14  19
HETATM   19  C           1     -21.644  -5.903  -6.184  0.00  0.00     0.153 C 
HETATM   20  C           1     -20.929  -5.662  -4.862  0.00  0.00     0.042 C 
BRANCH  19  21
HETATM   21  O           1     -22.838  -5.167  -6.210  0.00  0.00    -0.393 OA
HETATM   22  H           1     -23.543  -5.788  -6.137  0.00  0.00     0.210 HD
ENDBRANCH  19  21
ENDBRANCH  14  19
ENDBRANCH   3  14
TORSDOF 9
ENDMDL
MODEL 3
REMARK VINA RESULT:      -5.8      1.814      5.407
REMARK  9 active torsions:
REMARK  status: ('A' for Active; 'I' for Inactive)
REMARK    1  A    between atoms: C_2  and  C_19 
REMARK    2  A    between atoms: N_5  and  C_7 
REMARK       I    between atoms: N_5  and  C_15 
REMARK    3  A    between atoms: O_6  and  C_12 
REMARK    4  A    between atoms: C_7  and  C_14 
REMARK    5  A    between atoms: C_7  and  C_18 
REMARK    6  A    between atoms: N_11  and  C_13 
REMARK    7  A    between atoms: C_12  and  C_13 
REMARK    8  A    between atoms: C_13  and  C_15 
REMARK    9  A    between atoms: C_14  and  C_19 
ROOT
HETATM    1  N           1     -34.844  -1.597 -13.288  0.00  0.00    -0.345 N 
HETATM    2  O           1     -36.935  -0.956 -12.837  0.00  0.00    -0.271 OA
HETATM    3  C           1     -35.937  -0.799 -13.499  0.00  0.00     0.251 C 
HETATM    4  H           1     -34.008  -1.466 -13.842  0.00  0.00     0.163 HD
ENDROOT
BRANCH   1   5
HETATM    5  C           1     -34.885  -2.629 -12.269  0.00  0.00     0.186 C 
BRANCH   5   6
HETATM    6  C           1     -34.173  -3.874 -12.781  0.00  0.00     0.046 C 
BRANCH   6   7
HETATM    7  C           1     -34.895  -5.116 -12.274  0.00  0.00     0.116 C 
BRANCH   7   8
HETATM    8  C           1     -34.055  -5.789 -11.216  0.00  0.00     0.172 C 
HETATM    9  O           1     -34.606  -6.427 -10.293  0.00  0.00    -0.648 OA
HETATM   10  O           1     -32.808  -5.709 -11.263  0.00  0.00    -0.648 OA
ENDBRANCH   7   8
ENDBRANCH   6   7
ENDBRANCH   5   6
BRANCH   5  11
HETATM   11  C           1     -34.196  -2.131 -11.023  0.00  0.00     0.196 C 
HETATM   12  O           1     -32.985  -2.380 -10.836  0.00  0.00    -0.646 OA
HETATM   13  O           1     -34.835  -1.470 -10.176  0.00  0.00    -0.646 OA
ENDBRANCH   5  11
ENDBRANCH   1   5
BRANCH   3  14
HETATM   14  C           1     -35.895   0.274 -14.558  0.00  0.00     0.302 C 
BRANCH  14  15
HETATM   15  N           1     -34.467   0.563 -14.918  0.00  0.00    -0.064 N 
HETATM   16  H           1     -34.275   1.583 -14.794  0.00  0.00     0.275 HD
HETATM   17  H           1     -33.833   0.012 -14.297  0.00  0.00     0.275 HD
HETATM   18  H           1     -34.299   0.296 -15.914  0.00  0.00     0.275 HD
ENDBRANCH  14  15
BRANCH  14  19
HETATM   19  C           1     -36.644  -0.202 -15.795  0.00  0.00     0.153 C 
HETATM   20  C           1     -35.732  -1.094 -16.628  0.00  0.00     0.042 C 
BRANCH  19  21
HETATM   21  O           1     -37.777  -0.930 -15.404  0.00  0.00    -0.393 OA
HETATM   22  H           1     -37.911  -0.756 -14.488  0.00  0.00     0.210 HD
ENDBRANCH  19  21
ENDBRANCH  14  19
ENDBRANCH   3  14
TORSDOF 9
ENDMDL
MODEL 4
REMARK VINA RESULT:      -5.7      1.558      3.667
REMARK  9 active torsions:
REMARK  status: ('A' for Active; 'I' for Inactive)
REMARK    1  A    between atoms: C_2  and  C_19 
REMARK    2  A    between atoms: N_5  and  C_7 
REMARK       I    between atoms: N_5  and  C_15 
REMARK    3  A    between atoms: O_6  and  C_12 
REMARK    4  A    between atoms: C_7  and  C_14 
REMARK    5  A    between atoms: C_7  and  C_18 
REMARK    6  A    between atoms: N_11  and  C_13 
REMARK    7  A    between atoms: C_12  and  C_13 
REMARK    8  A    between atoms: C_13  and  C_15 
REMARK    9  A    between atoms: C_14  and  C_19 
ROOT
HETATM    1  N           1     -34.710  -1.361 -13.010  0.00  0.00    -0.345 N 
HETATM    2  O           1     -35.734  -3.116 -12.083  0.00  0.00    -0.271 OA
HETATM    3  C           1     -34.722  -2.467 -12.202  0.00  0.00     0.251 C 
HETATM    4  H           1     -33.863  -0.817 -13.111  0.00  0.00     0.163 HD
ENDROOT
BRANCH   1   5
HETATM    5  C           1     -35.912  -0.970 -13.722  0.00  0.00     0.186 C 
BRANCH   5   6
HETATM    6  C           1     -36.516   0.260 -13.059  0.00  0.00     0.046 C 
BRANCH   6   7
HETATM    7  C           1     -37.571  -0.173 -12.049  0.00  0.00     0.116 C 
BRANCH   7   8
HETATM    8  C           1     -37.147   0.250 -10.664  0.00  0.00     0.172 C 
HETATM    9  O           1     -36.079  -0.181 -10.178  0.00  0.00    -0.648 OA
HETATM   10  O           1     -37.864   1.032 -10.002  0.00  0.00    -0.648 OA
ENDBRANCH   7   8
ENDBRANCH   6   7
ENDBRANCH   5   6
BRANCH   5  11
HETATM   11  C           1     -35.564  -0.650 -15.155  0.00  0.00     0.196 C 
HETATM   12  O           1     -36.268  -1.101 -16.085  0.00  0.00    -0.646 OA
HETATM   13  O           1     -34.573   0.066 -15.414  0.00  0.00    -0.646 OA
ENDBRANCH   5  11
ENDBRANCH   1   5
BRANCH   3  14
HETATM   14  C           1     -33.473  -2.874 -11.462  0.00  0.00     0.302 C 
BRANCH  14  15
HETATM   15  N           1     -33.822  -3.216 -10.044  0.00  0.00    -0.064 N 
HETATM   16  H           1     -34.429  -2.465  -9.642  0.00  0.00     0.275 HD
HETATM   17  H           1     -34.336  -4.126 -10.022  0.00  0.00     0.275 HD
HETATM   18  H           1     -32.947  -3.295  -9.479  0.00  0.00     0.275 HD
ENDBRANCH  14  15
BRANCH  14  19
HETATM   19  C           1     -32.853  -4.089 -12.140  0.00  0.00     0.153 C 
HETATM   20  C           1     -33.245  -5.349 -11.378  0.00  0.00     0.042 C 
BRANCH  19  21
HETATM   21  O           1     -33.321  -4.177 -13.459  0.00  0.00    -0.393 OA
HETATM   22  H           1     -33.892  -4.926 -13.497  0.00  0.00     0.210 HD
ENDBRANCH  19  21
ENDBRANCH  14  19
ENDBRANCH   3  14
TORSDOF 9
ENDMDL
MODEL 5
REMARK VINA RESULT:      -5.5      8.841     10.438
REMARK  9 active torsions:
REMARK  status: ('A' for Active; 'I' for Inactive)
REMARK    1  A    between atoms: C_2  and  C_19 
REMARK    2  A    between atoms: N_5  and  C_7 
REMARK       I    between atoms: N_5  and  C_15 
REMARK    3  A    between atoms: O_6  and  C_12 
REMARK    4  A    between atoms: C_7  and  C_14 
REMARK    5  A    between atoms: C_7  and  C_18 
REMARK    6  A    between atoms: N_11  and  C_13 
REMARK    7  A    between atoms: C_12  and  C_13 
REMARK    8  A    between atoms: C_13  and  C_15 
REMARK    9  A    between atoms: C_14  and  C_19 
ROOT
HETATM    1  N           1     -27.895  -6.601 -18.652  0.00  0.00    -0.345 N 
HETATM    2  O           1     -26.416  -5.992 -17.093  0.00  0.00    -0.271 OA
HETATM    3  C           1     -26.622  -6.305 -18.241  0.00  0.00     0.251 C 
HETATM    4  H           1     -28.069  -6.863 -19.614  0.00  0.00     0.163 HD
ENDROOT
BRANCH   1   5
HETATM    5  C           1     -28.995  -6.538 -17.708  0.00  0.00     0.186 C 
BRANCH   5   6
HETATM    6  C           1     -29.972  -5.454 -18.140  0.00  0.00     0.046 C 
BRANCH   6   7
HETATM    7  C           1     -31.100  -5.351 -17.121  0.00  0.00     0.116 C 
BRANCH   7   8
HETATM    8  C           1     -31.750  -3.993 -17.224  0.00  0.00     0.172 C 
HETATM    9  O           1     -31.096  -3.018 -17.653  0.00  0.00    -0.648 OA
HETATM   10  O           1     -32.943  -3.842 -16.881  0.00  0.00    -0.648 OA
ENDBRANCH   7   8
ENDBRANCH   6   7
ENDBRANCH   5   6
BRANCH   5  11
HETATM   11  C           1     -29.703  -7.870 -17.673  0.00  0.00     0.196 C 
HETATM   12  O           1     -29.600  -8.606 -16.667  0.00  0.00    -0.646 OA
HETATM   13  O           1     -30.391  -8.239 -18.649  0.00  0.00    -0.646 OA
ENDBRANCH   5  11
ENDBRANCH   1   5
BRANCH   3  14
HETATM   14  C           1     -25.480  -6.370 -19.223  0.00  0.00     0.302 C 
BRANCH  14  15
HETATM   15  N           1     -24.476  -7.382 -18.754  0.00  0.00    -0.064 N 
HETATM   16  H           1     -23.983  -7.018 -17.908  0.00  0.00     0.275 HD
HETATM   17  H           1     -24.967  -8.273 -18.514  0.00  0.00     0.275 HD
HETATM   18  H           1     -23.780  -7.560 -19.513  0.00  0.00     0.275 HD
ENDBRANCH  14  15
BRANCH  14  19
HETATM   19  C           1     -26.008  -6.777 -20.593  0.00  0.00     0.153 C 
HETATM   20  C           1     -24.890  -6.668 -21.621  0.00  0.00     0.042 C 
BRANCH  19  21
HETATM   21  O           1     -26.467  -8.102 -20.542  0.00  0.00    -0.393 OA
HETATM   22  H           1     -27.248  -8.100 -20.016  0.00  0.00     0.210 HD
ENDBRANCH  19  21
ENDBRANCH  14  19
ENDBRANCH   3  14
TORSDOF 9
ENDMDL
MODEL 6
REMARK VINA RESULT:      -5.5      1.882      4.702
REMARK  9 active torsions:
REMARK  status: ('A' for Active; 'I' for Inactive)
REMARK    1  A    between atoms: C_2  and  C_19 
REMARK    2  A    between atoms: N_5  and  C_7 
REMARK       I    between atoms: N_5  and  C_15 
REMARK    3  A    between atoms: O_6  and  C_12 
REMARK    4  A    between atoms: C_7  and  C_14 
REMARK    5  A    between atoms: C_7  and  C_18 
REMARK    6  A    between atoms: N_11  and  C_13 
REMARK    7  A    between atoms: C_12  and  C_13 
REMARK    8  A    between atoms: C_13  and  C_15 
REMARK    9  A    between atoms: C_14  and  C_19 
ROOT
HETATM    1  N           1     -35.052  -0.888 -12.924  0.00  0.00    -0.345 N 
HETATM    2  O           1     -37.155  -1.019 -13.662  0.00  0.00    -0.271 OA
HETATM    3  C           1     -36.055  -0.537 -13.788  0.00  0.00     0.251 C 
HETATM    4  H           1     -34.130  -0.485 -13.028  0.00  0.00     0.163 HD
ENDROOT
BRANCH   1   5
HETATM    5  C           1     -35.312  -1.837 -11.858  0.00  0.00     0.186 C 
BRANCH   5   6
HETATM    6  C           1     -33.993  -2.266 -11.229  0.00  0.00     0.046 C 
BRANCH   6   7
HETATM    7  C           1     -33.872  -3.783 -11.287  0.00  0.00     0.116 C 
BRANCH   7   8
HETATM    8  C           1     -34.270  -4.268 -12.660  0.00  0.00     0.172 C 
HETATM    9  O           1     -33.728  -3.780 -13.676  0.00  0.00    -0.648 OA
HETATM   10  O           1     -35.140  -5.157 -12.781  0.00  0.00    -0.648 OA
ENDBRANCH   7   8
ENDBRANCH   6   7
ENDBRANCH   5   6
BRANCH   5  11
HETATM   11  C           1     -36.183  -1.188 -10.810  0.00  0.00     0.196 C 
HETATM   12  O           1     -37.202  -1.780 -10.392  0.00  0.00    -0.646 OA
HETATM   13  O           1     -35.887  -0.060 -10.360  0.00  0.00    -0.646 OA
ENDBRANCH   5  11
ENDBRANCH   1   5
BRANCH   3  14
HETATM   14  C           1     -35.784   0.450 -14.896  0.00  0.00     0.302 C 
BRANCH  14  15
HETATM   15  N           1     -34.331   0.820 -14.890  0.00  0.00    -0.064 N 
HETATM   16  H           1     -34.116   1.404 -15.731  0.00  0.00     0.275 HD
HETATM   17  H           1     -34.114   1.365 -14.025  0.00  0.00     0.275 HD
HETATM   18  H           1     -33.750  -0.048 -14.912  0.00  0.00     0.275 HD
ENDBRANCH  14  15
BRANCH  14  19
HETATM   19  C           1     -36.142  -0.180 -16.236  0.00  0.00     0.153 C 
HETATM   20  C           1     -35.369  -1.481 -16.407  0.00  0.00     0.042 C 
BRANCH  19  21
HETATM   21  O           1     -37.518  -0.446 -16.276  0.00  0.00    -0.393 OA
HETATM   22  H           1     -37.618  -1.324 -16.602  0.00  0.00     0.210 HD
ENDBRANCH  19  21
ENDBRANCH  14  19
ENDBRANCH   3  14
TORSDOF 9
ENDMDL
MODEL 7
REMARK VINA RESULT:      -5.4      9.462     11.366
REMARK  9 active torsions:
REMARK  status: ('A' for Active; 'I' for Inactive)
REMARK    1  A    between atoms: C_2  and  C_19 
REMARK    2  A    between atoms: N_5  and  C_7 
REMARK       I    between atoms: N_5  and  C_15 
REMARK    3  A    between atoms: O_6  and  C_12 
REMARK    4  A    between atoms: C_7  and  C_14 
REMARK    5  A    between atoms: C_7  and  C_18 
REMARK    6  A    between atoms: N_11  and  C_13 
REMARK    7  A    between atoms: C_12  and  C_13 
REMARK    8  A    between atoms: C_13  and  C_15 
REMARK    9  A    between atoms: C_14  and  C_19 
ROOT
HETATM    1  N           1     -26.322  -6.655 -18.148  0.00  0.00    -0.345 N 
HETATM    2  O           1     -28.029  -5.565 -19.089  0.00  0.00    -0.271 OA
HETATM    3  C           1     -27.040  -6.242 -19.239  0.00  0.00     0.251 C 
HETATM    4  H           1     -25.493  -7.221 -18.272  0.00  0.00     0.163 HD
ENDROOT
BRANCH   1   5
HETATM    5  C           1     -26.750  -6.278 -16.814  0.00  0.00     0.186 C 
BRANCH   5   6
HETATM    6  C           1     -27.900  -7.177 -16.378  0.00  0.00     0.046 C 
BRANCH   6   7
HETATM    7  C           1     -28.942  -6.346 -15.641  0.00  0.00     0.116 C 
BRANCH   7   8
HETATM    8  C           1     -30.145  -6.144 -16.531  0.00  0.00     0.172 C 
HETATM    9  O           1     -30.523  -7.062 -17.290  0.00  0.00    -0.648 OA
HETATM   10  O           1     -30.763  -5.057 -16.508  0.00  0.00    -0.648 OA
ENDBRANCH   7   8
ENDBRANCH   6   7
ENDBRANCH   5   6
BRANCH   5  11
HETATM   11  C           1     -25.596  -6.435 -15.854  0.00  0.00     0.196 C 
HETATM   12  O           1     -24.966  -5.428 -15.465  0.00  0.00    -0.646 OA
HETATM   13  O           1     -25.270  -7.571 -15.448  0.00  0.00    -0.646 OA
ENDBRANCH   5  11
ENDBRANCH   1   5
BRANCH   3  14
HETATM   14  C           1     -26.595  -6.633 -20.626  0.00  0.00     0.302 C 
BRANCH  14  15
HETATM   15  N           1     -25.246  -6.039 -20.903  0.00  0.00    -0.064 N 
HETATM   16  H           1     -25.065  -6.047 -21.933  0.00  0.00     0.275 HD
HETATM   17  H           1     -25.221  -5.054 -20.554  0.00  0.00     0.275 HD
HETATM   18  H           1     -24.511  -6.601 -20.417  0.00  0.00     0.275 HD
ENDBRANCH  14  15
BRANCH  14  19
HETATM   19  C           1     -26.510  -8.151 -20.724  0.00  0.00     0.153 C 
HETATM   20  C           1     -27.864  -8.708 -21.142  0.00  0.00     0.042 C 
BRANCH  19  21
HETATM   21  O           1     -25.545  -8.505 -21.678  0.00  0.00    -0.393 OA
HETATM   22  H           1     -25.842  -9.302 -22.084  0.00  0.00     0.210 HD
ENDBRANCH  19  21
ENDBRANCH  14  19
ENDBRANCH   3  14
TORSDOF 9
ENDMDL
MODEL 8
REMARK VINA RESULT:      -5.2     10.010     12.103
REMARK  9 active torsions:
REMARK  status: ('A' for Active; 'I' for Inactive)
REMARK    1  A    between atoms: C_2  and  C_19 
REMARK    2  A    between atoms: N_5  and  C_7 
REMARK       I    between atoms: N_5  and  C_15 
REMARK    3  A    between atoms: O_6  and  C_12 
REMARK    4  A    between atoms: C_7  and  C_14 
REMARK    5  A    between atoms: C_7  and  C_18 
REMARK    6  A    between atoms: N_11  and  C_13 
REMARK    7  A    between atoms: C_12  and  C_13 
REMARK    8  A    between atoms: C_13  and  C_15 
REMARK    9  A    between atoms: C_14  and  C_19 
ROOT
HETATM    1  N           1     -27.244  -7.145 -19.082  0.00  0.00    -0.345 N 
HETATM    2  O           1     -28.422  -5.253 -19.219  0.00  0.00    -0.271 OA
HETATM    3  C           1     -28.238  -6.305 -18.656  0.00  0.00     0.251 C 
HETATM    4  H           1     -27.090  -8.028 -18.612  0.00  0.00     0.163 HD
ENDROOT
BRANCH   1   5
HETATM    5  C           1     -26.412  -6.770 -20.210  0.00  0.00     0.186 C 
BRANCH   5   6
HETATM    6  C           1     -25.037  -6.351 -19.708  0.00  0.00     0.046 C 
BRANCH   6   7
HETATM    7  C           1     -24.491  -7.420 -18.771  0.00  0.00     0.116 C 
BRANCH   7   8
HETATM    8  C           1     -24.798  -7.042 -17.342  0.00  0.00     0.172 C 
HETATM    9  O           1     -24.512  -7.827 -16.412  0.00  0.00    -0.648 OA
HETATM   10  O           1     -25.338  -5.943 -17.089  0.00  0.00    -0.648 OA
ENDBRANCH   7   8
ENDBRANCH   6   7
ENDBRANCH   5   6
BRANCH   5  11
HETATM   11  C           1     -26.271  -7.948 -21.143  0.00  0.00     0.196 C 
HETATM   12  O           1     -25.181  -8.162 -21.718  0.00  0.00    -0.646 OA
HETATM   13  O           1     -27.242  -8.710 -21.341  0.00  0.00    -0.646 OA
ENDBRANCH   5  11
ENDBRANCH   1   5
BRANCH   3  14
HETATM   14  C           1     -29.103  -6.695 -17.484  0.00  0.00     0.302 C 
BRANCH  14  15
HETATM   15  N           1     -29.448  -8.152 -17.581  0.00  0.00    -0.064 N 
HETATM   16  H           1     -30.397  -8.258 -18.008  0.00  0.00     0.275 HD
HETATM   17  H           1     -28.743  -8.638 -18.179  0.00  0.00     0.275 HD
HETATM   18  H           1     -29.448  -8.575 -16.626  0.00  0.00     0.275 HD
ENDBRANCH  14  15
BRANCH  14  19
HETATM   19  C           1     -28.347  -6.439 -16.186  0.00  0.00     0.153 C 
HETATM   20  C           1     -29.335  -6.061 -15.090  0.00  0.00     0.042 C 
BRANCH  19  21
HETATM   21  O           1     -27.656  -7.601 -15.811  0.00  0.00    -0.393 OA
HETATM   22  H           1     -26.772  -7.341 -15.617  0.00  0.00     0.210 HD
ENDBRANCH  19  21
ENDBRANCH  14  19
ENDBRANCH   3  14
TORSDOF 9
ENDMDL
MODEL 9
REMARK VINA RESULT:      -5.1     13.153     15.167
REMARK  9 active torsions:
REMARK  status: ('A' for Active; 'I' for Inactive)
REMARK    1  A    between atoms: C_2  and  C_19 
REMARK    2  A    between atoms: N_5  and  C_7 
REMARK       I    between atoms: N_5  and  C_15 
REMARK    3  A    between atoms: O_6  and  C_12 
REMARK    4  A    between atoms: C_7  and  C_14 
REMARK    5  A    between atoms: C_7  and  C_18 
REMARK    6  A    between atoms: N_11  and  C_13 
REMARK    7  A    between atoms: C_12  and  C_13 
REMARK    8  A    between atoms: C_13  and  C_15 
REMARK    9  A    between atoms: C_14  and  C_19 
ROOT
HETATM    1  N           1     -21.327  -5.078  -6.483  0.00  0.00    -0.345 N 
HETATM    2  O           1     -21.164  -7.298  -6.669  0.00  0.00    -0.271 OA
HETATM    3  C           1     -21.174  -6.329  -5.947  0.00  0.00     0.251 C 
HETATM    4  H           1     -21.335  -4.266  -5.879  0.00  0.00     0.163 HD
ENDROOT
BRANCH   1   5
HETATM    5  C           1     -21.477  -4.917  -7.917  0.00  0.00     0.186 C 
BRANCH   5   6
HETATM    6  C           1     -22.408  -3.745  -8.200  0.00  0.00     0.046 C 
BRANCH   6   7
HETATM    7  C           1     -23.697  -4.261  -8.826  0.00  0.00     0.116 C 
BRANCH   7   8
HETATM    8  C           1     -23.958  -3.526 -10.118  0.00  0.00     0.172 C 
HETATM    9  O           1     -23.009  -3.246 -10.881  0.00  0.00    -0.648 OA
HETATM   10  O           1     -25.125  -3.197 -10.425  0.00  0.00    -0.648 OA
ENDBRANCH   7   8
ENDBRANCH   6   7
ENDBRANCH   5   6
BRANCH   5  11
HETATM   11  C           1     -20.127  -4.649  -8.535  0.00  0.00     0.196 C 
HETATM   12  O           1     -19.956  -4.824  -9.761  0.00  0.00    -0.646 OA
HETATM   13  O           1     -19.179  -4.253  -7.823  0.00  0.00    -0.646 OA
ENDBRANCH   5  11
ENDBRANCH   1   5
BRANCH   3  14
HETATM   14  C           1     -21.018  -6.497  -4.456  0.00  0.00     0.302 C 
BRANCH  14  15
HETATM   15  N           1     -22.297  -6.110  -3.774  0.00  0.00    -0.064 N 
HETATM   16  H           1     -22.096  -5.400  -3.032  0.00  0.00     0.275 HD
HETATM   17  H           1     -22.956  -5.702  -4.475  0.00  0.00     0.275 HD
HETATM   18  H           1     -22.729  -6.955  -3.338  0.00  0.00     0.275 HD
ENDBRANCH  14  15
BRANCH  14  19
HETATM   19  C           1     -20.695  -7.951  -4.139  0.00  0.00     0.153 C 
HETATM   20  C           1     -20.394  -8.091  -2.652  0.00  0.00     0.042 C 
BRANCH  19  21
HETATM   21  O           1     -21.793  -8.757  -4.471  0.00  0.00    -0.393 OA
HETATM   22  H           1     -22.384  -8.730  -3.737  0.00  0.00     0.210 HD
ENDBRANCH  19  21
ENDBRANCH  14  19
ENDBRANCH   3  14
TORSDOF 9
ENDMDL
