MODEL 1
REMARK VINA RESULT:      -7.0      0.000      0.000
REMARK  7 active torsions:
REMARK  status: ('A' for Active; 'I' for Inactive)
REMARK    1  A    between atoms: C_10  and  C_12 
REMARK       I    between atoms: N_13  and  C_14 
REMARK    2  A    between atoms: C_14  and  C_15 
REMARK    3  A    between atoms: C_15  and  C_16 
REMARK    4  A    between atoms: C_15  and  N_22 
REMARK    5  A    between atoms: C_16  and  O_17 
REMARK    6  A    between atoms: O_17  and  P_18 
REMARK    7  A    between atoms: P_18  and  O_20 
ROOT
HETATM    1  C           1     -21.778  -3.236 -10.712  0.00  0.00     0.298 C 
ENDROOT
BRANCH   1   2
HETATM    2  C           1     -22.009  -4.423  -9.810  0.00  0.00     0.253 C 
HETATM    3  O           1     -22.825  -5.261 -10.111  0.00  0.00    -0.271 OA
HETATM    4  N           1     -21.292  -4.550  -8.650  0.00  0.00    -0.336 N 
HETATM    5  C           1     -20.273  -3.644  -8.130  0.00  0.00     0.127 C 
HETATM    6  C           1     -21.381  -5.623  -7.663  0.00  0.00     0.188 C 
HETATM    7  C           1     -19.207  -4.575  -7.578  0.00  0.00     0.022 C 
HETATM    8  C           1     -19.936  -5.878  -7.274  0.00  0.00     0.038 C 
BRANCH   6   9
HETATM    9  C           1     -22.190  -5.186  -6.466  0.00  0.00     0.196 C 
HETATM   10  O           1     -21.774  -5.421  -5.311  0.00  0.00    -0.646 OA
HETATM   11  O           1     -23.277  -4.590  -6.630  0.00  0.00    -0.646 OA
ENDBRANCH   6   9
ENDBRANCH   1   2
BRANCH   1  12
HETATM   12  C           1     -23.030  -2.975 -11.539  0.00  0.00     0.224 C 
BRANCH  12  13
HETATM   13  O           1     -22.693  -2.233 -12.679  0.00  0.00    -0.287 OA
BRANCH  13  14
HETATM   14  P           1     -23.432  -2.665 -14.049  0.00  0.00     0.406 P 
HETATM   15  O           1     -24.229  -1.527 -14.560  0.00  0.00    -0.624 OA
HETATM   16  O           1     -24.325  -3.815 -13.786  0.00  0.00    -0.624 OA
BRANCH  14  17
HETATM   17  O           1     -22.326  -3.082 -15.149  0.00  0.00    -0.300 OA
HETATM   18  H           1     -22.810  -3.207 -15.947  0.00  0.00     0.223 HD
ENDBRANCH  14  17
ENDBRANCH  13  14
ENDBRANCH  12  13
ENDBRANCH   1  12
BRANCH   1  19
HETATM   19  N           1     -20.626  -3.523 -11.630  0.00  0.00    -0.064 N 
HETATM   20  H           1     -20.585  -2.794 -12.377  0.00  0.00     0.275 HD
HETATM   21  H           1     -19.735  -3.511 -11.084  0.00  0.00     0.275 HD
HETATM   22  H           1     -20.755  -4.463 -12.067  0.00  0.00     0.275 HD
ENDBRANCH   1  19
TORSDOF 7
ENDMDL
MODEL 2
REMARK VINA RESULT:      -6.4     12.479     14.962
REMARK  7 active torsions:
REMARK  status: ('A' for Active; 'I' for Inactive)
REMARK    1  A    between atoms: C_10  and  C_12 
REMARK       I    between atoms: N_13  and  C_14 
REMARK    2  A    between atoms: C_14  and  C_15 
REMARK    3  A    between atoms: C_15  and  C_16 
REMARK    4  A    between atoms: C_15  and  N_22 
REMARK    5  A    between atoms: C_16  and  O_17 
REMARK    6  A    between atoms: O_17  and  P_18 
REMARK    7  A    between atoms: P_18  and  O_20 
ROOT
HETATM    1  C           1     -34.782  -2.113 -11.370  0.00  0.00     0.298 C 
ENDROOT
BRANCH   1   2
HETATM    2  C           1     -35.041  -1.948 -12.847  0.00  0.00     0.253 C 
HETATM    3  O           1     -34.499  -2.681 -13.641  0.00  0.00    -0.271 OA
HETATM    4  N           1     -35.892  -0.970 -13.288  0.00  0.00    -0.336 N 
HETATM    5  C           1     -36.629  -0.003 -12.481  0.00  0.00     0.127 C 
HETATM    6  C           1     -36.259  -0.667 -14.668  0.00  0.00     0.188 C 
HETATM    7  C           1     -37.989   0.069 -13.152  0.00  0.00     0.022 C 
HETATM    8  C           1     -37.747  -0.372 -14.591  0.00  0.00     0.038 C 
BRANCH   6   9
HETATM    9  C           1     -35.499   0.534 -15.175  0.00  0.00     0.196 C 
HETATM   10  O           1     -36.076   1.383 -15.890  0.00  0.00    -0.646 OA
HETATM   11  O           1     -34.293   0.681 -14.880  0.00  0.00    -0.646 OA
ENDBRANCH   6   9
ENDBRANCH   1   2
BRANCH   1  12
HETATM   12  C           1     -33.546  -2.979 -11.164  0.00  0.00     0.224 C 
BRANCH  12  13
HETATM   13  O           1     -33.867  -4.066 -10.339  0.00  0.00    -0.287 OA
BRANCH  13  14
HETATM   14  P           1     -33.908  -5.512 -11.057  0.00  0.00     0.406 P 
HETATM   15  O           1     -34.537  -6.497 -10.150  0.00  0.00    -0.624 OA
HETATM   16  O           1     -32.528  -5.944 -11.374  0.00  0.00    -0.624 OA
BRANCH  14  17
HETATM   17  O           1     -34.767  -5.411 -12.421  0.00  0.00    -0.300 OA
HETATM   18  H           1     -34.241  -4.889 -13.003  0.00  0.00     0.223 HD
ENDBRANCH  14  17
ENDBRANCH  13  14
ENDBRANCH  12  13
ENDBRANCH   1  12
BRANCH   1  19
HETATM   19  N           1     -35.965  -2.772 -10.725  0.00  0.00    -0.064 N 
HETATM   20  H           1     -36.671  -3.014 -11.458  0.00  0.00     0.275 HD
HETATM   21  H           1     -35.656  -3.644 -10.239  0.00  0.00     0.275 HD
HETATM   22  H           1     -36.394  -2.118 -10.032  0.00  0.00     0.275 HD
ENDBRANCH   1  19
TORSDOF 7
ENDMDL
MODEL 3
REMARK VINA RESULT:      -6.4     13.723     15.316
REMARK  7 active torsions:
REMARK  status: ('A' for Active; 'I' for Inactive)
REMARK    1  A    between atoms: C_10  and  C_12 
REMARK       I    between atoms: N_13  and  C_14 
REMARK    2  A    between atoms: C_14  and  C_15 
REMARK    3  A    between atoms: C_15  and  C_16 
REMARK    4  A    between atoms: C_15  and  N_22 
REMARK    5  A    between atoms: C_16  and  O_17 
REMARK    6  A    between atoms: O_17  and  P_18 
REMARK    7  A    between atoms: P_18  and  O_20 
ROOT
HETATM    1  C           1     -36.554  -0.236 -11.033  0.00  0.00     0.298 C 
ENDROOT
BRANCH   1   2
HETATM    2  C           1     -36.972  -0.292 -12.482  0.00  0.00     0.253 C 
HETATM    3  O           1     -38.075  -0.688 -12.778  0.00  0.00    -0.271 OA
HETATM    4  N           1     -36.103   0.108 -13.461  0.00  0.00    -0.336 N 
HETATM    5  C           1     -34.743   0.612 -13.292  0.00  0.00     0.127 C 
HETATM    6  C           1     -36.333   0.123 -14.903  0.00  0.00     0.188 C 
HETATM    7  C           1     -34.647   1.744 -14.300  0.00  0.00     0.022 C 
HETATM    8  C           1     -35.697   1.424 -15.358  0.00  0.00     0.038 C 
BRANCH   6   9
HETATM    9  C           1     -35.670  -1.060 -15.566  0.00  0.00     0.196 C 
HETATM   10  O           1     -35.150  -1.957 -14.868  0.00  0.00    -0.646 OA
HETATM   11  O           1     -35.641  -1.142 -16.813  0.00  0.00    -0.646 OA
ENDBRANCH   6   9
ENDBRANCH   1   2
BRANCH   1  12
HETATM   12  C           1     -36.349  -1.651 -10.509  0.00  0.00     0.224 C 
BRANCH  12  13
HETATM   13  O           1     -35.794  -2.449 -11.518  0.00  0.00    -0.287 OA
BRANCH  13  14
HETATM   14  P           1     -34.239  -2.845 -11.331  0.00  0.00     0.406 P 
HETATM   15  O           1     -34.130  -3.995 -10.406  0.00  0.00    -0.624 OA
HETATM   16  O           1     -33.499  -1.691 -10.774  0.00  0.00    -0.624 OA
BRANCH  14  17
HETATM   17  O           1     -33.611  -3.247 -12.764  0.00  0.00    -0.300 OA
HETATM   18  H           1     -32.902  -3.835 -12.564  0.00  0.00     0.223 HD
ENDBRANCH  14  17
ENDBRANCH  13  14
ENDBRANCH  12  13
ENDBRANCH   1  12
BRANCH   1  19
HETATM   19  N           1     -37.625   0.443 -10.231  0.00  0.00    -0.064 N 
HETATM   20  H           1     -37.289   0.583  -9.251  0.00  0.00     0.275 HD
HETATM   21  H           1     -37.844   1.371 -10.658  0.00  0.00     0.275 HD
HETATM   22  H           1     -38.484  -0.151 -10.223  0.00  0.00     0.275 HD
ENDBRANCH   1  19
TORSDOF 7
ENDMDL
MODEL 4
REMARK VINA RESULT:      -6.1      3.063      6.736
REMARK  7 active torsions:
REMARK  status: ('A' for Active; 'I' for Inactive)
REMARK    1  A    between atoms: C_10  and  C_12 
REMARK       I    between atoms: N_13  and  C_14 
REMARK    2  A    between atoms: C_14  and  C_15 
REMARK    3  A    between atoms: C_15  and  C_16 
REMARK    4  A    between atoms: C_15  and  N_22 
REMARK    5  A    between atoms: C_16  and  O_17 
REMARK    6  A    between atoms: O_17  and  P_18 
REMARK    7  A    between atoms: P_18  and  O_20 
ROOT
HETATM    1  C           1     -20.285  -5.352  -7.693  0.00  0.00     0.298 C 
ENDROOT
BRANCH   1   2
HETATM    2  C           1     -21.434  -4.565  -8.272  0.00  0.00     0.253 C 
HETATM    3  O           1     -22.312  -4.157  -7.549  0.00  0.00    -0.271 OA
HETATM    4  N           1     -21.482  -4.311  -9.617  0.00  0.00    -0.336 N 
HETATM    5  C           1     -20.518  -4.721 -10.634  0.00  0.00     0.127 C 
HETATM    6  C           1     -22.508  -3.573 -10.347  0.00  0.00     0.188 C 
HETATM    7  C           1     -20.410  -3.508 -11.542  0.00  0.00     0.022 C 
HETATM    8  C           1     -21.719  -2.750 -11.350  0.00  0.00     0.038 C 
BRANCH   6   9
HETATM    9  C           1     -23.452  -4.516 -11.051  0.00  0.00     0.196 C 
HETATM   10  O           1     -23.683  -4.375 -12.271  0.00  0.00    -0.646 OA
HETATM   11  O           1     -24.003  -5.440 -10.413  0.00  0.00    -0.646 OA
ENDBRANCH   6   9
ENDBRANCH   1   2
BRANCH   1  12
HETATM   12  C           1     -20.826  -6.446  -6.783  0.00  0.00     0.224 C 
BRANCH  12  13
HETATM   13  O           1     -20.671  -6.061  -5.444  0.00  0.00    -0.287 OA
BRANCH  13  14
HETATM   14  P           1     -21.838  -6.533  -4.432  0.00  0.00     0.406 P 
HETATM   15  O           1     -23.156  -6.141  -4.980  0.00  0.00    -0.624 OA
HETATM   16  O           1     -21.640  -5.889  -3.115  0.00  0.00    -0.624 OA
BRANCH  14  17
HETATM   17  O           1     -21.784  -8.138  -4.260  0.00  0.00    -0.300 OA
HETATM   18  H           1     -22.356  -8.475  -4.929  0.00  0.00     0.223 HD
ENDBRANCH  14  17
ENDBRANCH  13  14
ENDBRANCH  12  13
ENDBRANCH   1  12
BRANCH   1  19
HETATM   19  N           1     -19.401  -4.435  -6.900  0.00  0.00    -0.064 N 
HETATM   20  H           1     -18.617  -4.099  -7.503  0.00  0.00     0.275 HD
HETATM   21  H           1     -19.959  -3.616  -6.567  0.00  0.00     0.275 HD
HETATM   22  H           1     -19.012  -4.950  -6.078  0.00  0.00     0.275 HD
ENDBRANCH   1  19
TORSDOF 7
ENDMDL
MODEL 5
REMARK VINA RESULT:      -5.8      3.019      4.562
REMARK  7 active torsions:
REMARK  status: ('A' for Active; 'I' for Inactive)
REMARK    1  A    between atoms: C_10  and  C_12 
REMARK       I    between atoms: N_13  and  C_14 
REMARK    2  A    between atoms: C_14  and  C_15 
REMARK    3  A    between atoms: C_15  and  C_16 
REMARK    4  A    between atoms: C_15  and  N_22 
REMARK    5  A    between atoms: C_16  and  O_17 
REMARK    6  A    between atoms: O_17  and  P_18 
REMARK    7  A    between atoms: P_18  and  O_20 
ROOT
HETATM    1  C           1     -21.702  -5.026  -7.269  0.00  0.00     0.298 C 
ENDROOT
BRANCH   1   2
HETATM    2  C           1     -20.838  -6.102  -6.658  0.00  0.00     0.253 C 
HETATM    3  O           1     -19.818  -6.443  -7.209  0.00  0.00    -0.271 OA
HETATM    4  N           1     -21.209  -6.690  -5.479  0.00  0.00    -0.336 N 
HETATM    5  C           1     -22.396  -6.406  -4.678  0.00  0.00     0.127 C 
HETATM    6  C           1     -20.503  -7.738  -4.747  0.00  0.00     0.188 C 
HETATM    7  C           1     -21.888  -6.447  -3.248  0.00  0.00     0.022 C 
HETATM    8  C           1     -20.640  -7.320  -3.294  0.00  0.00     0.038 C 
BRANCH   6   9
HETATM    9  C           1     -21.145  -9.083  -4.982  0.00  0.00     0.196 C 
HETATM   10  O           1     -21.179  -9.568  -6.133  0.00  0.00    -0.646 OA
HETATM   11  O           1     -21.645  -9.713  -4.024  0.00  0.00    -0.646 OA
ENDBRANCH   6   9
ENDBRANCH   1   2
BRANCH   1  12
HETATM   12  C           1     -21.634  -5.121  -8.788  0.00  0.00     0.224 C 
BRANCH  12  13
HETATM   13  O           1     -22.050  -3.908  -9.353  0.00  0.00    -0.287 OA
BRANCH  13  14
HETATM   14  P           1     -23.536  -3.893  -9.983  0.00  0.00     0.406 P 
HETATM   15  O           1     -23.900  -5.258 -10.423  0.00  0.00    -0.624 OA
HETATM   16  O           1     -23.571  -2.976 -11.144  0.00  0.00    -0.624 OA
BRANCH  14  17
HETATM   17  O           1     -24.589  -3.389  -8.867  0.00  0.00    -0.300 OA
HETATM   18  H           1     -24.541  -2.448  -8.894  0.00  0.00     0.223 HD
ENDBRANCH  14  17
ENDBRANCH  13  14
ENDBRANCH  12  13
ENDBRANCH   1  12
BRANCH   1  19
HETATM   19  N           1     -21.205  -3.679  -6.832  0.00  0.00    -0.064 N 
HETATM   20  H           1     -21.924  -3.224  -6.225  0.00  0.00     0.275 HD
HETATM   21  H           1     -20.318  -3.794  -6.293  0.00  0.00     0.275 HD
HETATM   22  H           1     -21.030  -3.083  -7.671  0.00  0.00     0.275 HD
ENDBRANCH   1  19
TORSDOF 7
ENDMDL
MODEL 6
REMARK VINA RESULT:      -5.7      2.031      2.925
REMARK  7 active torsions:
REMARK  status: ('A' for Active; 'I' for Inactive)
REMARK    1  A    between atoms: C_10  and  C_12 
REMARK       I    between atoms: N_13  and  C_14 
REMARK    2  A    between atoms: C_14  and  C_15 
REMARK    3  A    between atoms: C_15  and  C_16 
REMARK    4  A    between atoms: C_15  and  N_22 
REMARK    5  A    between atoms: C_16  and  O_17 
REMARK    6  A    between atoms: O_17  and  P_18 
REMARK    7  A    between atoms: P_18  and  O_20 
ROOT
HETATM    1  C           1     -23.942  -4.721  -9.761  0.00  0.00     0.298 C 
ENDROOT
BRANCH   1   2
HETATM    2  C           1     -22.792  -3.913  -9.211  0.00  0.00     0.253 C 
HETATM    3  O           1     -22.597  -2.790  -9.611  0.00  0.00    -0.271 OA
HETATM    4  N           1     -21.971  -4.453  -8.258  0.00  0.00    -0.336 N 
HETATM    5  C           1     -22.054  -5.783  -7.661  0.00  0.00     0.127 C 
HETATM    6  C           1     -20.819  -3.825  -7.617  0.00  0.00     0.188 C 
HETATM    7  C           1     -21.745  -5.543  -6.194  0.00  0.00     0.022 C 
HETATM    8  C           1     -20.935  -4.252  -6.164  0.00  0.00     0.038 C 
BRANCH   6   9
HETATM    9  C           1     -19.529  -4.323  -8.221  0.00  0.00     0.196 C 
HETATM   10  O           1     -19.490  -4.655  -9.425  0.00  0.00    -0.646 OA
HETATM   11  O           1     -18.499  -4.403  -7.516  0.00  0.00    -0.646 OA
ENDBRANCH   6   9
ENDBRANCH   1   2
BRANCH   1  12
HETATM   12  C           1     -23.751  -4.920 -11.259  0.00  0.00     0.224 C 
BRANCH  12  13
HETATM   13  O           1     -24.537  -3.994 -11.959  0.00  0.00    -0.287 OA
BRANCH  13  14
HETATM   14  P           1     -23.848  -3.313 -13.250  0.00  0.00     0.406 P 
HETATM   15  O           1     -22.402  -3.125 -12.997  0.00  0.00    -0.624 OA
HETATM   16  O           1     -24.478  -2.000 -13.511  0.00  0.00    -0.624 OA
BRANCH  14  17
HETATM   17  O           1     -24.048  -4.272 -14.535  0.00  0.00    -0.300 OA
HETATM   18  H           1     -23.214  -4.270 -14.973  0.00  0.00     0.223 HD
ENDBRANCH  14  17
ENDBRANCH  13  14
ENDBRANCH  12  13
ENDBRANCH   1  12
BRANCH   1  19
HETATM   19  N           1     -25.228  -3.989  -9.515  0.00  0.00    -0.064 N 
HETATM   20  H           1     -25.429  -3.357 -10.323  0.00  0.00     0.275 HD
HETATM   21  H           1     -26.006  -4.678  -9.412  0.00  0.00     0.275 HD
HETATM   22  H           1     -25.145  -3.422  -8.642  0.00  0.00     0.275 HD
ENDBRANCH   1  19
TORSDOF 7
ENDMDL
MODEL 7
REMARK VINA RESULT:      -5.7     11.782     13.416
REMARK  7 active torsions:
REMARK  status: ('A' for Active; 'I' for Inactive)
REMARK    1  A    between atoms: C_10  and  C_12 
REMARK       I    between atoms: N_13  and  C_14 
REMARK    2  A    between atoms: C_14  and  C_15 
REMARK    3  A    between atoms: C_15  and  C_16 
REMARK    4  A    between atoms: C_15  and  N_22 
REMARK    5  A    between atoms: C_16  and  O_17 
REMARK    6  A    between atoms: O_17  and  P_18 
REMARK    7  A    between atoms: P_18  and  O_20 
ROOT
HETATM    1  C           1     -36.007  -1.356 -10.605  0.00  0.00     0.298 C 
ENDROOT
BRANCH   1   2
HETATM    2  C           1     -34.671  -2.053 -10.519  0.00  0.00     0.253 C 
HETATM    3  O           1     -33.705  -1.458 -10.105  0.00  0.00    -0.271 OA
HETATM    4  N           1     -34.555  -3.361 -10.907  0.00  0.00    -0.336 N 
HETATM    5  C           1     -35.606  -4.231 -11.426  0.00  0.00     0.127 C 
HETATM    6  C           1     -33.353  -4.190 -10.893  0.00  0.00     0.188 C 
HETATM    7  C           1     -35.331  -5.569 -10.762  0.00  0.00     0.022 C 
HETATM    8  C           1     -33.849  -5.540 -10.407  0.00  0.00     0.038 C 
BRANCH   6   9
HETATM    9  C           1     -32.761  -4.301 -12.277  0.00  0.00     0.196 C 
HETATM   10  O           1     -33.374  -3.830 -13.259  0.00  0.00    -0.646 OA
HETATM   11  O           1     -31.658  -4.866 -12.441  0.00  0.00    -0.646 OA
ENDBRANCH   6   9
ENDBRANCH   1   2
BRANCH   1  12
HETATM   12  C           1     -36.026  -0.445 -11.825  0.00  0.00     0.224 C 
BRANCH  12  13
HETATM   13  O           1     -36.201  -1.216 -12.983  0.00  0.00    -0.287 OA
BRANCH  13  14
HETATM   14  P           1     -35.729  -0.532 -14.367  0.00  0.00     0.406 P 
HETATM   15  O           1     -36.859   0.221 -14.957  0.00  0.00    -0.624 OA
HETATM   16  O           1     -35.289  -1.582 -15.312  0.00  0.00    -0.624 OA
BRANCH  14  17
HETATM   17  O           1     -34.503   0.479 -14.077  0.00  0.00    -0.300 OA
HETATM   18  H           1     -34.897   1.224 -13.655  0.00  0.00     0.223 HD
ENDBRANCH  14  17
ENDBRANCH  13  14
ENDBRANCH  12  13
ENDBRANCH   1  12
BRANCH   1  19
HETATM   19  N           1     -36.223  -0.536  -9.367  0.00  0.00    -0.064 N 
HETATM   20  H           1     -37.194  -0.149  -9.371  0.00  0.00     0.275 HD
HETATM   21  H           1     -36.092  -1.139  -8.524  0.00  0.00     0.275 HD
HETATM   22  H           1     -35.535   0.250  -9.345  0.00  0.00     0.275 HD
ENDBRANCH   1  19
TORSDOF 7
ENDMDL
MODEL 8
REMARK VINA RESULT:      -5.5      6.153      8.643
REMARK  7 active torsions:
REMARK  status: ('A' for Active; 'I' for Inactive)
REMARK    1  A    between atoms: C_10  and  C_12 
REMARK       I    between atoms: N_13  and  C_14 
REMARK    2  A    between atoms: C_14  and  C_15 
REMARK    3  A    between atoms: C_15  and  C_16 
REMARK    4  A    between atoms: C_15  and  N_22 
REMARK    5  A    between atoms: C_16  and  O_17 
REMARK    6  A    between atoms: O_17  and  P_18 
REMARK    7  A    between atoms: P_18  and  O_20 
ROOT
HETATM    1  C           1     -21.939  -6.930  -3.077  0.00  0.00     0.298 C 
ENDROOT
BRANCH   1   2
HETATM    2  C           1     -21.167  -8.025  -2.384  0.00  0.00     0.253 C 
HETATM    3  O           1     -20.197  -8.511  -2.916  0.00  0.00    -0.271 OA
HETATM    4  N           1     -21.565  -8.468  -1.151  0.00  0.00    -0.336 N 
HETATM    5  C           1     -22.702  -8.002  -0.362  0.00  0.00     0.127 C 
HETATM    6  C           1     -20.945  -9.510  -0.337  0.00  0.00     0.188 C 
HETATM    7  C           1     -22.168  -7.964   1.059  0.00  0.00     0.022 C 
HETATM    8  C           1     -21.009  -8.954   1.074  0.00  0.00     0.038 C 
BRANCH   6   9
HETATM    9  C           1     -21.717 -10.803  -0.440  0.00  0.00     0.196 C 
HETATM   10  O           1     -22.117 -11.205  -1.553  0.00  0.00    -0.646 OA
HETATM   11  O           1     -21.956 -11.471   0.590  0.00  0.00    -0.646 OA
ENDBRANCH   6   9
ENDBRANCH   1   2
BRANCH   1  12
HETATM   12  C           1     -21.906  -7.161  -4.582  0.00  0.00     0.224 C 
BRANCH  12  13
HETATM   13  O           1     -22.418  -6.034  -5.240  0.00  0.00    -0.287 OA
BRANCH  13  14
HETATM   14  P           1     -21.458  -5.368  -6.355  0.00  0.00     0.406 P 
HETATM   15  O           1     -22.244  -4.431  -7.188  0.00  0.00    -0.624 OA
HETATM   16  O           1     -20.885  -6.430  -7.211  0.00  0.00    -0.624 OA
BRANCH  14  17
HETATM   17  O           1     -20.263  -4.564  -5.623  0.00  0.00    -0.300 OA
HETATM   18  H           1     -20.245  -4.901  -4.743  0.00  0.00     0.223 HD
ENDBRANCH  14  17
ENDBRANCH  13  14
ENDBRANCH  12  13
ENDBRANCH   1  12
BRANCH   1  19
HETATM   19  N           1     -21.314  -5.603  -2.763  0.00  0.00    -0.064 N 
HETATM   20  H           1     -20.406  -5.516  -3.274  0.00  0.00     0.275 HD
HETATM   21  H           1     -21.956  -4.836  -3.063  0.00  0.00     0.275 HD
HETATM   22  H           1     -21.142  -5.533  -1.735  0.00  0.00     0.275 HD
ENDBRANCH   1  19
TORSDOF 7
ENDMDL
MODEL 9
REMARK VINA RESULT:      -5.4      2.314      3.432
REMARK  7 active torsions:
REMARK  status: ('A' for Active; 'I' for Inactive)
REMARK    1  A    between atoms: C_10  and  C_12 
REMARK       I    between atoms: N_13  and  C_14 
REMARK    2  A    between atoms: C_14  and  C_15 
REMARK    3  A    between atoms: C_15  and  C_16 
REMARK    4  A    between atoms: C_15  and  N_22 
REMARK    5  A    between atoms: C_16  and  O_17 
REMARK    6  A    between atoms: O_17  and  P_18 
REMARK    7  A    between atoms: P_18  and  O_20 
ROOT
HETATM    1  C           1     -22.589  -4.580  -8.499  0.00  0.00     0.298 C 
ENDROOT
BRANCH   1   2
HETATM    2  C           1     -21.432  -4.684  -7.535  0.00  0.00     0.253 C 
HETATM    3  O           1     -20.452  -3.995  -7.691  0.00  0.00    -0.271 OA
HETATM    4  N           1     -21.495  -5.559  -6.484  0.00  0.00    -0.336 N 
HETATM    5  C           1     -22.589  -6.462  -6.141  0.00  0.00     0.127 C 
HETATM    6  C           1     -20.480  -5.793  -5.461  0.00  0.00     0.188 C 
HETATM    7  C           1     -22.670  -6.377  -4.627  0.00  0.00     0.022 C 
HETATM    8  C           1     -21.283  -5.932  -4.179  0.00  0.00     0.038 C 
BRANCH   6   9
HETATM    9  C           1     -19.706  -7.055  -5.749  0.00  0.00     0.196 C 
HETATM   10  O           1     -19.098  -7.182  -6.834  0.00  0.00    -0.646 OA
HETATM   11  O           1     -19.673  -7.976  -4.904  0.00  0.00    -0.646 OA
ENDBRANCH   6   9
ENDBRANCH   1   2
BRANCH   1  12
HETATM   12  C           1     -22.165  -3.766  -9.715  0.00  0.00     0.224 C 
BRANCH  12  13
HETATM   13  O           1     -22.680  -4.357 -10.877  0.00  0.00    -0.287 OA
BRANCH  13  14
HETATM   14  P           1     -23.764  -3.485 -11.694  0.00  0.00     0.406 P 
HETATM   15  O           1     -24.921  -3.189 -10.820  0.00  0.00    -0.624 OA
HETATM   16  O           1     -24.222  -4.248 -12.877  0.00  0.00    -0.624 OA
BRANCH  14  17
HETATM   17  O           1     -23.087  -2.100 -12.177  0.00  0.00    -0.300 OA
HETATM   18  H           1     -23.793  -1.601 -12.552  0.00  0.00     0.223 HD
ENDBRANCH  14  17
ENDBRANCH  13  14
ENDBRANCH  12  13
ENDBRANCH   1  12
BRANCH   1  19
HETATM   19  N           1     -23.743  -3.900  -7.822  0.00  0.00    -0.064 N 
HETATM   20  H           1     -23.480  -3.667  -6.837  0.00  0.00     0.275 HD
HETATM   21  H           1     -23.979  -3.022  -8.335  0.00  0.00     0.275 HD
HETATM   22  H           1     -24.570  -4.537  -7.820  0.00  0.00     0.275 HD
ENDBRANCH   1  19
TORSDOF 7
ENDMDL
