MODEL 1
REMARK VINA RESULT:      -6.3      0.000      0.000
REMARK  10 active torsions:
REMARK  status: ('A' for Active; 'I' for Inactive)
REMARK       I    between atoms: C_2  and  N_3 
REMARK    1  A    between atoms: C_2  and  C_4 
REMARK    2  A    between atoms: C_4  and  C_5 
REMARK    3  A    between atoms: C_5  and  C_6 
REMARK    4  A    between atoms: C_5  and  N_9 
REMARK       I    between atoms: N_9  and  C_10 
REMARK    5  A    between atoms: C_10  and  C_11 
REMARK    6  A    between atoms: C_11  and  C_12 
REMARK    7  A    between atoms: C_11  and  N_18 
REMARK    8  A    between atoms: C_12  and  O_13 
REMARK    9  A    between atoms: O_13  and  P_14 
REMARK   10  A    between atoms: P_14  and  O_15 
ROOT
HETATM    1  N           1     -21.833  -4.787  -8.604  0.00  0.00    -0.344 N 
HETATM    2  C           1     -23.150  -4.413  -8.601  0.00  0.00     0.251 C 
HETATM    3  O           1     -23.711  -4.181  -7.557  0.00  0.00    -0.271 OA
HETATM    4  H           1     -21.364  -4.982  -9.479  0.00  0.00     0.163 HD
ENDROOT
BRANCH   2   5
HETATM    5  C           1     -23.901  -4.291  -9.904  0.00  0.00     0.298 C 
BRANCH   5   6
HETATM    6  C           1     -23.233  -3.238 -10.780  0.00  0.00     0.224 C 
BRANCH   6   7
HETATM    7  O           1     -24.142  -2.792 -11.750  0.00  0.00    -0.287 OA
BRANCH   7   8
HETATM    8  P           1     -23.710  -3.028 -13.287  0.00  0.00     0.406 P 
HETATM    9  O           1     -24.461  -4.177 -13.840  0.00  0.00    -0.624 OA
HETATM   10  O           1     -24.013  -1.813 -14.077  0.00  0.00    -0.624 OA
BRANCH   8  11
HETATM   11  O           1     -22.126  -3.336 -13.361  0.00  0.00    -0.300 OA
HETATM   12  H           1     -21.875  -3.116 -14.242  0.00  0.00     0.223 HD
ENDBRANCH   8  11
ENDBRANCH   7   8
ENDBRANCH   6   7
ENDBRANCH   5   6
BRANCH   5  13
HETATM   13  N           1     -25.318  -3.884  -9.627  0.00  0.00    -0.064 N 
HETATM   14  H           1     -25.868  -4.718  -9.322  0.00  0.00     0.275 HD
HETATM   15  H           1     -25.331  -3.163  -8.871  0.00  0.00     0.275 HD
HETATM   16  H           1     -25.742  -3.487 -10.496  0.00  0.00     0.275 HD
ENDBRANCH   5  13
ENDBRANCH   2   5
BRANCH   1  17
HETATM   17  C           1     -21.111  -4.904  -7.351  0.00  0.00     0.194 C 
BRANCH  17  18
HETATM   18  C           1     -21.046  -6.369  -6.940  0.00  0.00     0.138 C 
BRANCH  18  19
HETATM   19  C           1     -21.543  -6.517  -5.523  0.00  0.00     0.217 C 
HETATM   20  O           1     -20.860  -7.077  -4.699  0.00  0.00    -0.274 OA
HETATM   21  N           1     -22.767  -6.018  -5.171  0.00  0.00    -0.370 N 
HETATM   22  H           1     -23.340  -5.549  -5.861  0.00  0.00     0.159 HD
HETATM   23  H           1     -23.101  -6.117  -4.220  0.00  0.00     0.159 HD
ENDBRANCH  18  19
ENDBRANCH  17  18
BRANCH  17  24
HETATM   24  C           1     -19.712  -4.367  -7.525  0.00  0.00     0.197 C 
HETATM   25  O           1     -19.462  -3.562  -8.449  0.00  0.00    -0.646 OA
HETATM   26  O           1     -18.803  -4.728  -6.747  0.00  0.00    -0.646 OA
ENDBRANCH  17  24
ENDBRANCH   1  17
TORSDOF 10
ENDMDL
MODEL 2
REMARK VINA RESULT:      -6.2      3.026      7.097
REMARK  10 active torsions:
REMARK  status: ('A' for Active; 'I' for Inactive)
REMARK       I    between atoms: C_2  and  N_3 
REMARK    1  A    between atoms: C_2  and  C_4 
REMARK    2  A    between atoms: C_4  and  C_5 
REMARK    3  A    between atoms: C_5  and  C_6 
REMARK    4  A    between atoms: C_5  and  N_9 
REMARK       I    between atoms: N_9  and  C_10 
REMARK    5  A    between atoms: C_10  and  C_11 
REMARK    6  A    between atoms: C_11  and  C_12 
REMARK    7  A    between atoms: C_11  and  N_18 
REMARK    8  A    between atoms: C_12  and  O_13 
REMARK    9  A    between atoms: O_13  and  P_14 
REMARK   10  A    between atoms: P_14  and  O_15 
ROOT
HETATM    1  N           1     -23.306  -4.193  -8.750  0.00  0.00    -0.344 N 
HETATM    2  C           1     -22.207  -4.115  -7.939  0.00  0.00     0.251 C 
HETATM    3  O           1     -21.199  -3.579  -8.334  0.00  0.00    -0.271 OA
HETATM    4  H           1     -24.150  -4.643  -8.418  0.00  0.00     0.163 HD
ENDROOT
BRANCH   2   5
HETATM    5  C           1     -22.253  -4.699  -6.548  0.00  0.00     0.298 C 
BRANCH   5   6
HETATM    6  C           1     -21.277  -5.865  -6.453  0.00  0.00     0.224 C 
BRANCH   6   7
HETATM    7  O           1     -20.735  -5.917  -5.160  0.00  0.00    -0.287 OA
BRANCH   7   8
HETATM    8  P           1     -21.503  -6.870  -4.108  0.00  0.00     0.406 P 
HETATM    9  O           1     -22.397  -6.051  -3.261  0.00  0.00    -0.624 OA
HETATM   10  O           1     -22.303  -7.875  -4.845  0.00  0.00    -0.624 OA
BRANCH   8  11
HETATM   11  O           1     -20.421  -7.625  -3.175  0.00  0.00    -0.300 OA
HETATM   12  H           1     -19.994  -6.938  -2.692  0.00  0.00     0.223 HD
ENDBRANCH   8  11
ENDBRANCH   7   8
ENDBRANCH   6   7
ENDBRANCH   5   6
BRANCH   5  13
HETATM   13  N           1     -23.642  -5.186  -6.257  0.00  0.00    -0.064 N 
HETATM   14  H           1     -23.594  -6.043  -5.662  0.00  0.00     0.275 HD
HETATM   15  H           1     -24.173  -4.441  -5.752  0.00  0.00     0.275 HD
HETATM   16  H           1     -24.127  -5.412  -7.154  0.00  0.00     0.275 HD
ENDBRANCH   5  13
ENDBRANCH   2   5
BRANCH   1  17
HETATM   17  C           1     -23.261  -3.632 -10.087  0.00  0.00     0.194 C 
BRANCH  17  18
HETATM   18  C           1     -22.677  -4.659 -11.048  0.00  0.00     0.138 C 
BRANCH  18  19
HETATM   19  C           1     -21.611  -4.008 -11.895  0.00  0.00     0.217 C 
HETATM   20  O           1     -20.468  -3.974 -11.506  0.00  0.00    -0.274 OA
HETATM   21  N           1     -21.939  -3.455 -13.102  0.00  0.00    -0.370 N 
HETATM   22  H           1     -22.897  -3.483 -13.428  0.00  0.00     0.159 HD
HETATM   23  H           1     -21.224  -3.018 -13.671  0.00  0.00     0.159 HD
ENDBRANCH  18  19
ENDBRANCH  17  18
BRANCH  17  24
HETATM   24  C           1     -24.658  -3.268 -10.527  0.00  0.00     0.197 C 
HETATM   25  O           1     -25.569  -3.150  -9.679  0.00  0.00    -0.646 OA
HETATM   26  O           1     -24.904  -3.086 -11.739  0.00  0.00    -0.646 OA
ENDBRANCH  17  24
ENDBRANCH   1  17
TORSDOF 10
ENDMDL
MODEL 3
REMARK VINA RESULT:      -6.1      1.594      2.875
REMARK  10 active torsions:
REMARK  status: ('A' for Active; 'I' for Inactive)
REMARK       I    between atoms: C_2  and  N_3 
REMARK    1  A    between atoms: C_2  and  C_4 
REMARK    2  A    between atoms: C_4  and  C_5 
REMARK    3  A    between atoms: C_5  and  C_6 
REMARK    4  A    between atoms: C_5  and  N_9 
REMARK       I    between atoms: N_9  and  C_10 
REMARK    5  A    between atoms: C_10  and  C_11 
REMARK    6  A    between atoms: C_11  and  C_12 
REMARK    7  A    between atoms: C_11  and  N_18 
REMARK    8  A    between atoms: C_12  and  O_13 
REMARK    9  A    between atoms: O_13  and  P_14 
REMARK   10  A    between atoms: P_14  and  O_15 
ROOT
HETATM    1  N           1     -22.889  -4.376  -8.791  0.00  0.00    -0.344 N 
HETATM    2  C           1     -22.544  -4.367 -10.116  0.00  0.00     0.251 C 
HETATM    3  O           1     -21.480  -4.816 -10.468  0.00  0.00    -0.271 OA
HETATM    4  H           1     -23.780  -3.999  -8.496  0.00  0.00     0.163 HD
ENDROOT
BRANCH   2   5
HETATM    5  C           1     -23.496  -3.794 -11.138  0.00  0.00     0.298 C 
BRANCH   5   6
HETATM    6  C           1     -22.857  -2.582 -11.805  0.00  0.00     0.224 C 
BRANCH   6   7
HETATM    7  O           1     -22.343  -2.954 -13.055  0.00  0.00    -0.287 OA
BRANCH   7   8
HETATM    8  P           1     -23.307  -2.694 -14.323  0.00  0.00     0.406 P 
HETATM    9  O           1     -22.496  -2.252 -15.479  0.00  0.00    -0.624 OA
HETATM   10  O           1     -24.017  -3.947 -14.668  0.00  0.00    -0.624 OA
BRANCH   8  11
HETATM   11  O           1     -24.386  -1.550 -13.955  0.00  0.00    -0.300 OA
HETATM   12  H           1     -25.172  -1.799 -14.411  0.00  0.00     0.223 HD
ENDBRANCH   8  11
ENDBRANCH   7   8
ENDBRANCH   6   7
ENDBRANCH   5   6
BRANCH   5  13
HETATM   13  N           1     -24.766  -3.377 -10.458  0.00  0.00    -0.064 N 
HETATM   14  H           1     -24.669  -3.506  -9.426  0.00  0.00     0.275 HD
HETATM   15  H           1     -24.958  -2.371 -10.666  0.00  0.00     0.275 HD
HETATM   16  H           1     -25.557  -3.963 -10.808  0.00  0.00     0.275 HD
ENDBRANCH   5  13
ENDBRANCH   2   5
BRANCH   1  17
HETATM   17  C           1     -21.974  -4.927  -7.809  0.00  0.00     0.194 C 
BRANCH  17  18
HETATM   18  C           1     -20.812  -3.965  -7.604  0.00  0.00     0.138 C 
BRANCH  18  19
HETATM   19  C           1     -19.527  -4.745  -7.473  0.00  0.00     0.217 C 
HETATM   20  O           1     -18.466  -4.169  -7.493  0.00  0.00    -0.274 OA
HETATM   21  N           1     -19.564  -6.106  -7.333  0.00  0.00    -0.370 N 
HETATM   22  H           1     -20.453  -6.589  -7.317  0.00  0.00     0.159 HD
HETATM   23  H           1     -18.702  -6.630  -7.246  0.00  0.00     0.159 HD
ENDBRANCH  18  19
ENDBRANCH  17  18
BRANCH  17  24
HETATM   24  C           1     -22.700  -5.126  -6.501  0.00  0.00     0.197 C 
HETATM   25  O           1     -23.888  -4.754  -6.383  0.00  0.00    -0.646 OA
HETATM   26  O           1     -22.114  -5.663  -5.537  0.00  0.00    -0.646 OA
ENDBRANCH  17  24
ENDBRANCH   1  17
TORSDOF 10
ENDMDL
MODEL 4
REMARK VINA RESULT:      -6.1      2.941      6.913
REMARK  10 active torsions:
REMARK  status: ('A' for Active; 'I' for Inactive)
REMARK       I    between atoms: C_2  and  N_3 
REMARK    1  A    between atoms: C_2  and  C_4 
REMARK    2  A    between atoms: C_4  and  C_5 
REMARK    3  A    between atoms: C_5  and  C_6 
REMARK    4  A    between atoms: C_5  and  N_9 
REMARK       I    between atoms: N_9  and  C_10 
REMARK    5  A    between atoms: C_10  and  C_11 
REMARK    6  A    between atoms: C_11  and  C_12 
REMARK    7  A    between atoms: C_11  and  N_18 
REMARK    8  A    between atoms: C_12  and  O_13 
REMARK    9  A    between atoms: O_13  and  P_14 
REMARK   10  A    between atoms: P_14  and  O_15 
ROOT
HETATM    1  N           1     -22.313  -4.291  -9.609  0.00  0.00    -0.344 N 
HETATM    2  C           1     -20.973  -4.070  -9.787  0.00  0.00     0.251 C 
HETATM    3  O           1     -20.591  -3.362 -10.688  0.00  0.00    -0.271 OA
HETATM    4  H           1     -22.632  -4.884  -8.854  0.00  0.00     0.163 HD
ENDROOT
BRANCH   2   5
HETATM    5  C           1     -19.973  -4.710  -8.855  0.00  0.00     0.298 C 
BRANCH   5   6
HETATM    6  C           1     -20.673  -5.762  -8.003  0.00  0.00     0.224 C 
BRANCH   6   7
HETATM    7  O           1     -21.315  -5.139  -6.924  0.00  0.00    -0.287 OA
BRANCH   7   8
HETATM    8  P           1     -21.573  -6.062  -5.625  0.00  0.00     0.406 P 
HETATM    9  O           1     -20.746  -5.573  -4.500  0.00  0.00    -0.624 OA
HETATM   10  O           1     -23.004  -5.999  -5.251  0.00  0.00    -0.624 OA
BRANCH   8  11
HETATM   11  O           1     -21.172  -7.591  -5.961  0.00  0.00    -0.300 OA
HETATM   12  H           1     -21.496  -7.742  -6.833  0.00  0.00     0.223 HD
ENDBRANCH   8  11
ENDBRANCH   7   8
ENDBRANCH   6   7
ENDBRANCH   5   6
BRANCH   5  13
HETATM   13  N           1     -19.379  -3.660  -7.963  0.00  0.00    -0.064 N 
HETATM   14  H           1     -19.795  -3.738  -7.007  0.00  0.00     0.275 HD
HETATM   15  H           1     -18.345  -3.798  -7.905  0.00  0.00     0.275 HD
HETATM   16  H           1     -19.584  -2.714  -8.354  0.00  0.00     0.275 HD
ENDBRANCH   5  13
ENDBRANCH   2   5
BRANCH   1  17
HETATM   17  C           1     -23.273  -3.676 -10.505  0.00  0.00     0.194 C 
BRANCH  17  18
HETATM   18  C           1     -23.281  -4.425 -11.831  0.00  0.00     0.138 C 
BRANCH  18  19
HETATM   19  C           1     -23.485  -3.447 -12.961  0.00  0.00     0.217 C 
HETATM   20  O           1     -24.559  -2.915 -13.114  0.00  0.00    -0.274 OA
HETATM   21  N           1     -22.453  -3.161 -13.814  0.00  0.00    -0.370 N 
HETATM   22  H           1     -21.554  -3.606 -13.686  0.00  0.00     0.159 HD
HETATM   23  H           1     -22.590  -2.505 -14.573  0.00  0.00     0.159 HD
ENDBRANCH  18  19
ENDBRANCH  17  18
BRANCH  17  24
HETATM   24  C           1     -24.648  -3.734  -9.885  0.00  0.00     0.197 C 
HETATM   25  O           1     -25.193  -4.840  -9.677  0.00  0.00    -0.646 OA
HETATM   26  O           1     -25.241  -2.678  -9.580  0.00  0.00    -0.646 OA
ENDBRANCH  17  24
ENDBRANCH   1  17
TORSDOF 10
ENDMDL
MODEL 5
REMARK VINA RESULT:      -5.9      2.276      3.750
REMARK  10 active torsions:
REMARK  status: ('A' for Active; 'I' for Inactive)
REMARK       I    between atoms: C_2  and  N_3 
REMARK    1  A    between atoms: C_2  and  C_4 
REMARK    2  A    between atoms: C_4  and  C_5 
REMARK    3  A    between atoms: C_5  and  C_6 
REMARK    4  A    between atoms: C_5  and  N_9 
REMARK       I    between atoms: N_9  and  C_10 
REMARK    5  A    between atoms: C_10  and  C_11 
REMARK    6  A    between atoms: C_11  and  C_12 
REMARK    7  A    between atoms: C_11  and  N_18 
REMARK    8  A    between atoms: C_12  and  O_13 
REMARK    9  A    between atoms: O_13  and  P_14 
REMARK   10  A    between atoms: P_14  and  O_15 
ROOT
HETATM    1  N           1     -21.380  -5.885  -6.342  0.00  0.00    -0.344 N 
HETATM    2  C           1     -20.611  -4.853  -6.809  0.00  0.00     0.251 C 
HETATM    3  O           1     -19.581  -4.564  -6.247  0.00  0.00    -0.271 OA
HETATM    4  H           1     -22.244  -6.125  -6.812  0.00  0.00     0.163 HD
ENDROOT
BRANCH   2   5
HETATM    5  C           1     -21.050  -4.075  -8.025  0.00  0.00     0.298 C 
BRANCH   5   6
HETATM    6  C           1     -22.530  -4.331  -8.286  0.00  0.00     0.224 C 
BRANCH   6   7
HETATM    7  O           1     -23.059  -3.280  -9.049  0.00  0.00    -0.287 OA
BRANCH   7   8
HETATM    8  P           1     -24.120  -3.698 -10.191  0.00  0.00     0.406 P 
HETATM    9  O           1     -23.816  -2.964 -11.440  0.00  0.00    -0.624 OA
HETATM   10  O           1     -24.029  -5.155 -10.440  0.00  0.00    -0.624 OA
BRANCH   8  11
HETATM   11  O           1     -25.614  -3.329  -9.700  0.00  0.00    -0.300 OA
HETATM   12  H           1     -26.150  -3.404 -10.472  0.00  0.00     0.223 HD
ENDBRANCH   8  11
ENDBRANCH   7   8
ENDBRANCH   6   7
ENDBRANCH   5   6
BRANCH   5  13
HETATM   13  N           1     -20.251  -4.516  -9.215  0.00  0.00    -0.064 N 
HETATM   14  H           1     -19.862  -5.470  -9.041  0.00  0.00     0.275 HD
HETATM   15  H           1     -20.867  -4.540 -10.059  0.00  0.00     0.275 HD
HETATM   16  H           1     -19.466  -3.845  -9.376  0.00  0.00     0.275 HD
ENDBRANCH   5  13
ENDBRANCH   2   5
BRANCH   1  17
HETATM   17  C           1     -20.958  -6.632  -5.173  0.00  0.00     0.194 C 
BRANCH  17  18
HETATM   18  C           1     -22.142  -6.811  -4.232  0.00  0.00     0.138 C 
BRANCH  18  19
HETATM   19  C           1     -21.677  -6.665  -2.804  0.00  0.00     0.217 C 
HETATM   20  O           1     -20.776  -7.354  -2.389  0.00  0.00    -0.274 OA
HETATM   21  N           1     -22.276  -5.752  -1.979  0.00  0.00    -0.370 N 
HETATM   22  H           1     -23.031  -5.175  -2.327  0.00  0.00     0.159 HD
HETATM   23  H           1     -21.965  -5.654  -1.021  0.00  0.00     0.159 HD
ENDBRANCH  18  19
ENDBRANCH  17  18
BRANCH  17  24
HETATM   24  C           1     -20.444  -7.985  -5.600  0.00  0.00     0.197 C 
HETATM   25  O           1     -19.237  -8.132  -5.890  0.00  0.00    -0.646 OA
HETATM   26  O           1     -21.225  -8.958  -5.664  0.00  0.00    -0.646 OA
ENDBRANCH  17  24
ENDBRANCH   1  17
TORSDOF 10
ENDMDL
MODEL 6
REMARK VINA RESULT:      -5.7      4.434      8.688
REMARK  10 active torsions:
REMARK  status: ('A' for Active; 'I' for Inactive)
REMARK       I    between atoms: C_2  and  N_3 
REMARK    1  A    between atoms: C_2  and  C_4 
REMARK    2  A    between atoms: C_4  and  C_5 
REMARK    3  A    between atoms: C_5  and  C_6 
REMARK    4  A    between atoms: C_5  and  N_9 
REMARK       I    between atoms: N_9  and  C_10 
REMARK    5  A    between atoms: C_10  and  C_11 
REMARK    6  A    between atoms: C_11  and  C_12 
REMARK    7  A    between atoms: C_11  and  N_18 
REMARK    8  A    between atoms: C_12  and  O_13 
REMARK    9  A    between atoms: O_13  and  P_14 
REMARK   10  A    between atoms: P_14  and  O_15 
ROOT
HETATM    1  N           1     -20.946  -5.274  -5.065  0.00  0.00    -0.344 N 
HETATM    2  C           1     -21.419  -6.350  -4.364  0.00  0.00     0.251 C 
HETATM    3  O           1     -21.959  -7.261  -4.944  0.00  0.00    -0.271 OA
HETATM    4  H           1     -20.495  -4.510  -4.578  0.00  0.00     0.163 HD
ENDROOT
BRANCH   2   5
HETATM    5  C           1     -21.266  -6.397  -2.863  0.00  0.00     0.298 C 
BRANCH   5   6
HETATM    6  C           1     -21.108  -7.845  -2.413  0.00  0.00     0.224 C 
BRANCH   6   7
HETATM    7  O           1     -20.726  -7.876  -1.065  0.00  0.00    -0.287 OA
BRANCH   7   8
HETATM    8  P           1     -21.722  -8.657  -0.064  0.00  0.00     0.406 P 
HETATM    9  O           1     -22.112  -9.952  -0.666  0.00  0.00    -0.624 OA
HETATM   10  O           1     -21.037  -8.899   1.226  0.00  0.00    -0.624 OA
BRANCH   8  11
HETATM   11  O           1     -23.043  -7.762   0.189  0.00  0.00    -0.300 OA
HETATM   12  H           1     -22.903  -6.974  -0.307  0.00  0.00     0.223 HD
ENDBRANCH   8  11
ENDBRANCH   7   8
ENDBRANCH   6   7
ENDBRANCH   5   6
BRANCH   5  13
HETATM   13  N           1     -22.484  -5.805  -2.218  0.00  0.00    -0.064 N 
HETATM   14  H           1     -22.268  -5.558  -1.225  0.00  0.00     0.275 HD
HETATM   15  H           1     -22.768  -4.943  -2.736  0.00  0.00     0.275 HD
HETATM   16  H           1     -23.264  -6.499  -2.242  0.00  0.00     0.275 HD
ENDBRANCH   5  13
ENDBRANCH   2   5
BRANCH   1  17
HETATM   17  C           1     -21.094  -5.229  -6.508  0.00  0.00     0.194 C 
BRANCH  17  18
HETATM   18  C           1     -21.507  -3.825  -6.930  0.00  0.00     0.138 C 
BRANCH  18  19
HETATM   19  C           1     -22.416  -3.908  -8.132  0.00  0.00     0.217 C 
HETATM   20  O           1     -21.952  -3.843  -9.245  0.00  0.00    -0.274 OA
HETATM   21  N           1     -23.766  -4.057  -7.961  0.00  0.00    -0.370 N 
HETATM   22  H           1     -24.154  -4.111  -7.028  0.00  0.00     0.159 HD
HETATM   23  H           1     -24.376  -4.112  -8.767  0.00  0.00     0.159 HD
ENDBRANCH  18  19
ENDBRANCH  17  18
BRANCH  17  24
HETATM   24  C           1     -19.779  -5.584  -7.159  0.00  0.00     0.197 C 
HETATM   25  O           1     -19.402  -6.775  -7.194  0.00  0.00    -0.646 OA
HETATM   26  O           1     -19.069  -4.687  -7.662  0.00  0.00    -0.646 OA
ENDBRANCH  17  24
ENDBRANCH   1  17
TORSDOF 10
ENDMDL
MODEL 7
REMARK VINA RESULT:      -5.7      3.315      7.100
REMARK  10 active torsions:
REMARK  status: ('A' for Active; 'I' for Inactive)
REMARK       I    between atoms: C_2  and  N_3 
REMARK    1  A    between atoms: C_2  and  C_4 
REMARK    2  A    between atoms: C_4  and  C_5 
REMARK    3  A    between atoms: C_5  and  C_6 
REMARK    4  A    between atoms: C_5  and  N_9 
REMARK       I    between atoms: N_9  and  C_10 
REMARK    5  A    between atoms: C_10  and  C_11 
REMARK    6  A    between atoms: C_11  and  C_12 
REMARK    7  A    between atoms: C_11  and  N_18 
REMARK    8  A    between atoms: C_12  and  O_13 
REMARK    9  A    between atoms: O_13  and  P_14 
REMARK   10  A    between atoms: P_14  and  O_15 
ROOT
HETATM    1  N           1     -22.481  -4.622  -8.925  0.00  0.00    -0.344 N 
HETATM    2  C           1     -21.652  -4.482  -7.845  0.00  0.00     0.251 C 
HETATM    3  O           1     -21.523  -3.404  -7.316  0.00  0.00    -0.271 OA
HETATM    4  H           1     -22.589  -5.525  -9.368  0.00  0.00     0.163 HD
ENDROOT
BRANCH   2   5
HETATM    5  C           1     -20.899  -5.677  -7.314  0.00  0.00     0.298 C 
BRANCH   5   6
HETATM    6  C           1     -21.497  -6.104  -5.979  0.00  0.00     0.224 C 
BRANCH   6   7
HETATM    7  O           1     -20.470  -6.512  -5.115  0.00  0.00    -0.287 OA
BRANCH   7   8
HETATM    8  P           1     -20.124  -8.088  -5.121  0.00  0.00     0.406 P 
HETATM    9  O           1     -18.946  -8.332  -5.983  0.00  0.00    -0.624 OA
HETATM   10  O           1     -19.828  -8.533  -3.741  0.00  0.00    -0.624 OA
BRANCH   8  11
HETATM   11  O           1     -21.388  -8.916  -5.693  0.00  0.00    -0.300 OA
HETATM   12  H           1     -22.049  -8.845  -5.025  0.00  0.00     0.223 HD
ENDBRANCH   8  11
ENDBRANCH   7   8
ENDBRANCH   6   7
ENDBRANCH   5   6
BRANCH   5  13
HETATM   13  N           1     -19.457  -5.313  -7.121  0.00  0.00    -0.064 N 
HETATM   14  H           1     -18.980  -6.057  -6.563  0.00  0.00     0.275 HD
HETATM   15  H           1     -18.992  -5.226  -8.052  0.00  0.00     0.275 HD
HETATM   16  H           1     -19.392  -4.403  -6.612  0.00  0.00     0.275 HD
ENDBRANCH   5  13
ENDBRANCH   2   5
BRANCH   1  17
HETATM   17  C           1     -23.205  -3.473  -9.435  0.00  0.00     0.194 C 
BRANCH  17  18
HETATM   18  C           1     -22.570  -3.013 -10.741  0.00  0.00     0.138 C 
BRANCH  18  19
HETATM   19  C           1     -22.212  -4.216 -11.578  0.00  0.00     0.217 C 
HETATM   20  O           1     -21.088  -4.658 -11.551  0.00  0.00    -0.274 OA
HETATM   21  N           1     -23.160  -4.807 -12.368  0.00  0.00    -0.370 N 
HETATM   22  H           1     -24.102  -4.437 -12.391  0.00  0.00     0.159 HD
HETATM   23  H           1     -22.920  -5.614 -12.930  0.00  0.00     0.159 HD
ENDBRANCH  18  19
ENDBRANCH  17  18
BRANCH  17  24
HETATM   24  C           1     -24.644  -3.855  -9.682  0.00  0.00     0.197 C 
HETATM   25  O           1     -24.961  -5.059  -9.790  0.00  0.00    -0.646 OA
HETATM   26  O           1     -25.518  -2.966  -9.780  0.00  0.00    -0.646 OA
ENDBRANCH  17  24
ENDBRANCH   1  17
TORSDOF 10
ENDMDL
MODEL 8
REMARK VINA RESULT:      -5.4      3.154      4.693
REMARK  10 active torsions:
REMARK  status: ('A' for Active; 'I' for Inactive)
REMARK       I    between atoms: C_2  and  N_3 
REMARK    1  A    between atoms: C_2  and  C_4 
REMARK    2  A    between atoms: C_4  and  C_5 
REMARK    3  A    between atoms: C_5  and  C_6 
REMARK    4  A    between atoms: C_5  and  N_9 
REMARK       I    between atoms: N_9  and  C_10 
REMARK    5  A    between atoms: C_10  and  C_11 
REMARK    6  A    between atoms: C_11  and  C_12 
REMARK    7  A    between atoms: C_11  and  N_18 
REMARK    8  A    between atoms: C_12  and  O_13 
REMARK    9  A    between atoms: O_13  and  P_14 
REMARK   10  A    between atoms: P_14  and  O_15 
ROOT
HETATM    1  N           1     -20.952  -6.503  -4.728  0.00  0.00    -0.344 N 
HETATM    2  C           1     -21.801  -5.800  -5.540  0.00  0.00     0.251 C 
HETATM    3  O           1     -22.992  -5.996  -5.486  0.00  0.00    -0.271 OA
HETATM    4  H           1     -19.955  -6.339  -4.775  0.00  0.00     0.163 HD
ENDROOT
BRANCH   2   5
HETATM    5  C           1     -21.248  -4.779  -6.505  0.00  0.00     0.298 C 
BRANCH   5   6
HETATM    6  C           1     -21.923  -4.943  -7.861  0.00  0.00     0.224 C 
BRANCH   6   7
HETATM    7  O           1     -23.042  -4.101  -7.931  0.00  0.00    -0.287 OA
BRANCH   7   8
HETATM    8  P           1     -23.655  -3.858  -9.405  0.00  0.00     0.406 P 
HETATM    9  O           1     -22.629  -3.234 -10.270  0.00  0.00    -0.624 OA
HETATM   10  O           1     -24.070  -5.155  -9.986  0.00  0.00    -0.624 OA
BRANCH   8  11
HETATM   11  O           1     -24.937  -2.881  -9.301  0.00  0.00    -0.300 OA
HETATM   12  H           1     -25.658  -3.388  -9.633  0.00  0.00     0.223 HD
ENDBRANCH   8  11
ENDBRANCH   7   8
ENDBRANCH   6   7
ENDBRANCH   5   6
BRANCH   5  13
HETATM   13  N           1     -19.770  -4.984  -6.655  0.00  0.00    -0.064 N 
HETATM   14  H           1     -19.259  -4.281  -6.075  0.00  0.00     0.275 HD
HETATM   15  H           1     -19.518  -5.947  -6.338  0.00  0.00     0.275 HD
HETATM   16  H           1     -19.503  -4.866  -7.658  0.00  0.00     0.275 HD
ENDBRANCH   5  13
ENDBRANCH   2   5
BRANCH   1  17
HETATM   17  C           1     -21.484  -7.484  -3.801  0.00  0.00     0.194 C 
BRANCH  17  18
HETATM   18  C           1     -20.562  -8.695  -3.762  0.00  0.00     0.138 C 
BRANCH  18  19
HETATM   19  C           1     -20.206  -9.104  -5.170  0.00  0.00     0.217 C 
HETATM   20  O           1     -21.080  -9.363  -5.963  0.00  0.00    -0.274 OA
HETATM   21  N           1     -18.894  -9.181  -5.550  0.00  0.00    -0.370 N 
HETATM   22  H           1     -18.162  -8.964  -4.887  0.00  0.00     0.159 HD
HETATM   23  H           1     -18.655  -9.455  -6.495  0.00  0.00     0.159 HD
ENDBRANCH  18  19
ENDBRANCH  17  18
BRANCH  17  24
HETATM   24  C           1     -21.575  -6.876  -2.423  0.00  0.00     0.197 C 
HETATM   25  O           1     -22.289  -5.868  -2.231  0.00  0.00    -0.646 OA
HETATM   26  O           1     -20.937  -7.380  -1.474  0.00  0.00    -0.646 OA
ENDBRANCH  17  24
ENDBRANCH   1  17
TORSDOF 10
ENDMDL
MODEL 9
REMARK VINA RESULT:      -5.4      5.318      7.803
REMARK  10 active torsions:
REMARK  status: ('A' for Active; 'I' for Inactive)
REMARK       I    between atoms: C_2  and  N_3 
REMARK    1  A    between atoms: C_2  and  C_4 
REMARK    2  A    between atoms: C_4  and  C_5 
REMARK    3  A    between atoms: C_5  and  C_6 
REMARK    4  A    between atoms: C_5  and  N_9 
REMARK       I    between atoms: N_9  and  C_10 
REMARK    5  A    between atoms: C_10  and  C_11 
REMARK    6  A    between atoms: C_11  and  C_12 
REMARK    7  A    between atoms: C_11  and  N_18 
REMARK    8  A    between atoms: C_12  and  O_13 
REMARK    9  A    between atoms: O_13  and  P_14 
REMARK   10  A    between atoms: P_14  and  O_15 
ROOT
HETATM    1  N           1     -21.300  -8.758  -2.418  0.00  0.00    -0.344 N 
HETATM    2  C           1     -20.212  -8.592  -3.232  0.00  0.00     0.251 C 
HETATM    3  O           1     -19.126  -8.988  -2.880  0.00  0.00    -0.271 OA
HETATM    4  H           1     -22.209  -8.425  -2.713  0.00  0.00     0.163 HD
ENDROOT
BRANCH   2   5
HETATM    5  C           1     -20.369  -7.912  -4.570  0.00  0.00     0.298 C 
BRANCH   5   6
HETATM    6  C           1     -21.450  -6.843  -4.475  0.00  0.00     0.224 C 
BRANCH   6   7
HETATM    7  O           1     -20.940  -5.619  -4.930  0.00  0.00    -0.287 OA
BRANCH   7   8
HETATM    8  P           1     -21.345  -5.198  -6.434  0.00  0.00     0.406 P 
HETATM    9  O           1     -20.565  -4.008  -6.841  0.00  0.00    -0.624 OA
HETATM   10  O           1     -21.055  -6.319  -7.356  0.00  0.00    -0.624 OA
BRANCH   8  11
HETATM   11  O           1     -22.922  -4.851  -6.491  0.00  0.00    -0.300 OA
HETATM   12  H           1     -23.201  -5.120  -7.349  0.00  0.00     0.223 HD
ENDBRANCH   8  11
ENDBRANCH   7   8
ENDBRANCH   6   7
ENDBRANCH   5   6
BRANCH   5  13
HETATM   13  N           1     -20.760  -8.927  -5.603  0.00  0.00    -0.064 N 
HETATM   14  H           1     -21.451  -8.505  -6.264  0.00  0.00     0.275 HD
HETATM   15  H           1     -19.912  -9.229  -6.133  0.00  0.00     0.275 HD
HETATM   16  H           1     -21.191  -9.755  -5.132  0.00  0.00     0.275 HD
ENDBRANCH   5  13
ENDBRANCH   2   5
BRANCH   1  17
HETATM   17  C           1     -21.149  -9.411  -1.132  0.00  0.00     0.194 C 
BRANCH  17  18
HETATM   18  C           1     -21.254  -8.374  -0.022  0.00  0.00     0.138 C 
BRANCH  18  19
HETATM   19  C           1     -22.557  -7.625  -0.153  0.00  0.00     0.217 C 
HETATM   20  O           1     -22.656  -6.722  -0.949  0.00  0.00    -0.274 OA
HETATM   21  N           1     -23.626  -7.968   0.629  0.00  0.00    -0.370 N 
HETATM   22  H           1     -23.542  -8.725   1.296  0.00  0.00     0.159 HD
HETATM   23  H           1     -24.500  -7.465   0.541  0.00  0.00     0.159 HD
ENDBRANCH  18  19
ENDBRANCH  17  18
BRANCH  17  24
HETATM   24  C           1     -22.237 -10.443  -0.961  0.00  0.00     0.197 C 
HETATM   25  O           1     -22.420 -10.979   0.153  0.00  0.00    -0.646 OA
HETATM   26  O           1     -22.954 -10.761  -1.934  0.00  0.00    -0.646 OA
ENDBRANCH  17  24
ENDBRANCH   1  17
TORSDOF 10
ENDMDL
