MODEL 1
REMARK VINA RESULT:      -6.5      0.000      0.000
REMARK  7 active torsions:
REMARK  status: ('A' for Active; 'I' for Inactive)
REMARK    1  A    between atoms: C_2  and  C_4 
REMARK    2  A    between atoms: C_4  and  C_11 
REMARK    3  A    between atoms: C_4  and  N_21 
REMARK    4  A    between atoms: N_9  and  C_19 
REMARK       I    between atoms: N_16  and  C_17 
REMARK    5  A    between atoms: C_17  and  C_18 
REMARK    6  A    between atoms: C_18  and  C_19 
REMARK    7  A    between atoms: C_19  and  C_20 
REMARK       I    between atoms: C_20  and  N_21 
ROOT
HETATM    1  C           1     -21.186  -5.817  -6.764  0.00  0.00     0.283 C 
ENDROOT
BRANCH   1   2
HETATM    2  N           1     -19.861  -6.298  -7.273  0.00  0.00    -0.066 N 
HETATM    3  H           1     -19.129  -6.143  -6.544  0.00  0.00     0.275 HD
HETATM    4  H           1     -19.923  -7.318  -7.494  0.00  0.00     0.275 HD
HETATM    5  H           1     -19.607  -5.769  -8.138  0.00  0.00     0.275 HD
ENDBRANCH   1   2
BRANCH   1   6
HETATM    6  C           1     -21.035  -5.349  -5.322  0.00  0.00     0.145 C 
BRANCH   6   7
HETATM    7  C           1     -21.560  -6.413  -4.389  0.00  0.00     0.217 C 
HETATM    8  O           1     -21.633  -7.561  -4.762  0.00  0.00    -0.274 OA
HETATM    9  N           1     -21.954  -6.080  -3.122  0.00  0.00    -0.370 N 
HETATM   10  H           1     -21.892  -5.119  -2.809  0.00  0.00     0.159 HD
HETATM   11  H           1     -22.306  -6.794  -2.496  0.00  0.00     0.159 HD
ENDBRANCH   6   7
ENDBRANCH   1   6
BRANCH   1  12
HETATM   12  C           1     -21.667  -4.670  -7.617  0.00  0.00     0.249 C 
HETATM   13  O           1     -21.617  -3.539  -7.194  0.00  0.00    -0.271 OA
HETATM   14  N           1     -22.159  -4.908  -8.872  0.00  0.00    -0.344 N 
HETATM   15  H           1     -22.200  -5.856  -9.227  0.00  0.00     0.163 HD
BRANCH  14  16
HETATM   16  C           1     -22.620  -3.806  -9.693  0.00  0.00     0.189 C 
BRANCH  16  17
HETATM   17  C           1     -22.044  -3.943 -11.096  0.00  0.00     0.010 C 
HETATM   18  C           1     -22.441  -2.731 -11.928  0.00  0.00     0.012 C 
HETATM   19  C           1     -20.526  -4.030 -11.015  0.00  0.00     0.012 C 
ENDBRANCH  16  17
BRANCH  16  20
HETATM   20  C           1     -24.127  -3.827  -9.763  0.00  0.00     0.197 C 
HETATM   21  O           1     -24.780  -2.794  -9.497  0.00  0.00    -0.646 OA
HETATM   22  O           1     -24.723  -4.877 -10.086  0.00  0.00    -0.646 OA
ENDBRANCH  16  20
ENDBRANCH  14  16
ENDBRANCH   1  12
TORSDOF 7
ENDMDL
MODEL 2
REMARK VINA RESULT:      -6.4     13.452     14.669
REMARK  7 active torsions:
REMARK  status: ('A' for Active; 'I' for Inactive)
REMARK    1  A    between atoms: C_2  and  C_4 
REMARK    2  A    between atoms: C_4  and  C_11 
REMARK    3  A    between atoms: C_4  and  N_21 
REMARK    4  A    between atoms: N_9  and  C_19 
REMARK       I    between atoms: N_16  and  C_17 
REMARK    5  A    between atoms: C_17  and  C_18 
REMARK    6  A    between atoms: C_18  and  C_19 
REMARK    7  A    between atoms: C_19  and  C_20 
REMARK       I    between atoms: C_20  and  N_21 
ROOT
HETATM    1  C           1     -34.373  -2.701 -11.797  0.00  0.00     0.283 C 
ENDROOT
BRANCH   1   2
HETATM    2  N           1     -33.862  -1.899 -10.638  0.00  0.00    -0.066 N 
HETATM    3  H           1     -34.135  -2.366  -9.744  0.00  0.00     0.275 HD
HETATM    4  H           1     -32.821  -1.833 -10.693  0.00  0.00     0.275 HD
HETATM    5  H           1     -34.276  -0.939 -10.669  0.00  0.00     0.275 HD
ENDBRANCH   1   2
BRANCH   1   6
HETATM    6  C           1     -35.177  -3.886 -11.279  0.00  0.00     0.145 C 
BRANCH   6   7
HETATM    7  C           1     -34.759  -5.137 -12.011  0.00  0.00     0.217 C 
HETATM    8  O           1     -35.180  -5.356 -13.123  0.00  0.00    -0.274 OA
HETATM    9  N           1     -33.903  -6.025 -11.418  0.00  0.00    -0.370 N 
HETATM   10  H           1     -33.549  -5.842 -10.487  0.00  0.00     0.159 HD
HETATM   11  H           1     -33.622  -6.864 -11.910  0.00  0.00     0.159 HD
ENDBRANCH   6   7
ENDBRANCH   1   6
BRANCH   1  12
HETATM   12  C           1     -35.256  -1.832 -12.659  0.00  0.00     0.249 C 
HETATM   13  O           1     -36.372  -1.551 -12.291  0.00  0.00    -0.271 OA
HETATM   14  N           1     -34.793  -1.361 -13.858  0.00  0.00    -0.344 N 
HETATM   15  H           1     -33.858  -1.596 -14.167  0.00  0.00     0.163 HD
BRANCH  14  16
HETATM   16  C           1     -35.641  -0.526 -14.686  0.00  0.00     0.189 C 
BRANCH  16  17
HETATM   17  C           1     -34.961   0.818 -14.914  0.00  0.00     0.010 C 
HETATM   18  C           1     -35.915   1.751 -15.649  0.00  0.00     0.012 C 
HETATM   19  C           1     -34.586   1.430 -13.571  0.00  0.00     0.012 C 
ENDBRANCH  16  17
BRANCH  16  20
HETATM   20  C           1     -35.872  -1.204 -16.014  0.00  0.00     0.197 C 
HETATM   21  O           1     -34.902  -1.649 -16.666  0.00  0.00    -0.646 OA
HETATM   22  O           1     -37.033  -1.322 -16.462  0.00  0.00    -0.646 OA
ENDBRANCH  16  20
ENDBRANCH  14  16
ENDBRANCH   1  12
TORSDOF 7
ENDMDL
MODEL 3
REMARK VINA RESULT:      -6.2     12.312     13.754
REMARK  7 active torsions:
REMARK  status: ('A' for Active; 'I' for Inactive)
REMARK    1  A    between atoms: C_2  and  C_4 
REMARK    2  A    between atoms: C_4  and  C_11 
REMARK    3  A    between atoms: C_4  and  N_21 
REMARK    4  A    between atoms: N_9  and  C_19 
REMARK       I    between atoms: N_16  and  C_17 
REMARK    5  A    between atoms: C_17  and  C_18 
REMARK    6  A    between atoms: C_18  and  C_19 
REMARK    7  A    between atoms: C_19  and  C_20 
REMARK       I    between atoms: C_20  and  N_21 
ROOT
HETATM    1  C           1     -33.823  -4.034 -11.816  0.00  0.00     0.283 C 
ENDROOT
BRANCH   1   2
HETATM    2  N           1     -32.418  -4.250 -12.293  0.00  0.00    -0.066 N 
HETATM    3  H           1     -32.404  -5.018 -13.003  0.00  0.00     0.275 HD
HETATM    4  H           1     -32.058  -3.369 -12.725  0.00  0.00     0.275 HD
HETATM    5  H           1     -31.812  -4.515 -11.483  0.00  0.00     0.275 HD
ENDBRANCH   1   2
BRANCH   1   6
HETATM    6  C           1     -34.024  -4.755 -10.489  0.00  0.00     0.145 C 
BRANCH   6   7
HETATM    7  C           1     -34.574  -6.137 -10.744  0.00  0.00     0.217 C 
HETATM    8  O           1     -34.754  -6.895  -9.821  0.00  0.00    -0.274 OA
HETATM    9  N           1     -34.869  -6.531 -12.021  0.00  0.00    -0.370 N 
HETATM   10  H           1     -34.718  -5.896 -12.795  0.00  0.00     0.159 HD
HETATM   11  H           1     -35.238  -7.458 -12.192  0.00  0.00     0.159 HD
ENDBRANCH   6   7
ENDBRANCH   1   6
BRANCH   1  12
HETATM   12  C           1     -34.069  -2.558 -11.629  0.00  0.00     0.249 C 
HETATM   13  O           1     -33.436  -1.938 -10.808  0.00  0.00    -0.271 OA
HETATM   14  N           1     -35.010  -1.919 -12.391  0.00  0.00    -0.344 N 
HETATM   15  H           1     -35.541  -2.438 -13.079  0.00  0.00     0.163 HD
BRANCH  14  16
HETATM   16  C           1     -35.246  -0.499 -12.212  0.00  0.00     0.189 C 
BRANCH  16  17
HETATM   17  C           1     -35.585   0.131 -13.557  0.00  0.00     0.010 C 
HETATM   18  C           1     -34.619   1.274 -13.838  0.00  0.00     0.012 C 
HETATM   19  C           1     -35.465  -0.919 -14.653  0.00  0.00     0.012 C 
ENDBRANCH  16  17
BRANCH  16  20
HETATM   20  C           1     -36.397  -0.298 -11.257  0.00  0.00     0.197 C 
HETATM   21  O           1     -36.326   0.580 -10.369  0.00  0.00    -0.646 OA
HETATM   22  O           1     -37.420  -1.009 -11.352  0.00  0.00    -0.646 OA
ENDBRANCH  16  20
ENDBRANCH  14  16
ENDBRANCH   1  12
TORSDOF 7
ENDMDL
MODEL 4
REMARK VINA RESULT:      -6.2      2.687      6.384
REMARK  7 active torsions:
REMARK  status: ('A' for Active; 'I' for Inactive)
REMARK    1  A    between atoms: C_2  and  C_4 
REMARK    2  A    between atoms: C_4  and  C_11 
REMARK    3  A    between atoms: C_4  and  N_21 
REMARK    4  A    between atoms: N_9  and  C_19 
REMARK       I    between atoms: N_16  and  C_17 
REMARK    5  A    between atoms: C_17  and  C_18 
REMARK    6  A    between atoms: C_18  and  C_19 
REMARK    7  A    between atoms: C_19  and  C_20 
REMARK       I    between atoms: C_20  and  N_21 
ROOT
HETATM    1  C           1     -22.577  -3.079 -11.797  0.00  0.00     0.283 C 
ENDROOT
BRANCH   1   2
HETATM    2  N           1     -21.624  -3.653 -12.803  0.00  0.00    -0.066 N 
HETATM    3  H           1     -20.726  -3.902 -12.330  0.00  0.00     0.275 HD
HETATM    4  H           1     -22.043  -4.510 -13.229  0.00  0.00     0.275 HD
HETATM    5  H           1     -21.439  -2.946 -13.551  0.00  0.00     0.275 HD
ENDBRANCH   1   2
BRANCH   1   6
HETATM    6  C           1     -23.963  -2.965 -12.420  0.00  0.00     0.145 C 
BRANCH   6   7
HETATM    7  C           1     -23.836  -2.502 -13.850  0.00  0.00     0.217 C 
HETATM    8  O           1     -23.618  -3.304 -14.728  0.00  0.00    -0.274 OA
HETATM    9  N           1     -23.969  -1.174 -14.155  0.00  0.00    -0.370 N 
HETATM   10  H           1     -24.153  -0.502 -13.420  0.00  0.00     0.159 HD
HETATM   11  H           1     -23.885  -0.863 -15.115  0.00  0.00     0.159 HD
ENDBRANCH   6   7
ENDBRANCH   1   6
BRANCH   1  12
HETATM   12  C           1     -22.639  -3.983 -10.591  0.00  0.00     0.249 C 
HETATM   13  O           1     -23.619  -4.662 -10.395  0.00  0.00    -0.271 OA
HETATM   14  N           1     -21.586  -4.034  -9.718  0.00  0.00    -0.344 N 
HETATM   15  H           1     -20.765  -3.464  -9.882  0.00  0.00     0.163 HD
BRANCH  14  16
HETATM   16  C           1     -21.645  -4.903  -8.559  0.00  0.00     0.189 C 
BRANCH  16  17
HETATM   17  C           1     -20.241  -5.382  -8.213  0.00  0.00     0.010 C 
HETATM   18  C           1     -19.299  -4.187  -8.149  0.00  0.00     0.012 C 
HETATM   19  C           1     -20.264  -6.085  -6.862  0.00  0.00     0.012 C 
ENDBRANCH  16  17
BRANCH  16  20
HETATM   20  C           1     -22.221  -4.142  -7.390  0.00  0.00     0.197 C 
HETATM   21  O           1     -21.697  -3.066  -7.025  0.00  0.00    -0.646 OA
HETATM   22  O           1     -23.220  -4.587  -6.786  0.00  0.00    -0.646 OA
ENDBRANCH  16  20
ENDBRANCH  14  16
ENDBRANCH   1  12
TORSDOF 7
ENDMDL
MODEL 5
REMARK VINA RESULT:      -6.2     13.675     16.258
REMARK  7 active torsions:
REMARK  status: ('A' for Active; 'I' for Inactive)
REMARK    1  A    between atoms: C_2  and  C_4 
REMARK    2  A    between atoms: C_4  and  C_11 
REMARK    3  A    between atoms: C_4  and  N_21 
REMARK    4  A    between atoms: N_9  and  C_19 
REMARK       I    between atoms: N_16  and  C_17 
REMARK    5  A    between atoms: C_17  and  C_18 
REMARK    6  A    between atoms: C_18  and  C_19 
REMARK    7  A    between atoms: C_19  and  C_20 
REMARK       I    between atoms: C_20  and  N_21 
ROOT
HETATM    1  C           1     -35.746   0.609 -14.091  0.00  0.00     0.283 C 
ENDROOT
BRANCH   1   2
HETATM    2  N           1     -34.390   1.082 -13.659  0.00  0.00    -0.066 N 
HETATM    3  H           1     -34.414   1.329 -12.644  0.00  0.00     0.275 HD
HETATM    4  H           1     -33.690   0.321 -13.816  0.00  0.00     0.275 HD
HETATM    5  H           1     -34.121   1.925 -14.216  0.00  0.00     0.275 HD
ENDBRANCH   1   2
BRANCH   1   6
HETATM    6  C           1     -35.624  -0.142 -15.411  0.00  0.00     0.145 C 
BRANCH   6   7
HETATM    7  C           1     -36.916  -0.021 -16.181  0.00  0.00     0.217 C 
HETATM    8  O           1     -37.215  -0.862 -16.995  0.00  0.00    -0.274 OA
HETATM    9  N           1     -37.750   1.041 -15.956  0.00  0.00    -0.370 N 
HETATM   10  H           1     -37.500   1.746 -15.274  0.00  0.00     0.159 HD
HETATM   11  H           1     -38.618   1.122 -16.472  0.00  0.00     0.159 HD
ENDBRANCH   6   7
ENDBRANCH   1   6
BRANCH   1  12
HETATM   12  C           1     -36.317  -0.309 -13.040  0.00  0.00     0.249 C 
HETATM   13  O           1     -37.432  -0.756 -13.169  0.00  0.00    -0.271 OA
HETATM   14  N           1     -35.572  -0.638 -11.939  0.00  0.00    -0.344 N 
HETATM   15  H           1     -34.637  -0.264 -11.831  0.00  0.00     0.163 HD
BRANCH  14  16
HETATM   16  C           1     -36.120  -1.522 -10.929  0.00  0.00     0.189 C 
BRANCH  16  17
HETATM   17  C           1     -35.044  -2.498 -10.472  0.00  0.00     0.010 C 
HETATM   18  C           1     -35.408  -3.904 -10.931  0.00  0.00     0.012 C 
HETATM   19  C           1     -33.705  -2.096 -11.075  0.00  0.00     0.012 C 
ENDBRANCH  16  17
BRANCH  16  20
HETATM   20  C           1     -36.594  -0.706  -9.752  0.00  0.00     0.197 C 
HETATM   21  O           1     -35.778  -0.339  -8.878  0.00  0.00    -0.646 OA
HETATM   22  O           1     -37.800  -0.398  -9.649  0.00  0.00    -0.646 OA
ENDBRANCH  16  20
ENDBRANCH  14  16
ENDBRANCH   1  12
TORSDOF 7
ENDMDL
MODEL 6
REMARK VINA RESULT:      -6.1     12.729     15.412
REMARK  7 active torsions:
REMARK  status: ('A' for Active; 'I' for Inactive)
REMARK    1  A    between atoms: C_2  and  C_4 
REMARK    2  A    between atoms: C_4  and  C_11 
REMARK    3  A    between atoms: C_4  and  N_21 
REMARK    4  A    between atoms: N_9  and  C_19 
REMARK       I    between atoms: N_16  and  C_17 
REMARK    5  A    between atoms: C_17  and  C_18 
REMARK    6  A    between atoms: C_18  and  C_19 
REMARK    7  A    between atoms: C_19  and  C_20 
REMARK       I    between atoms: C_20  and  N_21 
ROOT
HETATM    1  C           1     -35.542  -0.046 -13.539  0.00  0.00     0.283 C 
ENDROOT
BRANCH   1   2
HETATM    2  N           1     -34.467   0.603 -14.359  0.00  0.00    -0.066 N 
HETATM    3  H           1     -34.118   1.456 -13.865  0.00  0.00     0.275 HD
HETATM    4  H           1     -33.678  -0.070 -14.493  0.00  0.00     0.275 HD
HETATM    5  H           1     -34.856   0.876 -15.290  0.00  0.00     0.275 HD
ENDBRANCH   1   2
BRANCH   1   6
HETATM    6  C           1     -36.866   0.032 -14.288  0.00  0.00     0.145 C 
BRANCH   6   7
HETATM    7  C           1     -36.604   0.293 -15.751  0.00  0.00     0.217 C 
HETATM    8  O           1     -36.454   1.425 -16.145  0.00  0.00    -0.274 OA
HETATM    9  N           1     -36.534  -0.753 -16.631  0.00  0.00    -0.370 N 
HETATM   10  H           1     -36.659  -1.702 -16.301  0.00  0.00     0.159 HD
HETATM   11  H           1     -36.358  -0.578 -17.613  0.00  0.00     0.159 HD
ENDBRANCH   6   7
ENDBRANCH   1   6
BRANCH   1  12
HETATM   12  C           1     -35.185  -1.491 -13.295  0.00  0.00     0.249 C 
HETATM   13  O           1     -34.981  -2.230 -14.230  0.00  0.00    -0.271 OA
HETATM   14  N           1     -35.090  -1.967 -12.015  0.00  0.00    -0.344 N 
HETATM   15  H           1     -35.261  -1.348 -11.232  0.00  0.00     0.163 HD
BRANCH  14  16
HETATM   16  C           1     -34.747  -3.356 -11.780  0.00  0.00     0.189 C 
BRANCH  16  17
HETATM   17  C           1     -33.388  -3.433 -11.096  0.00  0.00     0.010 C 
HETATM   18  C           1     -32.383  -4.084 -12.036  0.00  0.00     0.012 C 
HETATM   19  C           1     -32.919  -2.028 -10.742  0.00  0.00     0.012 C 
ENDBRANCH  16  17
BRANCH  16  20
HETATM   20  C           1     -35.793  -3.990 -10.897  0.00  0.00     0.197 C 
HETATM   21  O           1     -35.672  -5.183 -10.543  0.00  0.00    -0.646 OA
HETATM   22  O           1     -36.780  -3.323 -10.519  0.00  0.00    -0.646 OA
ENDBRANCH  16  20
ENDBRANCH  14  16
ENDBRANCH   1  12
TORSDOF 7
ENDMDL
MODEL 7
REMARK VINA RESULT:      -5.9     12.776     15.749
REMARK  7 active torsions:
REMARK  status: ('A' for Active; 'I' for Inactive)
REMARK    1  A    between atoms: C_2  and  C_4 
REMARK    2  A    between atoms: C_4  and  C_11 
REMARK    3  A    between atoms: C_4  and  N_21 
REMARK    4  A    between atoms: N_9  and  C_19 
REMARK       I    between atoms: N_16  and  C_17 
REMARK    5  A    between atoms: C_17  and  C_18 
REMARK    6  A    between atoms: C_18  and  C_19 
REMARK    7  A    between atoms: C_19  and  C_20 
REMARK       I    between atoms: C_20  and  N_21 
ROOT
HETATM    1  C           1     -36.214  -0.078 -13.936  0.00  0.00     0.283 C 
ENDROOT
BRANCH   1   2
HETATM    2  N           1     -35.352  -0.460 -15.102  0.00  0.00    -0.066 N 
HETATM    3  H           1     -34.647   0.292 -15.276  0.00  0.00     0.275 HD
HETATM    4  H           1     -34.860  -1.357 -14.891  0.00  0.00     0.275 HD
HETATM    5  H           1     -35.949  -0.579 -15.952  0.00  0.00     0.275 HD
ENDBRANCH   1   2
BRANCH   1   6
HETATM    6  C           1     -37.680  -0.152 -14.344  0.00  0.00     0.145 C 
BRANCH   6   7
HETATM    7  C           1     -37.828   0.298 -15.776  0.00  0.00     0.217 C 
HETATM    8  O           1     -37.729  -0.505 -16.675  0.00  0.00    -0.274 OA
HETATM    9  N           1     -38.075   1.614 -16.059  0.00  0.00    -0.370 N 
HETATM   10  H           1     -38.159   2.286 -15.307  0.00  0.00     0.159 HD
HETATM   11  H           1     -38.175   1.916 -17.020  0.00  0.00     0.159 HD
ENDBRANCH   6   7
ENDBRANCH   1   6
BRANCH   1  12
HETATM   12  C           1     -35.961  -1.027 -12.791  0.00  0.00     0.249 C 
HETATM   13  O           1     -36.808  -1.194 -11.945  0.00  0.00    -0.271 OA
HETATM   14  N           1     -34.772  -1.701 -12.710  0.00  0.00    -0.344 N 
HETATM   15  H           1     -34.063  -1.562 -13.419  0.00  0.00     0.163 HD
BRANCH  14  16
HETATM   16  C           1     -34.529  -2.614 -11.610  0.00  0.00     0.189 C 
BRANCH  16  17
HETATM   17  C           1     -33.559  -3.700 -12.059  0.00  0.00     0.010 C 
HETATM   18  C           1     -33.642  -4.881 -11.100  0.00  0.00     0.012 C 
HETATM   19  C           1     -33.925  -4.158 -13.464  0.00  0.00     0.012 C 
ENDBRANCH  16  17
BRANCH  16  20
HETATM   20  C           1     -33.934  -1.855 -10.450  0.00  0.00     0.197 C 
HETATM   21  O           1     -32.704  -1.633 -10.413  0.00  0.00    -0.646 OA
HETATM   22  O           1     -34.671  -1.450  -9.525  0.00  0.00    -0.646 OA
ENDBRANCH  16  20
ENDBRANCH  14  16
ENDBRANCH   1  12
TORSDOF 7
ENDMDL
MODEL 8
REMARK VINA RESULT:      -5.9      2.365      6.057
REMARK  7 active torsions:
REMARK  status: ('A' for Active; 'I' for Inactive)
REMARK    1  A    between atoms: C_2  and  C_4 
REMARK    2  A    between atoms: C_4  and  C_11 
REMARK    3  A    between atoms: C_4  and  N_21 
REMARK    4  A    between atoms: N_9  and  C_19 
REMARK       I    between atoms: N_16  and  C_17 
REMARK    5  A    between atoms: C_17  and  C_18 
REMARK    6  A    between atoms: C_18  and  C_19 
REMARK    7  A    between atoms: C_19  and  C_20 
REMARK       I    between atoms: C_20  and  N_21 
ROOT
HETATM    1  C           1     -23.889  -3.906 -10.154  0.00  0.00     0.283 C 
ENDROOT
BRANCH   1   2
HETATM    2  N           1     -24.662  -3.182  -9.093  0.00  0.00    -0.066 N 
HETATM    3  H           1     -25.546  -3.702  -8.889  0.00  0.00     0.275 HD
HETATM    4  H           1     -24.086  -3.120  -8.223  0.00  0.00     0.275 HD
HETATM    5  H           1     -24.895  -2.219  -9.427  0.00  0.00     0.275 HD
ENDBRANCH   1   2
BRANCH   1   6
HETATM    6  C           1     -23.486  -2.924 -11.246  0.00  0.00     0.145 C 
BRANCH   6   7
HETATM    7  C           1     -24.264  -3.221 -12.504  0.00  0.00     0.217 C 
HETATM    8  O           1     -25.434  -2.928 -12.573  0.00  0.00    -0.274 OA
HETATM    9  N           1     -23.645  -3.822 -13.566  0.00  0.00    -0.370 N 
HETATM   10  H           1     -22.664  -4.067 -13.508  0.00  0.00     0.159 HD
HETATM   11  H           1     -24.167  -4.022 -14.410  0.00  0.00     0.159 HD
ENDBRANCH   6   7
ENDBRANCH   1   6
BRANCH   1  12
HETATM   12  C           1     -22.652  -4.518  -9.545  0.00  0.00     0.249 C 
HETATM   13  O           1     -21.740  -4.871 -10.254  0.00  0.00    -0.271 OA
HETATM   14  N           1     -22.562  -4.674  -8.187  0.00  0.00    -0.344 N 
HETATM   15  H           1     -23.326  -4.379  -7.593  0.00  0.00     0.163 HD
BRANCH  14  16
HETATM   16  C           1     -21.373  -5.262  -7.602  0.00  0.00     0.189 C 
BRANCH  16  17
HETATM   17  C           1     -20.471  -4.156  -7.070  0.00  0.00     0.010 C 
HETATM   18  C           1     -19.889  -4.579  -5.727  0.00  0.00     0.012 C 
HETATM   19  C           1     -19.340  -3.905  -8.058  0.00  0.00     0.012 C 
ENDBRANCH  16  17
BRANCH  16  20
HETATM   20  C           1     -21.770  -6.177  -6.470  0.00  0.00     0.197 C 
HETATM   21  O           1     -22.623  -5.805  -5.635  0.00  0.00    -0.646 OA
HETATM   22  O           1     -21.246  -7.307  -6.366  0.00  0.00    -0.646 OA
ENDBRANCH  16  20
ENDBRANCH  14  16
ENDBRANCH   1  12
TORSDOF 7
ENDMDL
MODEL 9
REMARK VINA RESULT:      -5.5     13.316     15.886
REMARK  7 active torsions:
REMARK  status: ('A' for Active; 'I' for Inactive)
REMARK    1  A    between atoms: C_2  and  C_4 
REMARK    2  A    between atoms: C_4  and  C_11 
REMARK    3  A    between atoms: C_4  and  N_21 
REMARK    4  A    between atoms: N_9  and  C_19 
REMARK       I    between atoms: N_16  and  C_17 
REMARK    5  A    between atoms: C_17  and  C_18 
REMARK    6  A    between atoms: C_18  and  C_19 
REMARK    7  A    between atoms: C_19  and  C_20 
REMARK       I    between atoms: C_20  and  N_21 
ROOT
HETATM    1  C           1     -36.240   0.496 -13.696  0.00  0.00     0.283 C 
ENDROOT
BRANCH   1   2
HETATM    2  N           1     -35.644   1.373 -14.755  0.00  0.00    -0.066 N 
HETATM    3  H           1     -36.345   1.527 -15.516  0.00  0.00     0.275 HD
HETATM    4  H           1     -35.378   2.293 -14.336  0.00  0.00     0.275 HD
HETATM    5  H           1     -34.795   0.912 -15.154  0.00  0.00     0.275 HD
ENDBRANCH   1   2
BRANCH   1   6
HETATM    6  C           1     -37.361  -0.340 -14.301  0.00  0.00     0.145 C 
BRANCH   6   7
HETATM    7  C           1     -37.499  -0.011 -15.767  0.00  0.00     0.217 C 
HETATM    8  O           1     -38.074   0.995 -16.108  0.00  0.00    -0.274 OA
HETATM    9  N           1     -36.974  -0.852 -16.710  0.00  0.00    -0.370 N 
HETATM   10  H           1     -36.491  -1.695 -16.424  0.00  0.00     0.159 HD
HETATM   11  H           1     -37.066  -0.631 -17.694  0.00  0.00     0.159 HD
ENDBRANCH   6   7
ENDBRANCH   1   6
BRANCH   1  12
HETATM   12  C           1     -35.174  -0.417 -13.142  0.00  0.00     0.249 C 
HETATM   13  O           1     -34.112   0.038 -12.789  0.00  0.00    -0.271 OA
HETATM   14  N           1     -35.410  -1.762 -13.037  0.00  0.00    -0.344 N 
HETATM   15  H           1     -36.300  -2.143 -13.332  0.00  0.00     0.163 HD
BRANCH  14  16
HETATM   16  C           1     -34.386  -2.639 -12.504  0.00  0.00     0.189 C 
BRANCH  16  17
HETATM   17  C           1     -34.705  -2.965 -11.051  0.00  0.00     0.010 C 
HETATM   18  C           1     -33.687  -2.287 -10.143  0.00  0.00     0.012 C 
HETATM   19  C           1     -36.102  -2.462 -10.713  0.00  0.00     0.012 C 
ENDBRANCH  16  17
BRANCH  16  20
HETATM   20  C           1     -34.347  -3.914 -13.310  0.00  0.00     0.197 C 
HETATM   21  O           1     -33.661  -3.973 -14.354  0.00  0.00    -0.646 OA
HETATM   22  O           1     -35.001  -4.911 -12.934  0.00  0.00    -0.646 OA
ENDBRANCH  16  20
ENDBRANCH  14  16
ENDBRANCH   1  12
TORSDOF 7
ENDMDL
