MODEL 1
REMARK VINA RESULT:      -7.0      0.000      0.000
REMARK  10 active torsions:
REMARK  status: ('A' for Active; 'I' for Inactive)
REMARK    1  A    between atoms: N_1  and  C_5 
REMARK       I    between atoms: N_1  and  C_16 
REMARK    2  A    between atoms: C_4  and  C_5 
REMARK    3  A    between atoms: C_5  and  C_6 
REMARK    4  A    between atoms: C_6  and  C_7 
REMARK    5  A    between atoms: C_7  and  C_24 
REMARK    6  A    between atoms: C_13  and  C_16 
REMARK    7  A    between atoms: C_13  and  C_14 
REMARK    8  A    between atoms: C_13  and  N_17 
REMARK    9  A    between atoms: C_14  and  C_15 
REMARK   10  A    between atoms: C_15  and  C_18 
REMARK       I    between atoms: C_24  and  N_25 
ROOT
HETATM    1  N           1     -22.154  -4.953  -9.026  0.00  0.00    -0.345 N 
HETATM    2  O           1     -21.722  -3.620  -7.288  0.00  0.00    -0.271 OA
HETATM    3  C           1     -21.699  -4.734  -7.753  0.00  0.00     0.249 C 
HETATM    4  H           1     -22.135  -5.888  -9.415  0.00  0.00     0.163 HD
ENDROOT
BRANCH   1   5
HETATM    5  C           1     -22.662  -3.848  -9.814  0.00  0.00     0.186 C 
BRANCH   5   6
HETATM    6  C           1     -24.170  -3.841  -9.756  0.00  0.00     0.196 C 
HETATM    7  O           1     -24.810  -4.889  -9.993  0.00  0.00    -0.646 OA
HETATM    8  O           1     -24.778  -2.787  -9.472  0.00  0.00    -0.646 OA
ENDBRANCH   5   6
BRANCH   5   9
HETATM    9  C           1     -22.210  -4.008 -11.260  0.00  0.00     0.045 C 
BRANCH   9  10
HETATM   10  C           1     -22.409  -2.692 -12.002  0.00  0.00     0.105 C 
BRANCH  10  11
HETATM   11  C           1     -23.197  -2.940 -13.264  0.00  0.00     0.215 C 
HETATM   12  O           1     -24.395  -3.085 -13.209  0.00  0.00    -0.274 OA
HETATM   13  N           1     -22.555  -3.000 -14.472  0.00  0.00    -0.370 N 
HETATM   14  H           1     -23.084  -3.166 -15.318  0.00  0.00     0.159 HD
HETATM   15  H           1     -21.551  -2.879 -14.518  0.00  0.00     0.159 HD
ENDBRANCH  10  11
ENDBRANCH   9  10
ENDBRANCH   5   9
ENDBRANCH   1   5
BRANCH   3  16
HETATM   16  C           1     -21.171  -5.885  -6.932  0.00  0.00     0.275 C 
BRANCH  16  17
HETATM   17  C           1     -21.263  -5.537  -5.452  0.00  0.00     0.053 C 
BRANCH  17  18
HETATM   18  C           1     -22.148  -6.554  -4.744  0.00  0.00     0.115 C 
BRANCH  18  19
HETATM   19  C           1     -21.787  -6.603  -3.280  0.00  0.00     0.172 C 
HETATM   20  O           1     -20.867  -7.353  -2.887  0.00  0.00    -0.648 OA
HETATM   21  O           1     -22.407  -5.893  -2.459  0.00  0.00    -0.648 OA
ENDBRANCH  18  19
ENDBRANCH  17  18
ENDBRANCH  16  17
BRANCH  16  22
HETATM   22  N           1     -19.738  -6.141  -7.296  0.00  0.00    -0.066 N 
HETATM   23  H           1     -19.674  -6.371  -8.313  0.00  0.00     0.275 HD
HETATM   24  H           1     -19.171  -5.288  -7.094  0.00  0.00     0.275 HD
HETATM   25  H           1     -19.375  -6.943  -6.734  0.00  0.00     0.275 HD
ENDBRANCH  16  22
ENDBRANCH   3  16
TORSDOF 10
ENDMDL
MODEL 2
REMARK VINA RESULT:      -6.9     12.187     13.989
REMARK  10 active torsions:
REMARK  status: ('A' for Active; 'I' for Inactive)
REMARK    1  A    between atoms: N_1  and  C_5 
REMARK       I    between atoms: N_1  and  C_16 
REMARK    2  A    between atoms: C_4  and  C_5 
REMARK    3  A    between atoms: C_5  and  C_6 
REMARK    4  A    between atoms: C_6  and  C_7 
REMARK    5  A    between atoms: C_7  and  C_24 
REMARK    6  A    between atoms: C_13  and  C_16 
REMARK    7  A    between atoms: C_13  and  C_14 
REMARK    8  A    between atoms: C_13  and  N_17 
REMARK    9  A    between atoms: C_14  and  C_15 
REMARK   10  A    between atoms: C_15  and  C_18 
REMARK       I    between atoms: C_24  and  N_25 
ROOT
HETATM    1  N           1     -34.988  -1.642 -13.072  0.00  0.00    -0.345 N 
HETATM    2  O           1     -33.710  -1.996 -11.276  0.00  0.00    -0.271 OA
HETATM    3  C           1     -34.274  -2.460 -12.238  0.00  0.00     0.249 C 
HETATM    4  H           1     -35.461  -2.031 -13.879  0.00  0.00     0.163 HD
ENDROOT
BRANCH   1   5
HETATM    5  C           1     -35.067  -0.220 -12.801  0.00  0.00     0.186 C 
BRANCH   5   6
HETATM    6  C           1     -36.265   0.058 -11.926  0.00  0.00     0.196 C 
HETATM    7  O           1     -37.420  -0.070 -12.389  0.00  0.00    -0.646 OA
HETATM    8  O           1     -36.102   0.418 -10.741  0.00  0.00    -0.646 OA
ENDBRANCH   5   6
BRANCH   5   9
HETATM    9  C           1     -35.208   0.539 -14.113  0.00  0.00     0.045 C 
BRANCH   9  10
HETATM   10  C           1     -35.440  -0.449 -15.249  0.00  0.00     0.105 C 
BRANCH  10  11
HETATM   11  C           1     -36.770  -0.164 -15.901  0.00  0.00     0.215 C 
HETATM   12  O           1     -37.049  -0.682 -16.956  0.00  0.00    -0.274 OA
HETATM   13  N           1     -37.662   0.681 -15.298  0.00  0.00    -0.370 N 
HETATM   14  H           1     -38.554   0.872 -15.735  0.00  0.00     0.159 HD
HETATM   15  H           1     -37.428   1.115 -14.414  0.00  0.00     0.159 HD
ENDBRANCH  10  11
ENDBRANCH   9  10
ENDBRANCH   5   9
ENDBRANCH   1   5
BRANCH   3  16
HETATM   16  C           1     -34.193  -3.940 -12.521  0.00  0.00     0.275 C 
BRANCH  16  17
HETATM   17  C           1     -33.317  -4.611 -11.470  0.00  0.00     0.053 C 
BRANCH  17  18
HETATM   18  C           1     -34.190  -5.134 -10.338  0.00  0.00     0.115 C 
BRANCH  18  19
HETATM   19  C           1     -34.618  -6.548 -10.645  0.00  0.00     0.172 C 
HETATM   20  O           1     -34.592  -7.417  -9.747  0.00  0.00    -0.648 OA
HETATM   21  O           1     -34.999  -6.850 -11.796  0.00  0.00    -0.648 OA
ENDBRANCH  18  19
ENDBRANCH  17  18
ENDBRANCH  16  17
BRANCH  16  22
HETATM   22  N           1     -33.596  -4.157 -13.880  0.00  0.00    -0.066 N 
HETATM   23  H           1     -33.240  -3.247 -14.253  0.00  0.00     0.275 HD
HETATM   24  H           1     -32.806  -4.837 -13.808  0.00  0.00     0.275 HD
HETATM   25  H           1     -34.325  -4.536 -14.524  0.00  0.00     0.275 HD
ENDBRANCH  16  22
ENDBRANCH   3  16
TORSDOF 10
ENDMDL
MODEL 3
REMARK VINA RESULT:      -6.6     12.341     14.221
REMARK  10 active torsions:
REMARK  status: ('A' for Active; 'I' for Inactive)
REMARK    1  A    between atoms: N_1  and  C_5 
REMARK       I    between atoms: N_1  and  C_16 
REMARK    2  A    between atoms: C_4  and  C_5 
REMARK    3  A    between atoms: C_5  and  C_6 
REMARK    4  A    between atoms: C_6  and  C_7 
REMARK    5  A    between atoms: C_7  and  C_24 
REMARK    6  A    between atoms: C_13  and  C_16 
REMARK    7  A    between atoms: C_13  and  C_14 
REMARK    8  A    between atoms: C_13  and  N_17 
REMARK    9  A    between atoms: C_14  and  C_15 
REMARK   10  A    between atoms: C_15  and  C_18 
REMARK       I    between atoms: C_24  and  N_25 
ROOT
HETATM    1  N           1     -35.301  -1.058 -13.704  0.00  0.00    -0.345 N 
HETATM    2  O           1     -35.075   0.443 -12.066  0.00  0.00    -0.271 OA
HETATM    3  C           1     -35.026  -0.715 -12.407  0.00  0.00     0.249 C 
HETATM    4  H           1     -35.259  -2.029 -13.989  0.00  0.00     0.163 HD
ENDROOT
BRANCH   1   5
HETATM    5  C           1     -35.651  -0.033 -14.666  0.00  0.00     0.186 C 
BRANCH   5   6
HETATM    6  C           1     -37.142  -0.053 -14.901  0.00  0.00     0.196 C 
HETATM    7  O           1     -37.873  -0.799 -14.213  0.00  0.00    -0.646 OA
HETATM    8  O           1     -37.645   0.674 -15.784  0.00  0.00    -0.646 OA
ENDBRANCH   5   6
BRANCH   5   9
HETATM    9  C           1     -34.927  -0.302 -15.979  0.00  0.00     0.045 C 
BRANCH   9  10
HETATM   10  C           1     -35.518  -1.541 -16.641  0.00  0.00     0.105 C 
BRANCH  10  11
HETATM   11  C           1     -34.549  -2.690 -16.516  0.00  0.00     0.215 C 
HETATM   12  O           1     -34.589  -3.411 -15.547  0.00  0.00    -0.274 OA
HETATM   13  N           1     -33.624  -2.916 -17.499  0.00  0.00    -0.370 N 
HETATM   14  H           1     -32.975  -3.687 -17.415  0.00  0.00     0.159 HD
HETATM   15  H           1     -33.591  -2.313 -18.310  0.00  0.00     0.159 HD
ENDBRANCH  10  11
ENDBRANCH   9  10
ENDBRANCH   5   9
ENDBRANCH   1   5
BRANCH   3  16
HETATM   16  C           1     -34.661  -1.783 -11.405  0.00  0.00     0.275 C 
BRANCH  16  17
HETATM   17  C           1     -33.823  -2.856 -12.088  0.00  0.00     0.053 C 
BRANCH  17  18
HETATM   18  C           1     -33.375  -3.884 -11.058  0.00  0.00     0.115 C 
BRANCH  18  19
HETATM   19  C           1     -33.963  -5.230 -11.402  0.00  0.00     0.172 C 
HETATM   20  O           1     -34.952  -5.304 -12.162  0.00  0.00    -0.648 OA
HETATM   21  O           1     -33.461  -6.272 -10.926  0.00  0.00    -0.648 OA
ENDBRANCH  18  19
ENDBRANCH  17  18
ENDBRANCH  16  17
BRANCH  16  22
HETATM   22  N           1     -35.913  -2.401 -10.856  0.00  0.00    -0.066 N 
HETATM   23  H           1     -36.739  -1.834 -11.152  0.00  0.00     0.275 HD
HETATM   24  H           1     -36.008  -3.375 -11.223  0.00  0.00     0.275 HD
HETATM   25  H           1     -35.861  -2.425  -9.813  0.00  0.00     0.275 HD
ENDBRANCH  16  22
ENDBRANCH   3  16
TORSDOF 10
ENDMDL
MODEL 4
REMARK VINA RESULT:      -6.6     11.902     14.488
REMARK  10 active torsions:
REMARK  status: ('A' for Active; 'I' for Inactive)
REMARK    1  A    between atoms: N_1  and  C_5 
REMARK       I    between atoms: N_1  and  C_16 
REMARK    2  A    between atoms: C_4  and  C_5 
REMARK    3  A    between atoms: C_5  and  C_6 
REMARK    4  A    between atoms: C_6  and  C_7 
REMARK    5  A    between atoms: C_7  and  C_24 
REMARK    6  A    between atoms: C_13  and  C_16 
REMARK    7  A    between atoms: C_13  and  C_14 
REMARK    8  A    between atoms: C_13  and  N_17 
REMARK    9  A    between atoms: C_14  and  C_15 
REMARK   10  A    between atoms: C_15  and  C_18 
REMARK       I    between atoms: C_24  and  N_25 
ROOT
HETATM    1  N           1     -35.289  -3.165 -11.229  0.00  0.00    -0.345 N 
HETATM    2  O           1     -34.056  -1.534 -10.330  0.00  0.00    -0.271 OA
HETATM    3  C           1     -35.108  -1.871 -10.821  0.00  0.00     0.249 C 
HETATM    4  H           1     -36.170  -3.446 -11.640  0.00  0.00     0.163 HD
ENDROOT
BRANCH   1   5
HETATM    5  C           1     -34.219  -4.130 -11.073  0.00  0.00     0.186 C 
BRANCH   5   6
HETATM    6  C           1     -33.328  -4.094 -12.291  0.00  0.00     0.196 C 
HETATM    7  O           1     -32.100  -4.299 -12.173  0.00  0.00    -0.646 OA
HETATM    8  O           1     -33.817  -3.856 -13.415  0.00  0.00    -0.646 OA
ENDBRANCH   5   6
BRANCH   5   9
HETATM    9  C           1     -34.814  -5.524 -10.921  0.00  0.00     0.045 C 
BRANCH   9  10
HETATM   10  C           1     -33.695  -6.530 -10.677  0.00  0.00     0.105 C 
BRANCH  10  11
HETATM   11  C           1     -34.282  -7.825 -10.177  0.00  0.00     0.215 C 
HETATM   12  O           1     -35.400  -7.845  -9.721  0.00  0.00    -0.274 OA
HETATM   13  N           1     -33.548  -8.979 -10.239  0.00  0.00    -0.370 N 
HETATM   14  H           1     -33.942  -9.848  -9.903  0.00  0.00     0.159 HD
HETATM   15  H           1     -32.611  -8.962 -10.620  0.00  0.00     0.159 HD
ENDBRANCH  10  11
ENDBRANCH   9  10
ENDBRANCH   5   9
ENDBRANCH   1   5
BRANCH   3  16
HETATM   16  C           1     -36.222  -0.865 -10.983  0.00  0.00     0.275 C 
BRANCH  16  17
HETATM   17  C           1     -35.834   0.155 -12.046  0.00  0.00     0.053 C 
BRANCH  17  18
HETATM   18  C           1     -36.468  -0.229 -13.376  0.00  0.00     0.115 C 
BRANCH  18  19
HETATM   19  C           1     -35.387  -0.443 -14.406  0.00  0.00     0.172 C 
HETATM   20  O           1     -35.361  -1.499 -15.075  0.00  0.00    -0.648 OA
HETATM   21  O           1     -34.517   0.436 -14.592  0.00  0.00    -0.648 OA
ENDBRANCH  18  19
ENDBRANCH  17  18
ENDBRANCH  16  17
BRANCH  16  22
HETATM   22  N           1     -36.454  -0.163  -9.678  0.00  0.00    -0.066 N 
HETATM   23  H           1     -37.469   0.066  -9.582  0.00  0.00     0.275 HD
HETATM   24  H           1     -36.160  -0.785  -8.892  0.00  0.00     0.275 HD
HETATM   25  H           1     -35.894   0.719  -9.653  0.00  0.00     0.275 HD
ENDBRANCH  16  22
ENDBRANCH   3  16
TORSDOF 10
ENDMDL
MODEL 5
REMARK VINA RESULT:      -6.4     12.040     14.193
REMARK  10 active torsions:
REMARK  status: ('A' for Active; 'I' for Inactive)
REMARK    1  A    between atoms: N_1  and  C_5 
REMARK       I    between atoms: N_1  and  C_16 
REMARK    2  A    between atoms: C_4  and  C_5 
REMARK    3  A    between atoms: C_5  and  C_6 
REMARK    4  A    between atoms: C_6  and  C_7 
REMARK    5  A    between atoms: C_7  and  C_24 
REMARK    6  A    between atoms: C_13  and  C_16 
REMARK    7  A    between atoms: C_13  and  C_14 
REMARK    8  A    between atoms: C_13  and  N_17 
REMARK    9  A    between atoms: C_14  and  C_15 
REMARK   10  A    between atoms: C_15  and  C_18 
REMARK       I    between atoms: C_24  and  N_25 
ROOT
HETATM    1  N           1     -35.255  -0.994 -12.056  0.00  0.00    -0.345 N 
HETATM    2  O           1     -34.755  -2.752 -13.338  0.00  0.00    -0.271 OA
HETATM    3  C           1     -34.512  -2.106 -12.346  0.00  0.00     0.249 C 
HETATM    4  H           1     -35.051  -0.453 -11.224  0.00  0.00     0.163 HD
ENDROOT
BRANCH   1   5
HETATM    5  C           1     -36.333  -0.591 -12.937  0.00  0.00     0.186 C 
BRANCH   5   6
HETATM    6  C           1     -35.818   0.423 -13.929  0.00  0.00     0.196 C 
HETATM    7  O           1     -34.814   1.116 -13.651  0.00  0.00    -0.646 OA
HETATM    8  O           1     -36.395   0.570 -15.027  0.00  0.00    -0.646 OA
ENDBRANCH   5   6
BRANCH   5   9
HETATM    9  C           1     -37.455   0.028 -12.114  0.00  0.00     0.045 C 
BRANCH   9  10
HETATM   10  C           1     -37.555  -0.687 -10.773  0.00  0.00     0.105 C 
BRANCH  10  11
HETATM   11  C           1     -36.876   0.140  -9.710  0.00  0.00     0.215 C 
HETATM   12  O           1     -35.930  -0.310  -9.108  0.00  0.00    -0.274 OA
HETATM   13  N           1     -37.331   1.399  -9.426  0.00  0.00    -0.370 N 
HETATM   14  H           1     -36.876   1.954  -8.713  0.00  0.00     0.159 HD
HETATM   15  H           1     -38.124   1.776  -9.930  0.00  0.00     0.159 HD
ENDBRANCH  10  11
ENDBRANCH   9  10
ENDBRANCH   5   9
ENDBRANCH   1   5
BRANCH   3  16
HETATM   16  C           1     -33.390  -2.526 -11.428  0.00  0.00     0.275 C 
BRANCH  16  17
HETATM   17  C           1     -33.285  -4.045 -11.416  0.00  0.00     0.053 C 
BRANCH  17  18
HETATM   18  C           1     -34.370  -4.623 -10.518  0.00  0.00     0.115 C 
BRANCH  18  19
HETATM   19  C           1     -34.200  -6.119 -10.420  0.00  0.00     0.172 C 
HETATM   20  O           1     -35.061  -6.809  -9.832  0.00  0.00    -0.648 OA
HETATM   21  O           1     -33.199  -6.669 -10.928  0.00  0.00    -0.648 OA
ENDBRANCH  18  19
ENDBRANCH  17  18
ENDBRANCH  16  17
BRANCH  16  22
HETATM   22  N           1     -33.670  -2.033 -10.040  0.00  0.00    -0.066 N 
HETATM   23  H           1     -33.633  -0.989 -10.027  0.00  0.00     0.275 HD
HETATM   24  H           1     -34.620  -2.352  -9.744  0.00  0.00     0.275 HD
HETATM   25  H           1     -32.953  -2.415  -9.383  0.00  0.00     0.275 HD
ENDBRANCH  16  22
ENDBRANCH   3  16
TORSDOF 10
ENDMDL
MODEL 6
REMARK VINA RESULT:      -6.3      2.056      7.886
REMARK  10 active torsions:
REMARK  status: ('A' for Active; 'I' for Inactive)
REMARK    1  A    between atoms: N_1  and  C_5 
REMARK       I    between atoms: N_1  and  C_16 
REMARK    2  A    between atoms: C_4  and  C_5 
REMARK    3  A    between atoms: C_5  and  C_6 
REMARK    4  A    between atoms: C_6  and  C_7 
REMARK    5  A    between atoms: C_7  and  C_24 
REMARK    6  A    between atoms: C_13  and  C_16 
REMARK    7  A    between atoms: C_13  and  C_14 
REMARK    8  A    between atoms: C_13  and  N_17 
REMARK    9  A    between atoms: C_14  and  C_15 
REMARK   10  A    between atoms: C_15  and  C_18 
REMARK       I    between atoms: C_24  and  N_25 
ROOT
HETATM    1  N           1     -22.186  -5.320  -7.324  0.00  0.00    -0.345 N 
HETATM    2  O           1     -21.875  -3.157  -7.782  0.00  0.00    -0.271 OA
HETATM    3  C           1     -22.434  -4.192  -8.058  0.00  0.00     0.249 C 
HETATM    4  H           1     -22.654  -6.187  -7.556  0.00  0.00     0.163 HD
ENDROOT
BRANCH   1   5
HETATM    5  C           1     -21.253  -5.274  -6.216  0.00  0.00     0.186 C 
BRANCH   5   6
HETATM    6  C           1     -19.882  -5.685  -6.695  0.00  0.00     0.196 C 
HETATM    7  O           1     -19.594  -6.897  -6.798  0.00  0.00    -0.646 OA
HETATM    8  O           1     -19.036  -4.814  -6.988  0.00  0.00    -0.646 OA
ENDBRANCH   5   6
BRANCH   5   9
HETATM    9  C           1     -21.717  -6.228  -5.123  0.00  0.00     0.045 C 
BRANCH   9  10
HETATM   10  C           1     -21.019  -5.879  -3.814  0.00  0.00     0.105 C 
BRANCH  10  11
HETATM   11  C           1     -21.733  -6.549  -2.668  0.00  0.00     0.215 C 
HETATM   12  O           1     -22.665  -5.998  -2.132  0.00  0.00    -0.274 OA
HETATM   13  N           1     -21.327  -7.783  -2.235  0.00  0.00    -0.370 N 
HETATM   14  H           1     -21.806  -8.232  -1.466  0.00  0.00     0.159 HD
HETATM   15  H           1     -20.546  -8.245  -2.684  0.00  0.00     0.159 HD
ENDBRANCH  10  11
ENDBRANCH   9  10
ENDBRANCH   5   9
ENDBRANCH   1   5
BRANCH   3  16
HETATM   16  C           1     -23.405  -4.241  -9.213  0.00  0.00     0.275 C 
BRANCH  16  17
HETATM   17  C           1     -22.677  -3.889 -10.504  0.00  0.00     0.053 C 
BRANCH  17  18
HETATM   18  C           1     -23.377  -4.555 -11.680  0.00  0.00     0.115 C 
BRANCH  18  19
HETATM   19  C           1     -24.063  -3.505 -12.519  0.00  0.00     0.172 C 
HETATM   20  O           1     -25.124  -2.980 -12.118  0.00  0.00    -0.648 OA
HETATM   21  O           1     -23.569  -3.159 -13.614  0.00  0.00    -0.648 OA
ENDBRANCH  18  19
ENDBRANCH  17  18
ENDBRANCH  16  17
BRANCH  16  22
HETATM   22  N           1     -24.509  -3.253  -8.978  0.00  0.00    -0.066 N 
HETATM   23  H           1     -24.954  -3.442  -8.051  0.00  0.00     0.275 HD
HETATM   24  H           1     -24.117  -2.285  -8.985  0.00  0.00     0.275 HD
HETATM   25  H           1     -25.225  -3.345  -9.733  0.00  0.00     0.275 HD
ENDBRANCH  16  22
ENDBRANCH   3  16
TORSDOF 10
ENDMDL
MODEL 7
REMARK VINA RESULT:      -6.2      2.195      6.813
REMARK  10 active torsions:
REMARK  status: ('A' for Active; 'I' for Inactive)
REMARK    1  A    between atoms: N_1  and  C_5 
REMARK       I    between atoms: N_1  and  C_16 
REMARK    2  A    between atoms: C_4  and  C_5 
REMARK    3  A    between atoms: C_5  and  C_6 
REMARK    4  A    between atoms: C_6  and  C_7 
REMARK    5  A    between atoms: C_7  and  C_24 
REMARK    6  A    between atoms: C_13  and  C_16 
REMARK    7  A    between atoms: C_13  and  C_14 
REMARK    8  A    between atoms: C_13  and  N_17 
REMARK    9  A    between atoms: C_14  and  C_15 
REMARK   10  A    between atoms: C_15  and  C_18 
REMARK       I    between atoms: C_24  and  N_25 
ROOT
HETATM    1  N           1     -21.906  -3.681  -9.271  0.00  0.00    -0.345 N 
HETATM    2  O           1     -20.309  -4.931 -10.205  0.00  0.00    -0.271 OA
HETATM    3  C           1     -21.075  -4.003 -10.310  0.00  0.00     0.249 C 
HETATM    4  H           1     -22.548  -2.903  -9.360  0.00  0.00     0.163 HD
ENDROOT
BRANCH   1   5
HETATM    5  C           1     -21.866  -4.452  -8.045  0.00  0.00     0.186 C 
BRANCH   5   6
HETATM    6  C           1     -23.250  -4.515  -7.446  0.00  0.00     0.196 C 
HETATM    7  O           1     -23.408  -4.945  -6.282  0.00  0.00    -0.646 OA
HETATM    8  O           1     -24.237  -4.140  -8.113  0.00  0.00    -0.646 OA
ENDBRANCH   5   6
BRANCH   5   9
HETATM    9  C           1     -20.916  -3.786  -7.058  0.00  0.00     0.045 C 
BRANCH   9  10
HETATM   10  C           1     -19.720  -4.698  -6.811  0.00  0.00     0.105 C 
BRANCH  10  11
HETATM   11  C           1     -20.160  -5.902  -6.017  0.00  0.00     0.215 C 
HETATM   12  O           1     -19.897  -7.014  -6.410  0.00  0.00    -0.274 OA
HETATM   13  N           1     -20.858  -5.737  -4.851  0.00  0.00    -0.370 N 
HETATM   14  H           1     -21.154  -6.545  -4.319  0.00  0.00     0.159 HD
HETATM   15  H           1     -21.079  -4.806  -4.522  0.00  0.00     0.159 HD
ENDBRANCH  10  11
ENDBRANCH   9  10
ENDBRANCH   5   9
ENDBRANCH   1   5
BRANCH   3  16
HETATM   16  C           1     -21.117  -3.200 -11.587  0.00  0.00     0.275 C 
BRANCH  16  17
HETATM   17  C           1     -22.322  -2.268 -11.562  0.00  0.00     0.053 C 
BRANCH  17  18
HETATM   18  C           1     -23.237  -2.587 -12.736  0.00  0.00     0.115 C 
BRANCH  18  19
HETATM   19  C           1     -24.556  -3.109 -12.220  0.00  0.00     0.172 C 
HETATM   20  O           1     -24.589  -3.807 -11.184  0.00  0.00    -0.648 OA
HETATM   21  O           1     -25.615  -2.841 -12.827  0.00  0.00    -0.648 OA
ENDBRANCH  18  19
ENDBRANCH  17  18
ENDBRANCH  16  17
BRANCH  16  22
HETATM   22  N           1     -21.230  -4.130 -12.759  0.00  0.00    -0.066 N 
HETATM   23  H           1     -21.208  -5.119 -12.421  0.00  0.00     0.275 HD
HETATM   24  H           1     -22.131  -3.952 -13.257  0.00  0.00     0.275 HD
HETATM   25  H           1     -20.432  -3.967 -13.411  0.00  0.00     0.275 HD
ENDBRANCH  16  22
ENDBRANCH   3  16
TORSDOF 10
ENDMDL
MODEL 8
REMARK VINA RESULT:      -6.1     12.179     13.836
REMARK  10 active torsions:
REMARK  status: ('A' for Active; 'I' for Inactive)
REMARK    1  A    between atoms: N_1  and  C_5 
REMARK       I    between atoms: N_1  and  C_16 
REMARK    2  A    between atoms: C_4  and  C_5 
REMARK    3  A    between atoms: C_5  and  C_6 
REMARK    4  A    between atoms: C_6  and  C_7 
REMARK    5  A    between atoms: C_7  and  C_24 
REMARK    6  A    between atoms: C_13  and  C_16 
REMARK    7  A    between atoms: C_13  and  C_14 
REMARK    8  A    between atoms: C_13  and  N_17 
REMARK    9  A    between atoms: C_14  and  C_15 
REMARK   10  A    between atoms: C_15  and  C_18 
REMARK       I    between atoms: C_24  and  N_25 
ROOT
HETATM    1  N           1     -34.586  -2.335 -13.219  0.00  0.00    -0.345 N 
HETATM    2  O           1     -35.785  -3.116 -11.505  0.00  0.00    -0.271 OA
HETATM    3  C           1     -34.842  -3.263 -12.245  0.00  0.00     0.249 C 
HETATM    4  H           1     -33.795  -2.459 -13.839  0.00  0.00     0.163 HD
ENDROOT
BRANCH   1   5
HETATM    5  C           1     -35.447  -1.178 -13.362  0.00  0.00     0.186 C 
BRANCH   5   6
HETATM    6  C           1     -35.316  -0.625 -14.760  0.00  0.00     0.196 C 
HETATM    7  O           1     -35.980  -1.124 -15.695  0.00  0.00    -0.646 OA
HETATM    8  O           1     -34.543   0.331 -14.983  0.00  0.00    -0.646 OA
ENDBRANCH   5   6
BRANCH   5   9
HETATM    9  C           1     -35.037  -0.114 -12.354  0.00  0.00     0.045 C 
BRANCH   9  10
HETATM   10  C           1     -36.281   0.574 -11.806  0.00  0.00     0.105 C 
BRANCH  10  11
HETATM   11  C           1     -36.954  -0.327 -10.802  0.00  0.00     0.215 C 
HETATM   12  O           1     -38.072  -0.735 -11.010  0.00  0.00    -0.274 OA
HETATM   13  N           1     -36.299  -0.684  -9.654  0.00  0.00    -0.370 N 
HETATM   14  H           1     -36.750  -1.289  -8.980  0.00  0.00     0.159 HD
HETATM   15  H           1     -35.362  -0.343  -9.479  0.00  0.00     0.159 HD
ENDBRANCH  10  11
ENDBRANCH   9  10
ENDBRANCH   5   9
ENDBRANCH   1   5
BRANCH   3  16
HETATM   16  C           1     -33.946  -4.468 -12.096  0.00  0.00     0.275 C 
BRANCH  16  17
HETATM   17  C           1     -34.502  -5.384 -11.014  0.00  0.00     0.053 C 
BRANCH  17  18
HETATM   18  C           1     -33.548  -6.550 -10.793  0.00  0.00     0.115 C 
BRANCH  18  19
HETATM   19  C           1     -34.270  -7.664 -10.077  0.00  0.00     0.172 C 
HETATM   20  O           1     -33.781  -8.814 -10.056  0.00  0.00    -0.648 OA
HETATM   21  O           1     -35.358  -7.437  -9.504  0.00  0.00    -0.648 OA
ENDBRANCH  18  19
ENDBRANCH  17  18
ENDBRANCH  16  17
BRANCH  16  22
HETATM   22  N           1     -32.567  -4.020 -11.710  0.00  0.00    -0.066 N 
HETATM   23  H           1     -32.229  -3.305 -12.393  0.00  0.00     0.275 HD
HETATM   24  H           1     -32.594  -3.601 -10.753  0.00  0.00     0.275 HD
HETATM   25  H           1     -31.920  -4.840 -11.714  0.00  0.00     0.275 HD
ENDBRANCH  16  22
ENDBRANCH   3  16
TORSDOF 10
ENDMDL
MODEL 9
REMARK VINA RESULT:      -6.0      2.486      7.991
REMARK  10 active torsions:
REMARK  status: ('A' for Active; 'I' for Inactive)
REMARK    1  A    between atoms: N_1  and  C_5 
REMARK       I    between atoms: N_1  and  C_16 
REMARK    2  A    between atoms: C_4  and  C_5 
REMARK    3  A    between atoms: C_5  and  C_6 
REMARK    4  A    between atoms: C_6  and  C_7 
REMARK    5  A    between atoms: C_7  and  C_24 
REMARK    6  A    between atoms: C_13  and  C_16 
REMARK    7  A    between atoms: C_13  and  C_14 
REMARK    8  A    between atoms: C_13  and  N_17 
REMARK    9  A    between atoms: C_14  and  C_15 
REMARK   10  A    between atoms: C_15  and  C_18 
REMARK       I    between atoms: C_24  and  N_25 
ROOT
HETATM    1  N           1     -21.466  -5.709  -5.839  0.00  0.00    -0.345 N 
HETATM    2  O           1     -19.590  -4.500  -5.772  0.00  0.00    -0.271 OA
HETATM    3  C           1     -20.638  -4.733  -6.325  0.00  0.00     0.249 C 
HETATM    4  H           1     -22.344  -5.904  -6.303  0.00  0.00     0.163 HD
ENDROOT
BRANCH   1   5
HETATM    5  C           1     -21.084  -6.464  -4.662  0.00  0.00     0.186 C 
BRANCH   5   6
HETATM    6  C           1     -20.687  -7.862  -5.069  0.00  0.00     0.196 C 
HETATM    7  O           1     -19.669  -8.043  -5.773  0.00  0.00    -0.646 OA
HETATM    8  O           1     -21.376  -8.838  -4.703  0.00  0.00    -0.646 OA
ENDBRANCH   5   6
BRANCH   5   9
HETATM    9  C           1     -22.261  -6.530  -3.699  0.00  0.00     0.045 C 
BRANCH   9  10
HETATM   10  C           1     -21.796  -6.144  -2.301  0.00  0.00     0.105 C 
BRANCH  10  11
HETATM   11  C           1     -22.111  -7.261  -1.338  0.00  0.00     0.215 C 
HETATM   12  O           1     -22.830  -7.056  -0.389  0.00  0.00    -0.274 OA
HETATM   13  N           1     -21.583  -8.508  -1.539  0.00  0.00    -0.370 N 
HETATM   14  H           1     -21.794  -9.257  -0.893  0.00  0.00     0.159 HD
HETATM   15  H           1     -20.980  -8.680  -2.334  0.00  0.00     0.159 HD
ENDBRANCH  10  11
ENDBRANCH   9  10
ENDBRANCH   5   9
ENDBRANCH   1   5
BRANCH   3  16
HETATM   16  C           1     -21.036  -3.947  -7.551  0.00  0.00     0.275 C 
BRANCH  16  17
HETATM   17  C           1     -22.298  -4.550  -8.153  0.00  0.00     0.053 C 
BRANCH  17  18
HETATM   18  C           1     -22.769  -3.688  -9.317  0.00  0.00     0.115 C 
BRANCH  18  19
HETATM   19  C           1     -22.700  -4.487 -10.595  0.00  0.00     0.172 C 
HETATM   20  O           1     -23.725  -5.048 -11.038  0.00  0.00    -0.648 OA
HETATM   21  O           1     -21.617  -4.586 -11.213  0.00  0.00    -0.648 OA
ENDBRANCH  18  19
ENDBRANCH  17  18
ENDBRANCH  16  17
BRANCH  16  22
HETATM   22  N           1     -19.926  -4.000  -8.559  0.00  0.00    -0.066 N 
HETATM   23  H           1     -19.054  -4.344  -8.099  0.00  0.00     0.275 HD
HETATM   24  H           1     -20.192  -4.649  -9.333  0.00  0.00     0.275 HD
HETATM   25  H           1     -19.762  -3.044  -8.946  0.00  0.00     0.275 HD
ENDBRANCH  16  22
ENDBRANCH   3  16
TORSDOF 10
ENDMDL
