MODEL 1
REMARK VINA RESULT:      -6.6      0.000      0.000
REMARK  8 active torsions:
REMARK  status: ('A' for Active; 'I' for Inactive)
REMARK    1  A    between atoms: N_2  and  C_12 
REMARK       I    between atoms: N_2  and  C_3 
REMARK    2  A    between atoms: C_3  and  C_4 
REMARK    3  A    between atoms: C_4  and  C_5 
REMARK    4  A    between atoms: C_4  and  N_15 
REMARK    5  A    between atoms: C_5  and  C_6 
REMARK       I    between atoms: C_6  and  N_7 
REMARK    6  A    between atoms: C_9  and  C_11 
REMARK    7  A    between atoms: C_11  and  C_12 
REMARK    8  A    between atoms: C_12  and  C_13 
ROOT
HETATM    1  N           1     -35.104  -1.168 -12.296  0.00  0.00    -0.344 N 
HETATM    2  C           1     -34.413  -2.347 -12.392  0.00  0.00     0.249 C 
HETATM    3  O           1     -34.489  -3.010 -13.398  0.00  0.00    -0.271 OA
HETATM    4  H           1     -35.041  -0.612 -11.453  0.00  0.00     0.163 HD
ENDROOT
BRANCH   2   5
HETATM    5  C           1     -33.557  -2.816 -11.241  0.00  0.00     0.283 C 
BRANCH   5   6
HETATM    6  C           1     -34.129  -4.110 -10.677  0.00  0.00     0.145 C 
BRANCH   6   7
HETATM    7  C           1     -33.349  -5.282 -11.219  0.00  0.00     0.217 C 
HETATM    8  N           1     -32.318  -5.071 -12.095  0.00  0.00    -0.370 N 
HETATM    9  H           1     -31.794  -5.858 -12.459  0.00  0.00     0.159 HD
HETATM   10  H           1     -32.078  -4.131 -12.378  0.00  0.00     0.159 HD
HETATM   11  O           1     -33.634  -6.406 -10.882  0.00  0.00    -0.274 OA
ENDBRANCH   6   7
ENDBRANCH   5   6
BRANCH   5  12
HETATM   12  N           1     -33.545  -1.767 -10.168  0.00  0.00    -0.066 N 
HETATM   13  H           1     -32.613  -1.764  -9.695  0.00  0.00     0.275 HD
HETATM   14  H           1     -33.720  -0.830 -10.596  0.00  0.00     0.275 HD
HETATM   15  H           1     -34.292  -1.976  -9.468  0.00  0.00     0.275 HD
ENDBRANCH   5  12
ENDBRANCH   2   5
BRANCH   1  16
HETATM   16  C           1     -35.926  -0.717 -13.402  0.00  0.00     0.195 C 
BRANCH  16  17
HETATM   17  C           1     -37.155   0.001 -12.860  0.00  0.00     0.149 C 
BRANCH  17  18
HETATM   18  C           1     -37.209  -0.154 -11.360  0.00  0.00     0.175 C 
HETATM   19  O           1     -36.537   0.605 -10.629  0.00  0.00    -0.648 OA
HETATM   20  O           1     -37.925  -1.041 -10.849  0.00  0.00    -0.648 OA
ENDBRANCH  17  18
ENDBRANCH  16  17
BRANCH  16  21
HETATM   21  C           1     -35.129   0.229 -14.266  0.00  0.00     0.197 C 
HETATM   22  O           1     -34.817  -0.101 -15.430  0.00  0.00    -0.646 OA
HETATM   23  O           1     -34.781   1.343 -13.818  0.00  0.00    -0.646 OA
ENDBRANCH  16  21
ENDBRANCH   1  16
TORSDOF 8
ENDMDL
MODEL 2
REMARK VINA RESULT:      -6.4      1.624      3.083
REMARK  8 active torsions:
REMARK  status: ('A' for Active; 'I' for Inactive)
REMARK    1  A    between atoms: N_2  and  C_12 
REMARK       I    between atoms: N_2  and  C_3 
REMARK    2  A    between atoms: C_3  and  C_4 
REMARK    3  A    between atoms: C_4  and  C_5 
REMARK    4  A    between atoms: C_4  and  N_15 
REMARK    5  A    between atoms: C_5  and  C_6 
REMARK       I    between atoms: C_6  and  N_7 
REMARK    6  A    between atoms: C_9  and  C_11 
REMARK    7  A    between atoms: C_11  and  C_12 
REMARK    8  A    between atoms: C_12  and  C_13 
ROOT
HETATM    1  N           1     -35.090  -1.708 -12.894  0.00  0.00    -0.344 N 
HETATM    2  C           1     -34.302  -2.558 -12.164  0.00  0.00     0.249 C 
HETATM    3  O           1     -33.701  -2.145 -11.200  0.00  0.00    -0.271 OA
HETATM    4  H           1     -35.593  -2.054 -13.701  0.00  0.00     0.163 HD
ENDROOT
BRANCH   2   5
HETATM    5  C           1     -34.184  -4.008 -12.562  0.00  0.00     0.283 C 
BRANCH   5   6
HETATM    6  C           1     -33.221  -4.718 -11.620  0.00  0.00     0.145 C 
BRANCH   6   7
HETATM    7  C           1     -33.962  -5.782 -10.850  0.00  0.00     0.217 C 
HETATM    8  N           1     -33.477  -7.062 -10.812  0.00  0.00    -0.370 N 
HETATM    9  H           1     -33.975  -7.777 -10.295  0.00  0.00     0.159 HD
HETATM   10  H           1     -32.623  -7.294 -11.301  0.00  0.00     0.159 HD
HETATM   11  O           1     -34.983  -5.506 -10.267  0.00  0.00    -0.274 OA
ENDBRANCH   6   7
ENDBRANCH   5   6
BRANCH   5  12
HETATM   12  N           1     -33.667  -4.100 -13.967  0.00  0.00    -0.066 N 
HETATM   13  H           1     -33.275  -5.054 -14.133  0.00  0.00     0.275 HD
HETATM   14  H           1     -34.448  -3.923 -14.638  0.00  0.00     0.275 HD
HETATM   15  H           1     -32.917  -3.386 -14.110  0.00  0.00     0.275 HD
ENDBRANCH   5  12
ENDBRANCH   2   5
BRANCH   1  16
HETATM   16  C           1     -35.203  -0.314 -12.511  0.00  0.00     0.195 C 
BRANCH  16  17
HETATM   17  C           1     -35.412   0.538 -13.756  0.00  0.00     0.149 C 
BRANCH  17  18
HETATM   18  C           1     -35.747  -0.353 -14.926  0.00  0.00     0.175 C 
HETATM   19  O           1     -36.932  -0.697 -15.130  0.00  0.00    -0.648 OA
HETATM   20  O           1     -34.842  -0.747 -15.692  0.00  0.00    -0.648 OA
ENDBRANCH  17  18
ENDBRANCH  16  17
BRANCH  16  21
HETATM   21  C           1     -36.378  -0.144 -11.580  0.00  0.00     0.197 C 
HETATM   22  O           1     -37.471  -0.689 -11.847  0.00  0.00    -0.646 OA
HETATM   23  O           1     -36.259   0.542 -10.542  0.00  0.00    -0.646 OA
ENDBRANCH  16  21
ENDBRANCH   1  16
TORSDOF 8
ENDMDL
MODEL 3
REMARK VINA RESULT:      -6.3     11.196     13.299
REMARK  8 active torsions:
REMARK  status: ('A' for Active; 'I' for Inactive)
REMARK    1  A    between atoms: N_2  and  C_12 
REMARK       I    between atoms: N_2  and  C_3 
REMARK    2  A    between atoms: C_3  and  C_4 
REMARK    3  A    between atoms: C_4  and  C_5 
REMARK    4  A    between atoms: C_4  and  N_15 
REMARK    5  A    between atoms: C_5  and  C_6 
REMARK       I    between atoms: C_6  and  N_7 
REMARK    6  A    between atoms: C_9  and  C_11 
REMARK    7  A    between atoms: C_11  and  C_12 
REMARK    8  A    between atoms: C_12  and  C_13 
ROOT
HETATM    1  N           1     -22.419  -3.930 -11.221  0.00  0.00    -0.344 N 
HETATM    2  C           1     -22.542  -2.908 -12.124  0.00  0.00     0.249 C 
HETATM    3  O           1     -22.190  -1.792 -11.824  0.00  0.00    -0.271 OA
HETATM    4  H           1     -22.713  -4.865 -11.472  0.00  0.00     0.163 HD
ENDROOT
BRANCH   2   5
HETATM    5  C           1     -23.114  -3.176 -13.494  0.00  0.00     0.283 C 
BRANCH   5   6
HETATM    6  C           1     -23.910  -1.964 -13.959  0.00  0.00     0.145 C 
BRANCH   6   7
HETATM    7  C           1     -23.266  -1.382 -15.193  0.00  0.00     0.217 C 
HETATM    8  N           1     -23.639  -0.143 -15.639  0.00  0.00    -0.370 N 
HETATM    9  H           1     -23.207   0.248 -16.467  0.00  0.00     0.159 HD
HETATM   10  H           1     -24.346   0.383 -15.142  0.00  0.00     0.159 HD
HETATM   11  O           1     -22.422  -2.008 -15.787  0.00  0.00    -0.274 OA
ENDBRANCH   6   7
ENDBRANCH   5   6
BRANCH   5  12
HETATM   12  N           1     -24.018  -4.372 -13.433  0.00  0.00    -0.066 N 
HETATM   13  H           1     -24.475  -4.416 -12.494  0.00  0.00     0.275 HD
HETATM   14  H           1     -24.750  -4.293 -14.174  0.00  0.00     0.275 HD
HETATM   15  H           1     -23.457  -5.241 -13.588  0.00  0.00     0.275 HD
ENDBRANCH   5  12
ENDBRANCH   2   5
BRANCH   1  16
HETATM   16  C           1     -21.869  -3.673  -9.904  0.00  0.00     0.195 C 
BRANCH  16  17
HETATM   17  C           1     -22.911  -4.007  -8.845  0.00  0.00     0.149 C 
BRANCH  17  18
HETATM   18  C           1     -24.290  -3.940  -9.455  0.00  0.00     0.175 C 
HETATM   19  O           1     -24.827  -4.977  -9.899  0.00  0.00    -0.648 OA
HETATM   20  O           1     -24.893  -2.848  -9.516  0.00  0.00    -0.648 OA
ENDBRANCH  17  18
ENDBRANCH  16  17
BRANCH  16  21
HETATM   21  C           1     -20.645  -4.531  -9.696  0.00  0.00     0.197 C 
HETATM   22  O           1     -20.363  -4.949  -8.552  0.00  0.00    -0.646 OA
HETATM   23  O           1     -19.913  -4.822 -10.666  0.00  0.00    -0.646 OA
ENDBRANCH  16  21
ENDBRANCH   1  16
TORSDOF 8
ENDMDL
MODEL 4
REMARK VINA RESULT:      -6.1      2.323      5.340
REMARK  8 active torsions:
REMARK  status: ('A' for Active; 'I' for Inactive)
REMARK    1  A    between atoms: N_2  and  C_12 
REMARK       I    between atoms: N_2  and  C_3 
REMARK    2  A    between atoms: C_3  and  C_4 
REMARK    3  A    between atoms: C_4  and  C_5 
REMARK    4  A    between atoms: C_4  and  N_15 
REMARK    5  A    between atoms: C_5  and  C_6 
REMARK       I    between atoms: C_6  and  N_7 
REMARK    6  A    between atoms: C_9  and  C_11 
REMARK    7  A    between atoms: C_11  and  C_12 
REMARK    8  A    between atoms: C_12  and  C_13 
ROOT
HETATM    1  N           1     -34.813  -1.235 -13.026  0.00  0.00    -0.344 N 
HETATM    2  C           1     -35.920  -0.668 -13.600  0.00  0.00     0.249 C 
HETATM    3  O           1     -37.024  -1.002 -13.241  0.00  0.00    -0.271 OA
HETATM    4  H           1     -33.888  -0.955 -13.326  0.00  0.00     0.163 HD
ENDROOT
BRANCH   2   5
HETATM    5  C           1     -35.760   0.375 -14.678  0.00  0.00     0.283 C 
BRANCH   5   6
HETATM    6  C           1     -34.824  -0.150 -15.759  0.00  0.00     0.145 C 
BRANCH   6   7
HETATM    7  C           1     -35.550  -1.170 -16.600  0.00  0.00     0.217 C 
HETATM    8  N           1     -34.975  -2.389 -16.845  0.00  0.00    -0.370 N 
HETATM    9  H           1     -35.462  -3.074 -17.410  0.00  0.00     0.159 HD
HETATM   10  H           1     -34.065  -2.605 -16.461  0.00  0.00     0.159 HD
HETATM   11  O           1     -36.637  -0.914 -17.059  0.00  0.00    -0.274 OA
ENDBRANCH   6   7
ENDBRANCH   5   6
BRANCH   5  12
HETATM   12  N           1     -35.184   1.625 -14.083  0.00  0.00    -0.066 N 
HETATM   13  H           1     -34.583   2.104 -14.791  0.00  0.00     0.275 HD
HETATM   14  H           1     -35.959   2.264 -13.796  0.00  0.00     0.275 HD
HETATM   15  H           1     -34.608   1.379 -13.246  0.00  0.00     0.275 HD
ENDBRANCH   5  12
ENDBRANCH   2   5
BRANCH   1  16
HETATM   16  C           1     -34.966  -2.237 -11.990  0.00  0.00     0.195 C 
BRANCH  16  17
HETATM   17  C           1     -33.963  -3.360 -12.218  0.00  0.00     0.149 C 
BRANCH  17  18
HETATM   18  C           1     -34.418  -4.216 -13.374  0.00  0.00     0.175 C 
HETATM   19  O           1     -35.046  -5.275 -13.157  0.00  0.00    -0.648 OA
HETATM   20  O           1     -34.167  -3.867 -14.547  0.00  0.00    -0.648 OA
ENDBRANCH  17  18
ENDBRANCH  16  17
BRANCH  16  21
HETATM   21  C           1     -34.719  -1.606 -10.641  0.00  0.00     0.197 C 
HETATM   22  O           1     -33.594  -1.702 -10.104  0.00  0.00    -0.646 OA
HETATM   23  O           1     -35.638  -0.989 -10.062  0.00  0.00    -0.646 OA
ENDBRANCH  16  21
ENDBRANCH   1  16
TORSDOF 8
ENDMDL
MODEL 5
REMARK VINA RESULT:      -6.0      2.737      5.003
REMARK  8 active torsions:
REMARK  status: ('A' for Active; 'I' for Inactive)
REMARK    1  A    between atoms: N_2  and  C_12 
REMARK       I    between atoms: N_2  and  C_3 
REMARK    2  A    between atoms: C_3  and  C_4 
REMARK    3  A    between atoms: C_4  and  C_5 
REMARK    4  A    between atoms: C_4  and  N_15 
REMARK    5  A    between atoms: C_5  and  C_6 
REMARK       I    between atoms: C_6  and  N_7 
REMARK    6  A    between atoms: C_9  and  C_11 
REMARK    7  A    between atoms: C_11  and  C_12 
REMARK    8  A    between atoms: C_12  and  C_13 
ROOT
HETATM    1  N           1     -36.281  -0.215 -12.246  0.00  0.00    -0.344 N 
HETATM    2  C           1     -36.881  -0.249 -13.477  0.00  0.00     0.249 C 
HETATM    3  O           1     -38.005  -0.677 -13.588  0.00  0.00    -0.271 OA
HETATM    4  H           1     -35.339   0.144 -12.153  0.00  0.00     0.163 HD
ENDROOT
BRANCH   2   5
HETATM    5  C           1     -36.140   0.251 -14.693  0.00  0.00     0.283 C 
BRANCH   5   6
HETATM    6  C           1     -35.074  -0.762 -15.089  0.00  0.00     0.145 C 
BRANCH   6   7
HETATM    7  C           1     -35.373  -1.294 -16.468  0.00  0.00     0.217 C 
HETATM    8  N           1     -36.377  -0.735 -17.214  0.00  0.00    -0.370 N 
HETATM    9  H           1     -36.578  -1.092 -18.140  0.00  0.00     0.159 HD
HETATM   10  H           1     -36.917   0.033 -16.840  0.00  0.00     0.159 HD
HETATM   11  O           1     -34.729  -2.212 -16.916  0.00  0.00    -0.274 OA
ENDBRANCH   6   7
ENDBRANCH   5   6
BRANCH   5  12
HETATM   12  N           1     -35.487   1.563 -14.375  0.00  0.00    -0.066 N 
HETATM   13  H           1     -35.316   1.628 -13.347  0.00  0.00     0.275 HD
HETATM   14  H           1     -34.578   1.632 -14.885  0.00  0.00     0.275 HD
HETATM   15  H           1     -36.114   2.345 -14.674  0.00  0.00     0.275 HD
ENDBRANCH   5  12
ENDBRANCH   2   5
BRANCH   1  16
HETATM   16  C           1     -36.993  -0.695 -11.078  0.00  0.00     0.195 C 
BRANCH  16  17
HETATM   17  C           1     -36.243  -1.876 -10.476  0.00  0.00     0.149 C 
BRANCH  17  18
HETATM   18  C           1     -34.951  -2.088 -11.227  0.00  0.00     0.175 C 
HETATM   19  O           1     -33.927  -1.451 -10.900  0.00  0.00    -0.648 OA
HETATM   20  O           1     -34.906  -2.901 -12.175  0.00  0.00    -0.648 OA
ENDBRANCH  17  18
ENDBRANCH  16  17
BRANCH  16  21
HETATM   21  C           1     -37.089   0.414 -10.059  0.00  0.00     0.197 C 
HETATM   22  O           1     -38.071   1.188 -10.069  0.00  0.00    -0.646 OA
HETATM   23  O           1     -36.187   0.560  -9.206  0.00  0.00    -0.646 OA
ENDBRANCH  16  21
ENDBRANCH   1  16
TORSDOF 8
ENDMDL
MODEL 6
REMARK VINA RESULT:      -6.0     11.707     14.288
REMARK  8 active torsions:
REMARK  status: ('A' for Active; 'I' for Inactive)
REMARK    1  A    between atoms: N_2  and  C_12 
REMARK       I    between atoms: N_2  and  C_3 
REMARK    2  A    between atoms: C_3  and  C_4 
REMARK    3  A    between atoms: C_4  and  C_5 
REMARK    4  A    between atoms: C_4  and  N_15 
REMARK    5  A    between atoms: C_5  and  C_6 
REMARK       I    between atoms: C_6  and  N_7 
REMARK    6  A    between atoms: C_9  and  C_11 
REMARK    7  A    between atoms: C_11  and  C_12 
REMARK    8  A    between atoms: C_12  and  C_13 
ROOT
HETATM    1  N           1     -21.605  -3.962  -9.786  0.00  0.00    -0.344 N 
HETATM    2  C           1     -22.643  -3.942 -10.679  0.00  0.00     0.249 C 
HETATM    3  O           1     -23.610  -4.643 -10.496  0.00  0.00    -0.271 OA
HETATM    4  H           1     -20.795  -3.376  -9.938  0.00  0.00     0.163 HD
ENDROOT
BRANCH   2   5
HETATM    5  C           1     -22.578  -3.045 -11.891  0.00  0.00     0.283 C 
BRANCH   5   6
HETATM    6  C           1     -23.969  -2.910 -12.497  0.00  0.00     0.145 C 
BRANCH   6   7
HETATM    7  C           1     -23.851  -2.437 -13.925  0.00  0.00     0.217 C 
HETATM    8  N           1     -23.962  -1.104 -14.215  0.00  0.00    -0.370 N 
HETATM    9  H           1     -23.883  -0.786 -15.174  0.00  0.00     0.159 HD
HETATM   10  H           1     -24.123  -0.436 -13.473  0.00  0.00     0.159 HD
HETATM   11  O           1     -23.659  -3.234 -14.812  0.00  0.00    -0.274 OA
ENDBRANCH   6   7
ENDBRANCH   5   6
BRANCH   5  12
HETATM   12  N           1     -21.647  -3.641 -12.905  0.00  0.00    -0.066 N 
HETATM   13  H           1     -21.700  -3.091 -13.792  0.00  0.00     0.275 HD
HETATM   14  H           1     -20.670  -3.615 -12.537  0.00  0.00     0.275 HD
HETATM   15  H           1     -21.923  -4.631 -13.091  0.00  0.00     0.275 HD
ENDBRANCH   5  12
ENDBRANCH   2   5
BRANCH   1  16
HETATM   16  C           1     -21.666  -4.824  -8.621  0.00  0.00     0.195 C 
BRANCH  16  17
HETATM   17  C           1     -20.264  -5.301  -8.269  0.00  0.00     0.149 C 
BRANCH  17  18
HETATM   18  C           1     -20.289  -5.997  -6.930  0.00  0.00     0.175 C 
HETATM   19  O           1     -19.717  -5.481  -5.947  0.00  0.00    -0.648 OA
HETATM   20  O           1     -20.882  -7.090  -6.806  0.00  0.00    -0.648 OA
ENDBRANCH  17  18
ENDBRANCH  16  17
BRANCH  16  21
HETATM   21  C           1     -22.245  -4.056  -7.459  0.00  0.00     0.197 C 
HETATM   22  O           1     -21.686  -3.011  -7.061  0.00  0.00    -0.646 OA
HETATM   23  O           1     -23.281  -4.465  -6.893  0.00  0.00    -0.646 OA
ENDBRANCH  16  21
ENDBRANCH   1  16
TORSDOF 8
ENDMDL
MODEL 7
REMARK VINA RESULT:      -6.0     12.285     14.396
REMARK  8 active torsions:
REMARK  status: ('A' for Active; 'I' for Inactive)
REMARK    1  A    between atoms: N_2  and  C_12 
REMARK       I    between atoms: N_2  and  C_3 
REMARK    2  A    between atoms: C_3  and  C_4 
REMARK    3  A    between atoms: C_4  and  C_5 
REMARK    4  A    between atoms: C_4  and  N_15 
REMARK    5  A    between atoms: C_5  and  C_6 
REMARK       I    between atoms: C_6  and  N_7 
REMARK    6  A    between atoms: C_9  and  C_11 
REMARK    7  A    between atoms: C_11  and  C_12 
REMARK    8  A    between atoms: C_12  and  C_13 
ROOT
HETATM    1  N           1     -22.308  -4.883  -8.842  0.00  0.00    -0.344 N 
HETATM    2  C           1     -21.705  -4.638  -7.636  0.00  0.00     0.249 C 
HETATM    3  O           1     -21.574  -3.502  -7.247  0.00  0.00    -0.271 OA
HETATM    4  H           1     -22.418  -5.835  -9.168  0.00  0.00     0.163 HD
ENDROOT
BRANCH   2   5
HETATM    5  C           1     -21.206  -5.787  -6.795  0.00  0.00     0.283 C 
BRANCH   5   6
HETATM    6  C           1     -21.019  -5.321  -5.357  0.00  0.00     0.145 C 
BRANCH   6   7
HETATM    7  C           1     -21.479  -6.403  -4.413  0.00  0.00     0.217 C 
HETATM    8  N           1     -21.919  -6.075  -3.159  0.00  0.00    -0.370 N 
HETATM    9  H           1     -22.229  -6.802  -2.525  0.00  0.00     0.159 HD
HETATM   10  H           1     -21.935  -5.108  -2.865  0.00  0.00     0.159 HD
HETATM   11  O           1     -21.461  -7.559  -4.763  0.00  0.00    -0.274 OA
ENDBRANCH   6   7
ENDBRANCH   5   6
BRANCH   5  12
HETATM   12  N           1     -19.893  -6.270  -7.338  0.00  0.00    -0.066 N 
HETATM   13  H           1     -19.667  -7.203  -6.925  0.00  0.00     0.275 HD
HETATM   14  H           1     -19.957  -6.356  -8.377  0.00  0.00     0.275 HD
HETATM   15  H           1     -19.142  -5.587  -7.090  0.00  0.00     0.275 HD
ENDBRANCH   5  12
ENDBRANCH   2   5
BRANCH   1  16
HETATM   16  C           1     -22.788  -3.780  -9.650  0.00  0.00     0.195 C 
BRANCH  16  17
HETATM   17  C           1     -22.239  -3.911 -11.065  0.00  0.00     0.149 C 
BRANCH  17  18
HETATM   18  C           1     -20.739  -3.748 -11.041  0.00  0.00     0.175 C 
HETATM   19  O           1     -20.009  -4.722 -10.759  0.00  0.00    -0.648 OA
HETATM   20  O           1     -20.227  -2.638 -11.303  0.00  0.00    -0.648 OA
ENDBRANCH  17  18
ENDBRANCH  16  17
BRANCH  16  21
HETATM   21  C           1     -24.296  -3.806  -9.690  0.00  0.00     0.197 C 
HETATM   22  O           1     -24.897  -4.885  -9.886  0.00  0.00    -0.646 OA
HETATM   23  O           1     -24.945  -2.750  -9.527  0.00  0.00    -0.646 OA
ENDBRANCH  16  21
ENDBRANCH   1  16
TORSDOF 8
ENDMDL
MODEL 8
REMARK VINA RESULT:      -5.9     12.077     13.781
REMARK  8 active torsions:
REMARK  status: ('A' for Active; 'I' for Inactive)
REMARK    1  A    between atoms: N_2  and  C_12 
REMARK       I    between atoms: N_2  and  C_3 
REMARK    2  A    between atoms: C_3  and  C_4 
REMARK    3  A    between atoms: C_4  and  C_5 
REMARK    4  A    between atoms: C_4  and  N_15 
REMARK    5  A    between atoms: C_5  and  C_6 
REMARK       I    between atoms: C_6  and  N_7 
REMARK    6  A    between atoms: C_9  and  C_11 
REMARK    7  A    between atoms: C_11  and  C_12 
REMARK    8  A    between atoms: C_12  and  C_13 
ROOT
HETATM    1  N           1     -21.835  -3.828  -9.766  0.00  0.00    -0.344 N 
HETATM    2  C           1     -20.658  -4.268  -9.223  0.00  0.00     0.249 C 
HETATM    3  O           1     -19.984  -5.076  -9.817  0.00  0.00    -0.271 OA
HETATM    4  H           1     -22.400  -3.151  -9.268  0.00  0.00     0.163 HD
ENDROOT
BRANCH   2   5
HETATM    5  C           1     -20.202  -3.745  -7.882  0.00  0.00     0.283 C 
BRANCH   5   6
HETATM    6  C           1     -19.390  -4.817  -7.168  0.00  0.00     0.145 C 
BRANCH   6   7
HETATM    7  C           1     -20.299  -5.627  -6.278  0.00  0.00     0.217 C 
HETATM    8  N           1     -20.860  -6.785  -6.746  0.00  0.00    -0.370 N 
HETATM    9  H           1     -21.469  -7.330  -6.148  0.00  0.00     0.159 HD
HETATM   10  H           1     -20.665  -7.097  -7.688  0.00  0.00     0.159 HD
HETATM   11  O           1     -20.531  -5.256  -5.153  0.00  0.00    -0.274 OA
ENDBRANCH   6   7
ENDBRANCH   5   6
BRANCH   5  12
HETATM   12  N           1     -21.400  -3.390  -7.052  0.00  0.00    -0.066 N 
HETATM   13  H           1     -22.263  -3.766  -7.506  0.00  0.00     0.275 HD
HETATM   14  H           1     -21.298  -3.807  -6.099  0.00  0.00     0.275 HD
HETATM   15  H           1     -21.472  -2.351  -6.971  0.00  0.00     0.275 HD
ENDBRANCH   5  12
ENDBRANCH   2   5
BRANCH   1  16
HETATM   16  C           1     -22.273  -4.330 -11.054  0.00  0.00     0.195 C 
BRANCH  16  17
HETATM   17  C           1     -23.691  -4.873 -10.931  0.00  0.00     0.149 C 
BRANCH  17  18
HETATM   18  C           1     -24.469  -4.033  -9.948  0.00  0.00     0.175 C 
HETATM   19  O           1     -24.231  -4.123  -8.724  0.00  0.00    -0.648 OA
HETATM   20  O           1     -25.350  -3.247 -10.357  0.00  0.00    -0.648 OA
ENDBRANCH  17  18
ENDBRANCH  16  17
BRANCH  16  21
HETATM   21  C           1     -22.248  -3.210 -12.064  0.00  0.00     0.197 C 
HETATM   22  O           1     -22.876  -3.324 -13.139  0.00  0.00    -0.646 OA
HETATM   23  O           1     -21.598  -2.169 -11.828  0.00  0.00    -0.646 OA
ENDBRANCH  16  21
ENDBRANCH   1  16
TORSDOF 8
ENDMDL
MODEL 9
REMARK VINA RESULT:      -5.8      2.060      3.372
REMARK  8 active torsions:
REMARK  status: ('A' for Active; 'I' for Inactive)
REMARK    1  A    between atoms: N_2  and  C_12 
REMARK       I    between atoms: N_2  and  C_3 
REMARK    2  A    between atoms: C_3  and  C_4 
REMARK    3  A    between atoms: C_4  and  C_5 
REMARK    4  A    between atoms: C_4  and  N_15 
REMARK    5  A    between atoms: C_5  and  C_6 
REMARK       I    between atoms: C_6  and  N_7 
REMARK    6  A    between atoms: C_9  and  C_11 
REMARK    7  A    between atoms: C_11  and  C_12 
REMARK    8  A    between atoms: C_12  and  C_13 
ROOT
HETATM    1  N           1     -35.040  -0.952 -14.076  0.00  0.00    -0.344 N 
HETATM    2  C           1     -35.581  -1.178 -12.838  0.00  0.00     0.249 C 
HETATM    3  O           1     -36.723  -0.854 -12.610  0.00  0.00    -0.271 OA
HETATM    4  H           1     -34.084  -1.223 -14.267  0.00  0.00     0.163 HD
ENDROOT
BRANCH   2   5
HETATM    5  C           1     -34.753  -1.832 -11.760  0.00  0.00     0.283 C 
BRANCH   5   6
HETATM    6  C           1     -34.913  -3.345 -11.844  0.00  0.00     0.145 C 
BRANCH   6   7
HETATM    7  C           1     -33.928  -3.900 -12.843  0.00  0.00     0.217 C 
HETATM    8  N           1     -32.737  -4.419 -12.412  0.00  0.00    -0.370 N 
HETATM    9  H           1     -32.075  -4.792 -13.082  0.00  0.00     0.159 HD
HETATM   10  H           1     -32.516  -4.429 -11.425  0.00  0.00     0.159 HD
HETATM   11  O           1     -34.190  -3.889 -14.021  0.00  0.00    -0.274 OA
ENDBRANCH   6   7
ENDBRANCH   5   6
BRANCH   5  12
HETATM   12  N           1     -35.216  -1.355 -10.416  0.00  0.00    -0.066 N 
HETATM   13  H           1     -35.810  -2.090  -9.971  0.00  0.00     0.275 HD
HETATM   14  H           1     -34.386  -1.165  -9.810  0.00  0.00     0.275 HD
HETATM   15  H           1     -35.772  -0.478 -10.530  0.00  0.00     0.275 HD
ENDBRANCH   5  12
ENDBRANCH   2   5
BRANCH   1  16
HETATM   16  C           1     -35.836  -0.323 -15.112  0.00  0.00     0.195 C 
BRANCH  16  17
HETATM   17  C           1     -35.389   1.122 -15.288  0.00  0.00     0.149 C 
BRANCH  17  18
HETATM   18  C           1     -36.448   1.890 -16.039  0.00  0.00     0.175 C 
HETATM   19  O           1     -36.131   2.891 -16.718  0.00  0.00    -0.648 OA
HETATM   20  O           1     -37.642   1.526 -15.983  0.00  0.00    -0.648 OA
ENDBRANCH  17  18
ENDBRANCH  16  17
BRANCH  16  21
HETATM   21  C           1     -35.650  -1.070 -16.410  0.00  0.00     0.197 C 
HETATM   22  O           1     -36.545  -1.037 -17.282  0.00  0.00    -0.646 OA
HETATM   23  O           1     -34.604  -1.722 -16.612  0.00  0.00    -0.646 OA
ENDBRANCH  16  21
ENDBRANCH   1  16
TORSDOF 8
ENDMDL
