MODEL 1
REMARK VINA RESULT:      -7.9      0.000      0.000
REMARK  11 active torsions:
REMARK  status: ('A' for Active; 'I' for Inactive)
REMARK    1  A    between atoms: C_2  and  C_4 
REMARK    2  A    between atoms: C_4  and  C_5 
REMARK    3  A    between atoms: C_5  and  C_6 
REMARK    4  A    between atoms: C_5  and  N_9 
REMARK       I    between atoms: N_9  and  C_10 
REMARK    5  A    between atoms: C_10  and  C_11 
REMARK    6  A    between atoms: C_11  and  C_12 
REMARK    7  A    between atoms: C_11  and  N_24 
REMARK    8  A    between atoms: C_12  and  C_13 
REMARK    9  A    between atoms: C_16  and  O_17 
REMARK   10  A    between atoms: O_17  and  P_18 
REMARK   11  A    between atoms: P_18  and  O_19 
ROOT
HETATM    1  C           1     -20.968  -4.992  -6.243  0.00  0.00     0.278 C 
ENDROOT
BRANCH   1   2
HETATM    2  C           1     -21.680  -5.947  -5.317  0.00  0.00     0.249 C 
HETATM    3  N           1     -20.957  -6.771  -4.497  0.00  0.00    -0.344 N 
HETATM    4  H           1     -19.945  -6.739  -4.511  0.00  0.00     0.163 HD
HETATM    5  O           1     -22.887  -5.987  -5.301  0.00  0.00    -0.271 OA
BRANCH   3   6
HETATM    6  C           1     -21.640  -7.689  -3.606  0.00  0.00     0.195 C 
BRANCH   6   7
HETATM    7  C           1     -21.016  -9.074  -3.728  0.00  0.00     0.149 C 
BRANCH   7   8
HETATM    8  C           1     -19.726  -8.978  -4.504  0.00  0.00     0.175 C 
HETATM    9  O           1     -19.746  -8.986  -5.754  0.00  0.00    -0.648 OA
HETATM   10  O           1     -18.637  -8.889  -3.898  0.00  0.00    -0.648 OA
ENDBRANCH   7   8
ENDBRANCH   6   7
BRANCH   6  11
HETATM   11  C           1     -21.509  -7.202  -2.185  0.00  0.00     0.197 C 
HETATM   12  O           1     -20.742  -7.791  -1.391  0.00  0.00    -0.646 OA
HETATM   13  O           1     -22.165  -6.210  -1.800  0.00  0.00    -0.646 OA
ENDBRANCH   6  11
ENDBRANCH   3   6
ENDBRANCH   1   2
BRANCH   1  14
HETATM   14  C           1     -20.658  -5.694  -7.559  0.00  0.00     0.081 C 
BRANCH  14  15
HETATM   15  C           1     -21.197  -4.884  -8.697  0.00  0.00    -0.056 A 
HETATM   16  C           1     -22.501  -4.392  -8.647  0.00  0.00     0.010 A 
HETATM   17  C           1     -23.003  -3.639  -9.708  0.00  0.00     0.038 A 
HETATM   18  C           1     -22.200  -3.375 -10.818  0.00  0.00     0.081 A 
HETATM   19  C           1     -20.896  -3.867 -10.867  0.00  0.00     0.038 A 
HETATM   20  C           1     -20.394  -4.622  -9.807  0.00  0.00     0.010 A 
BRANCH  18  21
HETATM   21  O           1     -22.688  -2.643 -11.848  0.00  0.00    -0.247 OA
BRANCH  21  22
HETATM   22  P           1     -23.840  -3.302 -12.768  0.00  0.00     0.411 P 
HETATM   23  O           1     -25.169  -2.925 -12.237  0.00  0.00    -0.624 OA
HETATM   24  O           1     -23.705  -2.810 -14.158  0.00  0.00    -0.624 OA
BRANCH  22  25
HETATM   25  O           1     -23.690  -4.910 -12.750  0.00  0.00    -0.300 OA
HETATM   26  H           1     -24.569  -5.237 -12.663  0.00  0.00     0.223 HD
ENDBRANCH  22  25
ENDBRANCH  21  22
ENDBRANCH  18  21
ENDBRANCH  14  15
ENDBRANCH   1  14
BRANCH   1  27
HETATM   27  N           1     -19.688  -4.538  -5.606  0.00  0.00    -0.066 N 
HETATM   28  H           1     -19.014  -5.335  -5.571  0.00  0.00     0.275 HD
HETATM   29  H           1     -19.277  -3.758  -6.168  0.00  0.00     0.275 HD
HETATM   30  H           1     -19.883  -4.203  -4.636  0.00  0.00     0.275 HD
ENDBRANCH   1  27
TORSDOF 11
ENDMDL
MODEL 2
REMARK VINA RESULT:      -7.5      1.336      2.810
REMARK  11 active torsions:
REMARK  status: ('A' for Active; 'I' for Inactive)
REMARK    1  A    between atoms: C_2  and  C_4 
REMARK    2  A    between atoms: C_4  and  C_5 
REMARK    3  A    between atoms: C_5  and  C_6 
REMARK    4  A    between atoms: C_5  and  N_9 
REMARK       I    between atoms: N_9  and  C_10 
REMARK    5  A    between atoms: C_10  and  C_11 
REMARK    6  A    between atoms: C_11  and  C_12 
REMARK    7  A    between atoms: C_11  and  N_24 
REMARK    8  A    between atoms: C_12  and  C_13 
REMARK    9  A    between atoms: C_16  and  O_17 
REMARK   10  A    between atoms: O_17  and  P_18 
REMARK   11  A    between atoms: P_18  and  O_19 
ROOT
HETATM    1  C           1     -21.822  -4.752  -6.986  0.00  0.00     0.278 C 
ENDROOT
BRANCH   1   2
HETATM    2  C           1     -21.074  -5.402  -5.849  0.00  0.00     0.249 C 
HETATM    3  N           1     -21.466  -6.629  -5.385  0.00  0.00    -0.344 N 
HETATM    4  H           1     -22.257  -7.100  -5.804  0.00  0.00     0.163 HD
HETATM    5  O           1     -20.131  -4.839  -5.346  0.00  0.00    -0.271 OA
BRANCH   3   6
HETATM    6  C           1     -20.747  -7.254  -4.291  0.00  0.00     0.195 C 
BRANCH   6   7
HETATM    7  C           1     -21.742  -7.767  -3.257  0.00  0.00     0.149 C 
BRANCH   7   8
HETATM    8  C           1     -21.952  -6.715  -2.196  0.00  0.00     0.175 C 
HETATM    9  O           1     -22.362  -7.044  -1.061  0.00  0.00    -0.648 OA
HETATM   10  O           1     -21.718  -5.514  -2.451  0.00  0.00    -0.648 OA
ENDBRANCH   7   8
ENDBRANCH   6   7
BRANCH   6  11
HETATM   11  C           1     -19.933  -8.408  -4.819  0.00  0.00     0.197 C 
HETATM   12  O           1     -19.384  -8.324  -5.940  0.00  0.00    -0.646 OA
HETATM   13  O           1     -19.805  -9.448  -4.137  0.00  0.00    -0.646 OA
ENDBRANCH   6  11
ENDBRANCH   3   6
ENDBRANCH   1   2
BRANCH   1  14
HETATM   14  C           1     -21.337  -5.330  -8.310  0.00  0.00     0.081 C 
BRANCH  14  15
HETATM   15  C           1     -21.809  -4.463  -9.436  0.00  0.00    -0.056 A 
HETATM   16  C           1     -20.890  -3.933 -10.341  0.00  0.00     0.010 A 
HETATM   17  C           1     -21.329  -3.125 -11.388  0.00  0.00     0.038 A 
HETATM   18  C           1     -22.688  -2.847 -11.533  0.00  0.00     0.081 A 
HETATM   19  C           1     -23.608  -3.377 -10.627  0.00  0.00     0.038 A 
HETATM   20  C           1     -23.168  -4.184  -9.578  0.00  0.00     0.010 A 
BRANCH  18  21
HETATM   21  O           1     -23.115  -2.061 -12.551  0.00  0.00    -0.247 OA
BRANCH  21  22
HETATM   22  P           1     -23.456  -2.768 -13.962  0.00  0.00     0.411 P 
HETATM   23  O           1     -24.326  -3.942 -13.728  0.00  0.00    -0.624 OA
HETATM   24  O           1     -24.153  -1.804 -14.843  0.00  0.00    -0.624 OA
BRANCH  22  25
HETATM   25  O           1     -22.085  -3.247 -14.670  0.00  0.00    -0.300 OA
HETATM   26  H           1     -21.618  -3.720 -14.003  0.00  0.00     0.223 HD
ENDBRANCH  22  25
ENDBRANCH  21  22
ENDBRANCH  18  21
ENDBRANCH  14  15
ENDBRANCH   1  14
BRANCH   1  27
HETATM   27  N           1     -21.575  -3.273  -6.967  0.00  0.00    -0.066 N 
HETATM   28  H           1     -20.684  -3.074  -6.458  0.00  0.00     0.275 HD
HETATM   29  H           1     -21.502  -2.919  -7.947  0.00  0.00     0.275 HD
HETATM   30  H           1     -22.367  -2.794  -6.482  0.00  0.00     0.275 HD
ENDBRANCH   1  27
TORSDOF 11
ENDMDL
MODEL 3
REMARK VINA RESULT:      -7.2      1.671      2.956
REMARK  11 active torsions:
REMARK  status: ('A' for Active; 'I' for Inactive)
REMARK    1  A    between atoms: C_2  and  C_4 
REMARK    2  A    between atoms: C_4  and  C_5 
REMARK    3  A    between atoms: C_5  and  C_6 
REMARK    4  A    between atoms: C_5  and  N_9 
REMARK       I    between atoms: N_9  and  C_10 
REMARK    5  A    between atoms: C_10  and  C_11 
REMARK    6  A    between atoms: C_11  and  C_12 
REMARK    7  A    between atoms: C_11  and  N_24 
REMARK    8  A    between atoms: C_12  and  C_13 
REMARK    9  A    between atoms: C_16  and  O_17 
REMARK   10  A    between atoms: O_17  and  P_18 
REMARK   11  A    between atoms: P_18  and  O_19 
ROOT
HETATM    1  C           1     -21.433  -6.423  -5.581  0.00  0.00     0.278 C 
ENDROOT
BRANCH   1   2
HETATM    2  C           1     -20.723  -7.747  -5.440  0.00  0.00     0.249 C 
HETATM    3  N           1     -21.267  -8.736  -4.665  0.00  0.00    -0.344 N 
HETATM    4  H           1     -22.146  -8.580  -4.187  0.00  0.00     0.163 HD
HETATM    5  O           1     -19.675  -7.934  -6.009  0.00  0.00    -0.271 OA
BRANCH   3   6
HETATM    6  C           1     -20.585 -10.009  -4.529  0.00  0.00     0.195 C 
BRANCH   6   7
HETATM    7  C           1     -20.673 -10.480  -3.083  0.00  0.00     0.149 C 
BRANCH   7   8
HETATM    8  C           1     -20.889  -9.292  -2.179  0.00  0.00     0.175 C 
HETATM    9  O           1     -21.994  -9.124  -1.618  0.00  0.00    -0.648 OA
HETATM   10  O           1     -19.963  -8.474  -1.989  0.00  0.00    -0.648 OA
ENDBRANCH   7   8
ENDBRANCH   6   7
BRANCH   6  11
HETATM   11  C           1     -21.239 -11.028  -5.429  0.00  0.00     0.197 C 
HETATM   12  O           1     -20.881 -11.127  -6.624  0.00  0.00    -0.646 OA
HETATM   13  O           1     -22.136 -11.774  -4.982  0.00  0.00    -0.646 OA
ENDBRANCH   6  11
ENDBRANCH   3   6
ENDBRANCH   1   2
BRANCH   1  14
HETATM   14  C           1     -20.454  -5.373  -6.088  0.00  0.00     0.081 C 
BRANCH  14  15
HETATM   15  C           1     -20.952  -4.808  -7.382  0.00  0.00    -0.056 A 
HETATM   16  C           1     -22.205  -4.200  -7.441  0.00  0.00     0.010 A 
HETATM   17  C           1     -22.670  -3.675  -8.646  0.00  0.00     0.038 A 
HETATM   18  C           1     -21.880  -3.756  -9.793  0.00  0.00     0.081 A 
HETATM   19  C           1     -20.626  -4.364  -9.734  0.00  0.00     0.038 A 
HETATM   20  C           1     -20.162  -4.890  -8.528  0.00  0.00     0.010 A 
BRANCH  18  21
HETATM   21  O           1     -22.332  -3.245 -10.964  0.00  0.00    -0.247 OA
BRANCH  21  22
HETATM   22  P           1     -23.628  -3.932 -11.641  0.00  0.00     0.411 P 
HETATM   23  O           1     -23.753  -5.326 -11.161  0.00  0.00    -0.624 OA
HETATM   24  O           1     -24.841  -3.170 -11.269  0.00  0.00    -0.624 OA
BRANCH  22  25
HETATM   25  O           1     -23.462  -3.929 -13.248  0.00  0.00    -0.300 OA
HETATM   26  H           1     -23.047  -4.749 -13.452  0.00  0.00     0.223 HD
ENDBRANCH  22  25
ENDBRANCH  21  22
ENDBRANCH  18  21
ENDBRANCH  14  15
ENDBRANCH   1  14
BRANCH   1  27
HETATM   27  N           1     -21.973  -6.001  -4.247  0.00  0.00    -0.066 N 
HETATM   28  H           1     -22.889  -6.473  -4.076  0.00  0.00     0.275 HD
HETATM   29  H           1     -21.297  -6.269  -3.497  0.00  0.00     0.275 HD
HETATM   30  H           1     -22.108  -4.965  -4.240  0.00  0.00     0.275 HD
ENDBRANCH   1  27
TORSDOF 11
ENDMDL
MODEL 4
REMARK VINA RESULT:      -7.1      1.443      2.469
REMARK  11 active torsions:
REMARK  status: ('A' for Active; 'I' for Inactive)
REMARK    1  A    between atoms: C_2  and  C_4 
REMARK    2  A    between atoms: C_4  and  C_5 
REMARK    3  A    between atoms: C_5  and  C_6 
REMARK    4  A    between atoms: C_5  and  N_9 
REMARK       I    between atoms: N_9  and  C_10 
REMARK    5  A    between atoms: C_10  and  C_11 
REMARK    6  A    between atoms: C_11  and  C_12 
REMARK    7  A    between atoms: C_11  and  N_24 
REMARK    8  A    between atoms: C_12  and  C_13 
REMARK    9  A    between atoms: C_16  and  O_17 
REMARK   10  A    between atoms: O_17  and  P_18 
REMARK   11  A    between atoms: P_18  and  O_19 
ROOT
HETATM    1  C           1     -20.770  -5.496  -6.141  0.00  0.00     0.278 C 
ENDROOT
BRANCH   1   2
HETATM    2  C           1     -20.686  -6.737  -5.287  0.00  0.00     0.249 C 
HETATM    3  N           1     -20.048  -7.852  -5.760  0.00  0.00    -0.344 N 
HETATM    4  H           1     -19.632  -7.844  -6.683  0.00  0.00     0.163 HD
HETATM    5  O           1     -21.183  -6.747  -4.186  0.00  0.00    -0.271 OA
BRANCH   3   6
HETATM    6  C           1     -19.966  -9.044  -4.939  0.00  0.00     0.195 C 
BRANCH   6   7
HETATM    7  C           1     -21.125  -9.974  -5.278  0.00  0.00     0.149 C 
BRANCH   7   8
HETATM    8  C           1     -21.818 -10.399  -4.007  0.00  0.00     0.175 C 
HETATM    9  O           1     -22.607 -11.369  -4.019  0.00  0.00    -0.648 OA
HETATM   10  O           1     -21.602  -9.782  -2.941  0.00  0.00    -0.648 OA
ENDBRANCH   7   8
ENDBRANCH   6   7
BRANCH   6  11
HETATM   11  C           1     -18.661  -9.751  -5.206  0.00  0.00     0.197 C 
HETATM   12  O           1     -18.079 -10.360  -4.282  0.00  0.00    -0.646 OA
HETATM   13  O           1     -18.161  -9.729  -6.352  0.00  0.00    -0.646 OA
ENDBRANCH   6  11
ENDBRANCH   3   6
ENDBRANCH   1   2
BRANCH   1  14
HETATM   14  C           1     -20.090  -5.753  -7.479  0.00  0.00     0.081 C 
BRANCH  14  15
HETATM   15  C           1     -20.759  -4.941  -8.544  0.00  0.00    -0.056 A 
HETATM   16  C           1     -22.047  -4.447  -8.339  0.00  0.00     0.010 A 
HETATM   17  C           1     -22.670  -3.691  -9.332  0.00  0.00     0.038 A 
HETATM   18  C           1     -22.005  -3.427 -10.529  0.00  0.00     0.081 A 
HETATM   19  C           1     -20.716  -3.921 -10.734  0.00  0.00     0.038 A 
HETATM   20  C           1     -20.093  -4.678  -9.741  0.00  0.00     0.010 A 
BRANCH  18  21
HETATM   21  O           1     -22.611  -2.693 -11.493  0.00  0.00    -0.247 OA
BRANCH  21  22
HETATM   22  P           1     -23.908  -3.321 -12.221  0.00  0.00     0.411 P 
HETATM   23  O           1     -25.092  -3.152 -11.350  0.00  0.00    -0.624 OA
HETATM   24  O           1     -24.138  -2.625 -13.508  0.00  0.00    -0.624 OA
BRANCH  22  25
HETATM   25  O           1     -23.663  -4.893 -12.498  0.00  0.00    -0.300 OA
HETATM   26  H           1     -23.690  -4.984 -13.434  0.00  0.00     0.223 HD
ENDBRANCH  22  25
ENDBRANCH  21  22
ENDBRANCH  18  21
ENDBRANCH  14  15
ENDBRANCH   1  14
BRANCH   1  27
HETATM   27  N           1     -20.085  -4.360  -5.442  0.00  0.00    -0.066 N 
HETATM   28  H           1     -19.625  -4.712  -4.573  0.00  0.00     0.275 HD
HETATM   29  H           1     -19.363  -3.946  -6.075  0.00  0.00     0.275 HD
HETATM   30  H           1     -20.789  -3.630  -5.193  0.00  0.00     0.275 HD
ENDBRANCH   1  27
TORSDOF 11
ENDMDL
MODEL 5
REMARK VINA RESULT:      -6.9      3.539      8.912
REMARK  11 active torsions:
REMARK  status: ('A' for Active; 'I' for Inactive)
REMARK    1  A    between atoms: C_2  and  C_4 
REMARK    2  A    between atoms: C_4  and  C_5 
REMARK    3  A    between atoms: C_5  and  C_6 
REMARK    4  A    between atoms: C_5  and  N_9 
REMARK       I    between atoms: N_9  and  C_10 
REMARK    5  A    between atoms: C_10  and  C_11 
REMARK    6  A    between atoms: C_11  and  C_12 
REMARK    7  A    between atoms: C_11  and  N_24 
REMARK    8  A    between atoms: C_12  and  C_13 
REMARK    9  A    between atoms: C_16  and  O_17 
REMARK   10  A    between atoms: O_17  and  P_18 
REMARK   11  A    between atoms: P_18  and  O_19 
ROOT
HETATM    1  C           1     -21.145  -5.512  -6.578  0.00  0.00     0.278 C 
ENDROOT
BRANCH   1   2
HETATM    2  C           1     -21.645  -4.464  -7.541  0.00  0.00     0.249 C 
HETATM    3  N           1     -22.262  -4.841  -8.704  0.00  0.00    -0.344 N 
HETATM    4  H           1     -22.383  -5.823  -8.918  0.00  0.00     0.163 HD
HETATM    5  O           1     -21.500  -3.292  -7.287  0.00  0.00    -0.271 OA
BRANCH   3   6
HETATM    6  C           1     -22.742  -3.833  -9.630  0.00  0.00     0.195 C 
BRANCH   6   7
HETATM    7  C           1     -22.170  -4.102 -11.016  0.00  0.00     0.149 C 
BRANCH   7   8
HETATM    8  C           1     -20.679  -3.871 -10.998  0.00  0.00     0.175 C 
HETATM    9  O           1     -19.906  -4.799 -10.672  0.00  0.00    -0.648 OA
HETATM   10  O           1     -20.216  -2.753 -11.309  0.00  0.00    -0.648 OA
ENDBRANCH   7   8
ENDBRANCH   6   7
BRANCH   6  11
HETATM   11  C           1     -24.249  -3.884  -9.690  0.00  0.00     0.197 C 
HETATM   12  O           1     -24.914  -2.830  -9.585  0.00  0.00    -0.646 OA
HETATM   13  O           1     -24.832  -4.978  -9.847  0.00  0.00    -0.646 OA
ENDBRANCH   6  11
ENDBRANCH   3   6
ENDBRANCH   1   2
BRANCH   1  14
HETATM   14  C           1     -22.271  -5.914  -5.634  0.00  0.00     0.081 C 
BRANCH  14  15
HETATM   15  C           1     -21.722  -6.778  -4.542  0.00  0.00    -0.056 A 
HETATM   16  C           1     -21.700  -6.314  -3.228  0.00  0.00     0.010 A 
HETATM   17  C           1     -21.188  -7.119  -2.211  0.00  0.00     0.038 A 
HETATM   18  C           1     -20.698  -8.391  -2.509  0.00  0.00     0.081 A 
HETATM   19  C           1     -20.720  -8.856  -3.824  0.00  0.00     0.038 A 
HETATM   20  C           1     -21.232  -8.050  -4.840  0.00  0.00     0.010 A 
BRANCH  18  21
HETATM   21  O           1     -20.200  -9.173  -1.521  0.00  0.00    -0.247 OA
BRANCH  21  22
HETATM   22  P           1     -21.185 -10.261  -0.846  0.00  0.00     0.411 P 
HETATM   23  O           1     -21.112 -11.529  -1.605  0.00  0.00    -0.624 OA
HETATM   24  O           1     -20.772 -10.499   0.556  0.00  0.00    -0.624 OA
BRANCH  22  25
HETATM   25  O           1     -22.701  -9.704  -0.872  0.00  0.00    -0.300 OA
HETATM   26  H           1     -23.235 -10.458  -1.055  0.00  0.00     0.223 HD
ENDBRANCH  22  25
ENDBRANCH  21  22
ENDBRANCH  18  21
ENDBRANCH  14  15
ENDBRANCH   1  14
BRANCH   1  27
HETATM   27  N           1     -20.001  -4.956  -5.784  0.00  0.00    -0.066 N 
HETATM   28  H           1     -20.348  -4.193  -5.160  0.00  0.00     0.275 HD
HETATM   29  H           1     -19.578  -5.715  -5.203  0.00  0.00     0.275 HD
HETATM   30  H           1     -19.279  -4.572  -6.435  0.00  0.00     0.275 HD
ENDBRANCH   1  27
TORSDOF 11
ENDMDL
MODEL 6
REMARK VINA RESULT:      -6.9      1.876      2.503
REMARK  11 active torsions:
REMARK  status: ('A' for Active; 'I' for Inactive)
REMARK    1  A    between atoms: C_2  and  C_4 
REMARK    2  A    between atoms: C_4  and  C_5 
REMARK    3  A    between atoms: C_5  and  C_6 
REMARK    4  A    between atoms: C_5  and  N_9 
REMARK       I    between atoms: N_9  and  C_10 
REMARK    5  A    between atoms: C_10  and  C_11 
REMARK    6  A    between atoms: C_11  and  C_12 
REMARK    7  A    between atoms: C_11  and  N_24 
REMARK    8  A    between atoms: C_12  and  C_13 
REMARK    9  A    between atoms: C_16  and  O_17 
REMARK   10  A    between atoms: O_17  and  P_18 
REMARK   11  A    between atoms: P_18  and  O_19 
ROOT
HETATM    1  C           1     -21.478  -6.435  -5.290  0.00  0.00     0.278 C 
ENDROOT
BRANCH   1   2
HETATM    2  C           1     -20.937  -7.843  -5.264  0.00  0.00     0.249 C 
HETATM    3  N           1     -20.093  -8.233  -4.259  0.00  0.00    -0.344 N 
HETATM    4  H           1     -19.831  -7.577  -3.533  0.00  0.00     0.163 HD
HETATM    5  O           1     -21.247  -8.626  -6.130  0.00  0.00    -0.271 OA
BRANCH   3   6
HETATM    6  C           1     -19.572  -9.586  -4.234  0.00  0.00     0.195 C 
BRANCH   6   7
HETATM    7  C           1     -18.050  -9.546  -4.293  0.00  0.00     0.149 C 
BRANCH   7   8
HETATM    8  C           1     -17.590  -9.917  -5.682  0.00  0.00     0.175 C 
HETATM    9  O           1     -18.419 -10.316  -6.529  0.00  0.00    -0.648 OA
HETATM   10  O           1     -16.382  -9.824  -5.986  0.00  0.00    -0.648 OA
ENDBRANCH   7   8
ENDBRANCH   6   7
BRANCH   6  11
HETATM   11  C           1     -20.007 -10.269  -2.961  0.00  0.00     0.197 C 
HETATM   12  O           1     -20.547 -11.396  -3.009  0.00  0.00    -0.646 OA
HETATM   13  O           1     -19.826  -9.709  -1.858  0.00  0.00    -0.646 OA
ENDBRANCH   6  11
ENDBRANCH   3   6
ENDBRANCH   1   2
BRANCH   1  14
HETATM   14  C           1     -20.433  -5.499  -5.883  0.00  0.00     0.081 C 
BRANCH  14  15
HETATM   15  C           1     -20.952  -4.916  -7.161  0.00  0.00    -0.056 A 
HETATM   16  C           1     -22.223  -4.343  -7.201  0.00  0.00     0.010 A 
HETATM   17  C           1     -22.706  -3.801  -8.391  0.00  0.00     0.038 A 
HETATM   18  C           1     -21.919  -3.831  -9.542  0.00  0.00     0.081 A 
HETATM   19  C           1     -20.648  -4.404  -9.502  0.00  0.00     0.038 A 
HETATM   20  C           1     -20.165  -4.947  -8.311  0.00  0.00     0.010 A 
BRANCH  18  21
HETATM   21  O           1     -22.389  -3.305 -10.699  0.00  0.00    -0.247 OA
BRANCH  21  22
HETATM   22  P           1     -23.682  -3.996 -11.376  0.00  0.00     0.411 P 
HETATM   23  O           1     -23.836  -5.372 -10.853  0.00  0.00    -0.624 OA
HETATM   24  O           1     -24.892  -3.206 -11.051  0.00  0.00    -0.624 OA
BRANCH  22  25
HETATM   25  O           1     -23.488  -4.048 -12.979  0.00  0.00    -0.300 OA
HETATM   26  H           1     -24.344  -3.877 -13.333  0.00  0.00     0.223 HD
ENDBRANCH  22  25
ENDBRANCH  21  22
ENDBRANCH  18  21
ENDBRANCH  14  15
ENDBRANCH   1  14
BRANCH   1  27
HETATM   27  N           1     -21.803  -5.998  -3.892  0.00  0.00    -0.066 N 
HETATM   28  H           1     -21.077  -5.325  -3.559  0.00  0.00     0.275 HD
HETATM   29  H           1     -22.739  -5.534  -3.881  0.00  0.00     0.275 HD
HETATM   30  H           1     -21.820  -6.832  -3.263  0.00  0.00     0.275 HD
ENDBRANCH   1  27
TORSDOF 11
ENDMDL
MODEL 7
REMARK VINA RESULT:      -6.8      1.359      2.147
REMARK  11 active torsions:
REMARK  status: ('A' for Active; 'I' for Inactive)
REMARK    1  A    between atoms: C_2  and  C_4 
REMARK    2  A    between atoms: C_4  and  C_5 
REMARK    3  A    between atoms: C_5  and  C_6 
REMARK    4  A    between atoms: C_5  and  N_9 
REMARK       I    between atoms: N_9  and  C_10 
REMARK    5  A    between atoms: C_10  and  C_11 
REMARK    6  A    between atoms: C_11  and  C_12 
REMARK    7  A    between atoms: C_11  and  N_24 
REMARK    8  A    between atoms: C_12  and  C_13 
REMARK    9  A    between atoms: C_16  and  O_17 
REMARK   10  A    between atoms: O_17  and  P_18 
REMARK   11  A    between atoms: P_18  and  O_19 
ROOT
HETATM    1  C           1     -21.880  -4.647  -6.992  0.00  0.00     0.278 C 
ENDROOT
BRANCH   1   2
HETATM    2  C           1     -22.276  -5.660  -5.946  0.00  0.00     0.249 C 
HETATM    3  N           1     -21.318  -6.421  -5.333  0.00  0.00    -0.344 N 
HETATM    4  H           1     -20.343  -6.304  -5.580  0.00  0.00     0.163 HD
HETATM    5  O           1     -23.439  -5.800  -5.650  0.00  0.00    -0.271 OA
BRANCH   3   6
HETATM    6  C           1     -21.698  -7.394  -4.327  0.00  0.00     0.195 C 
BRANCH   6   7
HETATM    7  C           1     -20.794  -8.616  -4.435  0.00  0.00     0.149 C 
BRANCH   7   8
HETATM    8  C           1     -21.410  -9.766  -3.678  0.00  0.00     0.175 C 
HETATM    9  O           1     -20.915 -10.137  -2.591  0.00  0.00    -0.648 OA
HETATM   10  O           1     -22.416 -10.349  -4.137  0.00  0.00    -0.648 OA
ENDBRANCH   7   8
ENDBRANCH   6   7
BRANCH   6  11
HETATM   11  C           1     -21.554  -6.782  -2.955  0.00  0.00     0.197 C 
HETATM   12  O           1     -22.497  -6.125  -2.463  0.00  0.00    -0.646 OA
HETATM   13  O           1     -20.494  -6.934  -2.311  0.00  0.00    -0.646 OA
ENDBRANCH   6  11
ENDBRANCH   3   6
ENDBRANCH   1   2
BRANCH   1  14
HETATM   14  C           1     -21.481  -5.369  -8.272  0.00  0.00     0.081 C 
BRANCH  14  15
HETATM   15  C           1     -21.768  -4.491  -9.451  0.00  0.00    -0.056 A 
HETATM   16  C           1     -20.833  -4.375 -10.479  0.00  0.00     0.010 A 
HETATM   17  C           1     -21.101  -3.557 -11.576  0.00  0.00     0.038 A 
HETATM   18  C           1     -22.304  -2.855 -11.645  0.00  0.00     0.081 A 
HETATM   19  C           1     -23.240  -2.970 -10.616  0.00  0.00     0.038 A 
HETATM   20  C           1     -22.971  -3.789  -9.519  0.00  0.00     0.010 A 
BRANCH  18  21
HETATM   21  O           1     -22.564  -2.059 -12.711  0.00  0.00    -0.247 OA
BRANCH  21  22
HETATM   22  P           1     -23.577  -2.612 -13.841  0.00  0.00     0.411 P 
HETATM   23  O           1     -22.838  -2.822 -15.105  0.00  0.00    -0.624 OA
HETATM   24  O           1     -24.165  -3.895 -13.392  0.00  0.00    -0.624 OA
BRANCH  22  25
HETATM   25  O           1     -24.757  -1.535 -14.080  0.00  0.00    -0.300 OA
HETATM   26  H           1     -24.355  -0.835 -14.563  0.00  0.00     0.223 HD
ENDBRANCH  22  25
ENDBRANCH  21  22
ENDBRANCH  18  21
ENDBRANCH  14  15
ENDBRANCH   1  14
BRANCH   1  27
HETATM   27  N           1     -20.721  -3.838  -6.491  0.00  0.00    -0.066 N 
HETATM   28  H           1     -20.723  -3.834  -5.447  0.00  0.00     0.275 HD
HETATM   29  H           1     -19.828  -4.259  -6.835  0.00  0.00     0.275 HD
HETATM   30  H           1     -20.802  -2.858  -6.844  0.00  0.00     0.275 HD
ENDBRANCH   1  27
TORSDOF 11
ENDMDL
MODEL 8
REMARK VINA RESULT:      -6.6      1.372      2.385
REMARK  11 active torsions:
REMARK  status: ('A' for Active; 'I' for Inactive)
REMARK    1  A    between atoms: C_2  and  C_4 
REMARK    2  A    between atoms: C_4  and  C_5 
REMARK    3  A    between atoms: C_5  and  C_6 
REMARK    4  A    between atoms: C_5  and  N_9 
REMARK       I    between atoms: N_9  and  C_10 
REMARK    5  A    between atoms: C_10  and  C_11 
REMARK    6  A    between atoms: C_11  and  C_12 
REMARK    7  A    between atoms: C_11  and  N_24 
REMARK    8  A    between atoms: C_12  and  C_13 
REMARK    9  A    between atoms: C_16  and  O_17 
REMARK   10  A    between atoms: O_17  and  P_18 
REMARK   11  A    between atoms: P_18  and  O_19 
ROOT
HETATM    1  C           1     -20.889  -5.570  -6.192  0.00  0.00     0.278 C 
ENDROOT
BRANCH   1   2
HETATM    2  C           1     -20.969  -6.922  -5.527  0.00  0.00     0.249 C 
HETATM    3  N           1     -19.873  -7.742  -5.510  0.00  0.00    -0.344 N 
HETATM    4  H           1     -19.008  -7.441  -5.943  0.00  0.00     0.163 HD
HETATM    5  O           1     -22.000  -7.281  -5.012  0.00  0.00    -0.271 OA
BRANCH   3   6
HETATM    6  C           1     -19.949  -9.042  -4.872  0.00  0.00     0.195 C 
BRANCH   6   7
HETATM    7  C           1     -19.087 -10.036  -5.640  0.00  0.00     0.149 C 
BRANCH   7   8
HETATM    8  C           1     -19.849 -11.325  -5.824  0.00  0.00     0.175 C 
HETATM    9  O           1     -19.700 -12.262  -5.009  0.00  0.00    -0.648 OA
HETATM   10  O           1     -20.630 -11.457  -6.790  0.00  0.00    -0.648 OA
ENDBRANCH   7   8
ENDBRANCH   6   7
BRANCH   6  11
HETATM   11  C           1     -19.449  -8.935  -3.453  0.00  0.00     0.197 C 
HETATM   12  O           1     -20.239  -8.630  -2.533  0.00  0.00    -0.646 OA
HETATM   13  O           1     -18.245  -9.152  -3.195  0.00  0.00    -0.646 OA
ENDBRANCH   6  11
ENDBRANCH   3   6
ENDBRANCH   1   2
BRANCH   1  14
HETATM   14  C           1     -20.193  -5.706  -7.540  0.00  0.00     0.081 C 
BRANCH  14  15
HETATM   15  C           1     -20.921  -4.889  -8.562  0.00  0.00    -0.056 A 
HETATM   16  C           1     -20.286  -4.531  -9.750  0.00  0.00     0.010 A 
HETATM   17  C           1     -20.964  -3.769 -10.701  0.00  0.00     0.038 A 
HETATM   18  C           1     -22.278  -3.366 -10.465  0.00  0.00     0.081 A 
HETATM   19  C           1     -22.914  -3.724  -9.276  0.00  0.00     0.038 A 
HETATM   20  C           1     -22.235  -4.486  -8.324  0.00  0.00     0.010 A 
BRANCH  18  21
HETATM   21  O           1     -22.937  -2.626 -11.389  0.00  0.00    -0.247 OA
BRANCH  21  22
HETATM   22  P           1     -23.729  -3.406 -12.561  0.00  0.00     0.411 P 
HETATM   23  O           1     -23.120  -3.080 -13.869  0.00  0.00    -0.624 OA
HETATM   24  O           1     -23.646  -4.865 -12.326  0.00  0.00    -0.624 OA
BRANCH  22  25
HETATM   25  O           1     -25.279  -2.949 -12.560  0.00  0.00    -0.300 OA
HETATM   26  H           1     -25.278  -2.081 -12.925  0.00  0.00     0.223 HD
ENDBRANCH  22  25
ENDBRANCH  21  22
ENDBRANCH  18  21
ENDBRANCH  14  15
ENDBRANCH   1  14
BRANCH   1  27
HETATM   27  N           1     -20.109  -4.630  -5.320  0.00  0.00    -0.066 N 
HETATM   28  H           1     -20.172  -4.943  -4.326  0.00  0.00     0.275 HD
HETATM   29  H           1     -19.109  -4.624  -5.621  0.00  0.00     0.275 HD
HETATM   30  H           1     -20.504  -3.666  -5.408  0.00  0.00     0.275 HD
ENDBRANCH   1  27
TORSDOF 11
ENDMDL
MODEL 9
REMARK VINA RESULT:      -5.8     11.528     13.695
REMARK  11 active torsions:
REMARK  status: ('A' for Active; 'I' for Inactive)
REMARK    1  A    between atoms: C_2  and  C_4 
REMARK    2  A    between atoms: C_4  and  C_5 
REMARK    3  A    between atoms: C_5  and  C_6 
REMARK    4  A    between atoms: C_5  and  N_9 
REMARK       I    between atoms: N_9  and  C_10 
REMARK    5  A    between atoms: C_10  and  C_11 
REMARK    6  A    between atoms: C_11  and  C_12 
REMARK    7  A    between atoms: C_11  and  N_24 
REMARK    8  A    between atoms: C_12  and  C_13 
REMARK    9  A    between atoms: C_16  and  O_17 
REMARK   10  A    between atoms: O_17  and  P_18 
REMARK   11  A    between atoms: P_18  and  O_19 
ROOT
HETATM    1  C           1     -32.842  -4.826 -16.828  0.00  0.00     0.278 C 
ENDROOT
BRANCH   1   2
HETATM    2  C           1     -33.698  -4.694 -15.592  0.00  0.00     0.249 C 
HETATM    3  N           1     -33.177  -4.139 -14.455  0.00  0.00    -0.344 N 
HETATM    4  H           1     -32.217  -3.817 -14.442  0.00  0.00     0.163 HD
HETATM    5  O           1     -34.843  -5.079 -15.607  0.00  0.00    -0.271 OA
BRANCH   3   6
HETATM    6  C           1     -34.000  -4.012 -13.267  0.00  0.00     0.195 C 
BRANCH   6   7
HETATM    7  C           1     -33.164  -4.332 -12.034  0.00  0.00     0.149 C 
BRANCH   7   8
HETATM    8  C           1     -33.930  -5.273 -11.138  0.00  0.00     0.175 C 
HETATM    9  O           1     -33.465  -6.404 -10.876  0.00  0.00    -0.648 OA
HETATM   10  O           1     -35.029  -4.923 -10.656  0.00  0.00    -0.648 OA
ENDBRANCH   7   8
ENDBRANCH   6   7
BRANCH   6  11
HETATM   11  C           1     -34.523  -2.600 -13.167  0.00  0.00     0.197 C 
HETATM   12  O           1     -34.377  -1.954 -12.106  0.00  0.00    -0.646 OA
HETATM   13  O           1     -35.101  -2.076 -14.143  0.00  0.00    -0.646 OA
ENDBRANCH   6  11
ENDBRANCH   3   6
ENDBRANCH   1   2
BRANCH   1  14
HETATM   14  C           1     -32.286  -6.241 -16.912  0.00  0.00     0.081 C 
BRANCH  14  15
HETATM   15  C           1     -30.794  -6.185 -17.023  0.00  0.00    -0.056 A 
HETATM   16  C           1     -30.180  -6.327 -18.266  0.00  0.00     0.010 A 
HETATM   17  C           1     -28.791  -6.276 -18.369  0.00  0.00     0.038 A 
HETATM   18  C           1     -28.014  -6.081 -17.227  0.00  0.00     0.081 A 
HETATM   19  C           1     -28.627  -5.940 -15.982  0.00  0.00     0.038 A 
HETATM   20  C           1     -30.018  -5.992 -15.880  0.00  0.00     0.010 A 
BRANCH  18  21
HETATM   21  O           1     -26.663  -6.032 -17.327  0.00  0.00    -0.247 OA
BRANCH  21  22
HETATM   22  P           1     -25.791  -6.677 -16.131  0.00  0.00     0.411 P 
HETATM   23  O           1     -25.231  -5.595 -15.291  0.00  0.00    -0.624 OA
HETATM   24  O           1     -26.655  -7.548 -15.303  0.00  0.00    -0.624 OA
BRANCH  22  25
HETATM   25  O           1     -24.585  -7.552 -16.754  0.00  0.00    -0.300 OA
HETATM   26  H           1     -24.153  -7.937 -16.011  0.00  0.00     0.223 HD
ENDBRANCH  22  25
ENDBRANCH  21  22
ENDBRANCH  18  21
ENDBRANCH  14  15
ENDBRANCH   1  14
BRANCH   1  27
HETATM   27  N           1     -31.708  -3.847 -16.757  0.00  0.00    -0.066 N 
HETATM   28  H           1     -30.910  -4.274 -16.236  0.00  0.00     0.275 HD
HETATM   29  H           1     -31.400  -3.601 -17.725  0.00  0.00     0.275 HD
HETATM   30  H           1     -32.025  -2.983 -16.262  0.00  0.00     0.275 HD
ENDBRANCH   1  27
TORSDOF 11
ENDMDL
