MODEL 1
REMARK VINA RESULT:      -6.7      0.000      0.000
REMARK  16 active torsions:
REMARK  status: ('A' for Active; 'I' for Inactive)
REMARK    1  A    between atoms: C_2  and  C_3 
REMARK    2  A    between atoms: C_2  and  C_7 
REMARK    3  A    between atoms: C_3  and  C_12 
REMARK       I    between atoms: N_4  and  C_12 
REMARK    4  A    between atoms: C_6  and  C_7 
REMARK    5  A    between atoms: C_7  and  N_19 
REMARK       I    between atoms: N_13  and  C_24 
REMARK    6  A    between atoms: C_14  and  N_19 
REMARK    7  A    between atoms: C_14  and  C_15 
REMARK    8  A    between atoms: C_15  and  C_16 
REMARK    9  A    between atoms: C_16  and  C_17 
REMARK   10  A    between atoms: C_16  and  N_37 
REMARK   11  A    between atoms: C_21  and  C_40 
REMARK   12  A    between atoms: C_21  and  C_22 
REMARK   13  A    between atoms: C_22  and  N_23 
REMARK       I    between atoms: N_23  and  C_24 
REMARK   14  A    between atoms: N_33  and  C_39 
REMARK       I    between atoms: N_37  and  C_38 
REMARK   15  A    between atoms: C_38  and  C_39 
REMARK   16  A    between atoms: C_39  and  C_40 
ROOT
HETATM    1  H           1     -20.232  -4.769  -4.493  0.00  0.00     0.163 HD
HETATM    2  O           1     -22.185  -7.198  -4.846  0.00  0.00    -0.271 OA
HETATM    3  N           1     -20.829  -5.430  -4.975  0.00  0.00    -0.345 N 
HETATM    4  C           1     -21.474  -6.410  -4.270  0.00  0.00     0.249 C 
ENDROOT
BRANCH   3   5
HETATM    5  C           1     -20.999  -5.337  -6.412  0.00  0.00     0.187 C 
BRANCH   5   6
HETATM    6  C           1     -21.475  -3.938  -6.778  0.00  0.00     0.066 C 
BRANCH   6   7
HETATM    7  C           1     -22.470  -4.024  -7.927  0.00  0.00     0.273 C 
BRANCH   7   8
HETATM    8  N           1     -22.042  -5.033  -8.858  0.00  0.00     0.098 N 
HETATM    9  H           1     -22.624  -5.864  -8.749  0.00  0.00     0.317 HD
BRANCH   8  10
HETATM   10  C           1     -22.207  -4.503 -10.184  0.00  0.00     0.320 C 
BRANCH  10  11
HETATM   11  C           1     -23.115  -3.281 -10.133  0.00  0.00     0.056 C 
BRANCH  11  12
HETATM   12  C           1     -24.348  -3.529 -10.993  0.00  0.00     0.105 C 
BRANCH  12  13
HETATM   13  C           1     -24.056  -3.131 -12.418  0.00  0.00     0.215 C 
HETATM   14  O           1     -24.515  -3.774 -13.332  0.00  0.00    -0.274 OA
HETATM   15  N           1     -23.269  -2.039 -12.676  0.00  0.00    -0.370 N 
HETATM   16  H           1     -22.885  -1.500 -11.911  0.00  0.00     0.159 HD
HETATM   17  H           1     -23.073  -1.772 -13.632  0.00  0.00     0.159 HD
ENDBRANCH  12  13
ENDBRANCH  11  12
ENDBRANCH  10  11
BRANCH  10  18
HETATM   18  C           1     -20.860  -4.106 -10.737  0.00  0.00     0.207 C 
HETATM   19  O           1     -19.895  -4.898 -10.662  0.00  0.00    -0.646 OA
HETATM   20  O           1     -20.709  -2.986 -11.271  0.00  0.00    -0.646 OA
ENDBRANCH  10  18
ENDBRANCH   8  10
ENDBRANCH   7   8
ENDBRANCH   6   7
ENDBRANCH   5   6
BRANCH   5  21
HETATM   21  C           1     -19.681  -5.615  -7.093  0.00  0.00     0.196 C 
HETATM   22  O           1     -19.291  -6.794  -7.240  0.00  0.00    -0.646 OA
HETATM   23  O           1     -18.981  -4.667  -7.509  0.00  0.00    -0.646 OA
ENDBRANCH   5  21
ENDBRANCH   3   5
BRANCH   4  24
HETATM   24  C           1     -21.297  -6.506  -2.775  0.00  0.00     0.274 C 
BRANCH  24  25
HETATM   25  N           1     -22.360  -5.697  -2.094  0.00  0.00    -0.067 N 
HETATM   26  H           1     -22.798  -6.267  -1.335  0.00  0.00     0.275 HD
HETATM   27  H           1     -23.090  -5.423  -2.790  0.00  0.00     0.275 HD
HETATM   28  H           1     -21.934  -4.837  -1.680  0.00  0.00     0.275 HD
ENDBRANCH  24  25
BRANCH  24  29
HETATM   29  C           1     -21.410  -7.962  -2.342  0.00  0.00     0.044 C 
BRANCH  29  30
HETATM   30  C           1     -20.015  -8.551  -2.176  0.00  0.00     0.023 C 
BRANCH  30  31
HETATM   31  C           1     -19.888  -9.805  -3.030  0.00  0.00     0.138 C 
BRANCH  31  32
HETATM   32  N           1     -18.831  -9.611  -4.032  0.00  0.00    -0.227 N 
HETATM   33  C           1     -19.133  -9.493  -5.256  0.00  0.00     0.665 C 
HETATM   34  N           1     -20.378  -9.542  -5.625  0.00  0.00    -0.235 N 
HETATM   35  N           1     -18.221  -9.325  -6.119  0.00  0.00    -0.235 N 
HETATM   36  H           1     -20.627  -9.442  -6.636  0.00  0.00     0.174 HD
HETATM   37  H           1     -21.130  -9.680  -4.913  0.00  0.00     0.174 HD
HETATM   38  H           1     -18.472  -9.226  -7.134  0.00  0.00     0.174 HD
HETATM   39  H           1     -17.215  -9.286  -5.820  0.00  0.00     0.174 HD
HETATM   40  H           1     -17.825  -9.572  -3.733  0.00  0.00     0.177 HD
ENDBRANCH  31  32
ENDBRANCH  30  31
ENDBRANCH  29  30
ENDBRANCH  24  29
ENDBRANCH   4  24
TORSDOF 16
ENDMDL
MODEL 2
REMARK VINA RESULT:      -6.7      2.299      2.986
REMARK  16 active torsions:
REMARK  status: ('A' for Active; 'I' for Inactive)
REMARK    1  A    between atoms: C_2  and  C_3 
REMARK    2  A    between atoms: C_2  and  C_7 
REMARK    3  A    between atoms: C_3  and  C_12 
REMARK       I    between atoms: N_4  and  C_12 
REMARK    4  A    between atoms: C_6  and  C_7 
REMARK    5  A    between atoms: C_7  and  N_19 
REMARK       I    between atoms: N_13  and  C_24 
REMARK    6  A    between atoms: C_14  and  N_19 
REMARK    7  A    between atoms: C_14  and  C_15 
REMARK    8  A    between atoms: C_15  and  C_16 
REMARK    9  A    between atoms: C_16  and  C_17 
REMARK   10  A    between atoms: C_16  and  N_37 
REMARK   11  A    between atoms: C_21  and  C_40 
REMARK   12  A    between atoms: C_21  and  C_22 
REMARK   13  A    between atoms: C_22  and  N_23 
REMARK       I    between atoms: N_23  and  C_24 
REMARK   14  A    between atoms: N_33  and  C_39 
REMARK       I    between atoms: N_37  and  C_38 
REMARK   15  A    between atoms: C_38  and  C_39 
REMARK   16  A    between atoms: C_39  and  C_40 
ROOT
HETATM    1  H           1     -20.294  -4.748  -4.432  0.00  0.00     0.163 HD
HETATM    2  O           1     -22.142  -7.279  -4.562  0.00  0.00    -0.271 OA
HETATM    3  N           1     -20.876  -5.463  -4.850  0.00  0.00    -0.345 N 
HETATM    4  C           1     -21.449  -6.425  -4.063  0.00  0.00     0.249 C 
ENDROOT
BRANCH   3   5
HETATM    5  C           1     -21.101  -5.469  -6.283  0.00  0.00     0.187 C 
BRANCH   5   6
HETATM    6  C           1     -21.422  -4.055  -6.751  0.00  0.00     0.066 C 
BRANCH   6   7
HETATM    7  C           1     -22.659  -4.083  -7.638  0.00  0.00     0.273 C 
BRANCH   7   8
HETATM    8  N           1     -22.287  -4.487  -8.967  0.00  0.00     0.098 N 
HETATM    9  H           1     -22.630  -5.432  -9.143  0.00  0.00     0.317 HD
BRANCH   8  10
HETATM   10  C           1     -22.904  -3.574  -9.891  0.00  0.00     0.320 C 
BRANCH  10  11
HETATM   11  C           1     -22.366  -3.831 -11.292  0.00  0.00     0.056 C 
BRANCH  11  12
HETATM   12  C           1     -22.582  -2.593 -12.154  0.00  0.00     0.105 C 
BRANCH  12  13
HETATM   13  C           1     -23.271  -2.986 -13.437  0.00  0.00     0.215 C 
HETATM   14  O           1     -24.439  -3.293 -13.427  0.00  0.00    -0.274 OA
HETATM   15  N           1     -22.571  -2.995 -14.614  0.00  0.00    -0.370 N 
HETATM   16  H           1     -21.592  -2.738 -14.623  0.00  0.00     0.159 HD
HETATM   17  H           1     -23.032  -3.259 -15.475  0.00  0.00     0.159 HD
ENDBRANCH  12  13
ENDBRANCH  11  12
ENDBRANCH  10  11
BRANCH  10  18
HETATM   18  C           1     -24.398  -3.780  -9.879  0.00  0.00     0.207 C 
HETATM   19  O           1     -24.873  -4.926 -10.031  0.00  0.00    -0.646 OA
HETATM   20  O           1     -25.162  -2.804  -9.715  0.00  0.00    -0.646 OA
ENDBRANCH  10  18
ENDBRANCH   8  10
ENDBRANCH   7   8
ENDBRANCH   6   7
ENDBRANCH   5   6
BRANCH   5  21
HETATM   21  C           1     -19.859  -5.962  -6.985  0.00  0.00     0.196 C 
HETATM   22  O           1     -19.378  -7.078  -6.692  0.00  0.00    -0.646 OA
HETATM   23  O           1     -19.313  -5.255  -7.858  0.00  0.00    -0.646 OA
ENDBRANCH   5  21
ENDBRANCH   3   5
BRANCH   4  24
HETATM   24  C           1     -21.214  -6.420  -2.572  0.00  0.00     0.274 C 
BRANCH  24  25
HETATM   25  N           1     -22.418  -5.853  -1.880  0.00  0.00    -0.067 N 
HETATM   26  H           1     -22.612  -4.895  -2.249  0.00  0.00     0.275 HD
HETATM   27  H           1     -22.237  -5.801  -0.852  0.00  0.00     0.275 HD
HETATM   28  H           1     -23.245  -6.468  -2.057  0.00  0.00     0.275 HD
ENDBRANCH  24  25
BRANCH  24  29
HETATM   29  C           1     -20.974  -7.844  -2.090  0.00  0.00     0.044 C 
BRANCH  29  30
HETATM   30  C           1     -21.920  -8.155  -0.937  0.00  0.00     0.023 C 
BRANCH  30  31
HETATM   31  C           1     -22.331  -9.620  -0.997  0.00  0.00     0.138 C 
BRANCH  31  32
HETATM   32  N           1     -21.176 -10.467  -0.667  0.00  0.00    -0.227 N 
HETATM   33  C           1     -21.338 -11.521   0.016  0.00  0.00     0.665 C 
HETATM   34  N           1     -22.527 -11.854   0.424  0.00  0.00    -0.235 N 
HETATM   35  N           1     -20.343 -12.251   0.299  0.00  0.00    -0.235 N 
HETATM   36  H           1     -22.661 -12.725   0.986  0.00  0.00     0.174 HD
HETATM   37  H           1     -23.348 -11.252   0.189  0.00  0.00     0.174 HD
HETATM   38  H           1     -20.478 -13.125   0.865  0.00  0.00     0.174 HD
HETATM   39  H           1     -19.383 -11.982  -0.030  0.00  0.00     0.174 HD
HETATM   40  H           1     -20.216 -10.198  -0.996  0.00  0.00     0.177 HD
ENDBRANCH  31  32
ENDBRANCH  30  31
ENDBRANCH  29  30
ENDBRANCH  24  29
ENDBRANCH   4  24
TORSDOF 16
ENDMDL
MODEL 3
REMARK VINA RESULT:      -6.6     13.502     16.138
REMARK  16 active torsions:
REMARK  status: ('A' for Active; 'I' for Inactive)
REMARK    1  A    between atoms: C_2  and  C_3 
REMARK    2  A    between atoms: C_2  and  C_7 
REMARK    3  A    between atoms: C_3  and  C_12 
REMARK       I    between atoms: N_4  and  C_12 
REMARK    4  A    between atoms: C_6  and  C_7 
REMARK    5  A    between atoms: C_7  and  N_19 
REMARK       I    between atoms: N_13  and  C_24 
REMARK    6  A    between atoms: C_14  and  N_19 
REMARK    7  A    between atoms: C_14  and  C_15 
REMARK    8  A    between atoms: C_15  and  C_16 
REMARK    9  A    between atoms: C_16  and  C_17 
REMARK   10  A    between atoms: C_16  and  N_37 
REMARK   11  A    between atoms: C_21  and  C_40 
REMARK   12  A    between atoms: C_21  and  C_22 
REMARK   13  A    between atoms: C_22  and  N_23 
REMARK       I    between atoms: N_23  and  C_24 
REMARK   14  A    between atoms: N_33  and  C_39 
REMARK       I    between atoms: N_37  and  C_38 
REMARK   15  A    between atoms: C_38  and  C_39 
REMARK   16  A    between atoms: C_39  and  C_40 
ROOT
HETATM    1  H           1     -34.375  -2.440 -13.311  0.00  0.00     0.163 HD
HETATM    2  O           1     -36.139  -2.832 -10.747  0.00  0.00    -0.271 OA
HETATM    3  N           1     -34.816  -2.930 -12.542  0.00  0.00    -0.345 N 
HETATM    4  C           1     -35.613  -2.248 -11.664  0.00  0.00     0.249 C 
ENDROOT
BRANCH   3   5
HETATM    5  C           1     -34.604  -4.355 -12.374  0.00  0.00     0.187 C 
BRANCH   5   6
HETATM    6  C           1     -34.600  -5.032 -13.738  0.00  0.00     0.066 C 
BRANCH   6   7
HETATM    7  C           1     -33.906  -4.131 -14.750  0.00  0.00     0.273 C 
BRANCH   7   8
HETATM    8  N           1     -33.793  -4.820 -16.008  0.00  0.00     0.098 N 
HETATM    9  H           1     -34.432  -4.400 -16.684  0.00  0.00     0.317 HD
BRANCH   8  10
HETATM   10  C           1     -32.440  -4.670 -16.469  0.00  0.00     0.320 C 
BRANCH  10  11
HETATM   11  C           1     -32.054  -5.880 -17.309  0.00  0.00     0.056 C 
BRANCH  11  12
HETATM   12  C           1     -30.634  -6.310 -16.959  0.00  0.00     0.105 C 
BRANCH  12  13
HETATM   13  C           1     -30.288  -7.568 -17.715  0.00  0.00     0.215 C 
HETATM   14  O           1     -30.939  -7.892 -18.681  0.00  0.00    -0.274 OA
HETATM   15  N           1     -29.236  -8.344 -17.307  0.00  0.00    -0.370 N 
HETATM   16  H           1     -28.691  -8.073 -16.499  0.00  0.00     0.159 HD
HETATM   17  H           1     -29.003  -9.188 -17.814  0.00  0.00     0.159 HD
ENDBRANCH  12  13
ENDBRANCH  11  12
ENDBRANCH  10  11
BRANCH  10  18
HETATM   18  C           1     -32.330  -3.419 -17.306  0.00  0.00     0.207 C 
HETATM   19  O           1     -33.362  -2.802 -17.647  0.00  0.00    -0.646 OA
HETATM   20  O           1     -31.206  -3.000 -17.659  0.00  0.00    -0.646 OA
ENDBRANCH  10  18
ENDBRANCH   8  10
ENDBRANCH   7   8
ENDBRANCH   6   7
ENDBRANCH   5   6
BRANCH   5  21
HETATM   21  C           1     -33.277  -4.588 -11.693  0.00  0.00     0.196 C 
HETATM   22  O           1     -32.443  -3.659 -11.616  0.00  0.00    -0.646 OA
HETATM   23  O           1     -33.012  -5.708 -11.207  0.00  0.00    -0.646 OA
ENDBRANCH   5  21
ENDBRANCH   3   5
BRANCH   4  24
HETATM   24  C           1     -35.834  -0.765 -11.838  0.00  0.00     0.274 C 
BRANCH  24  25
HETATM   25  N           1     -36.043  -0.130 -10.496  0.00  0.00    -0.067 N 
HETATM   26  H           1     -35.559  -0.697  -9.764  0.00  0.00     0.275 HD
HETATM   27  H           1     -37.066  -0.088 -10.285  0.00  0.00     0.275 HD
HETATM   28  H           1     -35.649   0.838 -10.502  0.00  0.00     0.275 HD
ENDBRANCH  24  25
BRANCH  24  29
HETATM   29  C           1     -34.617  -0.144 -12.511  0.00  0.00     0.044 C 
BRANCH  29  30
HETATM   30  C           1     -35.069   0.950 -13.469  0.00  0.00     0.023 C 
BRANCH  30  31
HETATM   31  C           1     -36.181   0.415 -14.362  0.00  0.00     0.138 C 
BRANCH  31  32
HETATM   32  N           1     -35.596  -0.384 -15.448  0.00  0.00    -0.227 N 
HETATM   33  C           1     -36.310  -0.733 -16.433  0.00  0.00     0.665 C 
HETATM   34  N           1     -37.561  -0.384 -16.484  0.00  0.00    -0.235 N 
HETATM   35  N           1     -35.806  -1.422 -17.369  0.00  0.00    -0.235 N 
HETATM   36  H           1     -38.151  -0.671 -17.299  0.00  0.00     0.174 HD
HETATM   37  H           1     -37.977   0.185 -15.712  0.00  0.00     0.174 HD
HETATM   38  H           1     -36.398  -1.710 -18.186  0.00  0.00     0.174 HD
HETATM   39  H           1     -34.795  -1.704 -17.327  0.00  0.00     0.174 HD
HETATM   40  H           1     -34.585  -0.667 -15.406  0.00  0.00     0.177 HD
ENDBRANCH  31  32
ENDBRANCH  30  31
ENDBRANCH  29  30
ENDBRANCH  24  29
ENDBRANCH   4  24
TORSDOF 16
ENDMDL
MODEL 4
REMARK VINA RESULT:      -6.6      2.408      9.199
REMARK  16 active torsions:
REMARK  status: ('A' for Active; 'I' for Inactive)
REMARK    1  A    between atoms: C_2  and  C_3 
REMARK    2  A    between atoms: C_2  and  C_7 
REMARK    3  A    between atoms: C_3  and  C_12 
REMARK       I    between atoms: N_4  and  C_12 
REMARK    4  A    between atoms: C_6  and  C_7 
REMARK    5  A    between atoms: C_7  and  N_19 
REMARK       I    between atoms: N_13  and  C_24 
REMARK    6  A    between atoms: C_14  and  N_19 
REMARK    7  A    between atoms: C_14  and  C_15 
REMARK    8  A    between atoms: C_15  and  C_16 
REMARK    9  A    between atoms: C_16  and  C_17 
REMARK   10  A    between atoms: C_16  and  N_37 
REMARK   11  A    between atoms: C_21  and  C_40 
REMARK   12  A    between atoms: C_21  and  C_22 
REMARK   13  A    between atoms: C_22  and  N_23 
REMARK       I    between atoms: N_23  and  C_24 
REMARK   14  A    between atoms: N_33  and  C_39 
REMARK       I    between atoms: N_37  and  C_38 
REMARK   15  A    between atoms: C_38  and  C_39 
REMARK   16  A    between atoms: C_39  and  C_40 
ROOT
HETATM    1  H           1     -22.628  -5.947  -6.550  0.00  0.00     0.163 HD
HETATM    2  O           1     -19.680  -5.033  -7.110  0.00  0.00    -0.271 OA
HETATM    3  N           1     -21.633  -5.841  -6.393  0.00  0.00    -0.345 N 
HETATM    4  C           1     -20.867  -5.158  -7.297  0.00  0.00     0.249 C 
ENDROOT
BRANCH   3   5
HETATM    5  C           1     -21.022  -6.413  -5.209  0.00  0.00     0.187 C 
BRANCH   5   6
HETATM    6  C           1     -22.036  -6.429  -4.072  0.00  0.00     0.066 C 
BRANCH   6   7
HETATM    7  C           1     -21.308  -6.300  -2.741  0.00  0.00     0.273 C 
BRANCH   7   8
HETATM    8  N           1     -22.213  -6.606  -1.666  0.00  0.00     0.098 N 
HETATM    9  H           1     -23.174  -6.478  -1.985  0.00  0.00     0.317 HD
BRANCH   8  10
HETATM   10  C           1     -22.009  -7.982  -1.301  0.00  0.00     0.320 C 
BRANCH  10  11
HETATM   11  C           1     -20.540  -8.342  -1.483  0.00  0.00     0.056 C 
BRANCH  11  12
HETATM   12  C           1     -20.430  -9.667  -2.226  0.00  0.00     0.105 C 
BRANCH  12  13
HETATM   13  C           1     -18.978 -10.055  -2.352  0.00  0.00     0.215 C 
HETATM   14  O           1     -18.518 -10.916  -1.642  0.00  0.00    -0.274 OA
HETATM   15  N           1     -18.181  -9.429  -3.274  0.00  0.00    -0.370 N 
HETATM   16  H           1     -18.567  -8.707  -3.870  0.00  0.00     0.159 HD
HETATM   17  H           1     -17.207  -9.688  -3.359  0.00  0.00     0.159 HD
ENDBRANCH  12  13
ENDBRANCH  11  12
ENDBRANCH  10  11
BRANCH  10  18
HETATM   18  C           1     -22.401  -8.181   0.142  0.00  0.00     0.207 C 
HETATM   19  O           1     -21.573  -7.961   1.052  0.00  0.00    -0.646 OA
HETATM   20  O           1     -23.556  -8.566   0.428  0.00  0.00    -0.646 OA
ENDBRANCH  10  18
ENDBRANCH   8  10
ENDBRANCH   7   8
ENDBRANCH   6   7
ENDBRANCH   5   6
BRANCH   5  21
HETATM   21  C           1     -20.577  -7.825  -5.505  0.00  0.00     0.196 C 
HETATM   22  O           1     -21.428  -8.728  -5.661  0.00  0.00    -0.646 OA
HETATM   23  O           1     -19.360  -8.090  -5.594  0.00  0.00    -0.646 OA
ENDBRANCH   5  21
ENDBRANCH   3   5
BRANCH   4  24
HETATM   24  C           1     -21.502  -4.563  -8.530  0.00  0.00     0.274 C 
BRANCH  24  25
HETATM   25  N           1     -22.498  -3.518  -8.122  0.00  0.00    -0.067 N 
HETATM   26  H           1     -22.101  -2.944  -7.344  0.00  0.00     0.275 HD
HETATM   27  H           1     -23.377  -3.982  -7.800  0.00  0.00     0.275 HD
HETATM   28  H           1     -22.709  -2.900  -8.938  0.00  0.00     0.275 HD
ENDBRANCH  24  25
BRANCH  24  29
HETATM   29  C           1     -20.426  -3.928  -9.401  0.00  0.00     0.044 C 
BRANCH  29  30
HETATM   30  C           1     -20.623  -4.362 -10.847  0.00  0.00     0.023 C 
BRANCH  30  31
HETATM   31  C           1     -21.926  -3.782 -11.380  0.00  0.00     0.138 C 
BRANCH  31  32
HETATM   32  N           1     -21.860  -3.691 -12.845  0.00  0.00    -0.227 N 
HETATM   33  C           1     -22.702  -2.985 -13.474  0.00  0.00     0.665 C 
HETATM   34  N           1     -23.624  -2.340 -12.824  0.00  0.00    -0.235 N 
HETATM   35  N           1     -22.644  -2.907 -14.737  0.00  0.00    -0.235 N 
HETATM   36  H           1     -24.318  -1.755 -13.343  0.00  0.00     0.174 HD
HETATM   37  H           1     -23.671  -2.405 -11.782  0.00  0.00     0.174 HD
HETATM   38  H           1     -23.342  -2.321 -15.258  0.00  0.00     0.174 HD
HETATM   39  H           1     -21.900  -3.428 -15.262  0.00  0.00     0.174 HD
HETATM   40  H           1     -21.116  -4.213 -13.370  0.00  0.00     0.177 HD
ENDBRANCH  31  32
ENDBRANCH  30  31
ENDBRANCH  29  30
ENDBRANCH  24  29
ENDBRANCH   4  24
TORSDOF 16
ENDMDL
MODEL 5
REMARK VINA RESULT:      -6.4      2.825      9.177
REMARK  16 active torsions:
REMARK  status: ('A' for Active; 'I' for Inactive)
REMARK    1  A    between atoms: C_2  and  C_3 
REMARK    2  A    between atoms: C_2  and  C_7 
REMARK    3  A    between atoms: C_3  and  C_12 
REMARK       I    between atoms: N_4  and  C_12 
REMARK    4  A    between atoms: C_6  and  C_7 
REMARK    5  A    between atoms: C_7  and  N_19 
REMARK       I    between atoms: N_13  and  C_24 
REMARK    6  A    between atoms: C_14  and  N_19 
REMARK    7  A    between atoms: C_14  and  C_15 
REMARK    8  A    between atoms: C_15  and  C_16 
REMARK    9  A    between atoms: C_16  and  C_17 
REMARK   10  A    between atoms: C_16  and  N_37 
REMARK   11  A    between atoms: C_21  and  C_40 
REMARK   12  A    between atoms: C_21  and  C_22 
REMARK   13  A    between atoms: C_22  and  N_23 
REMARK       I    between atoms: N_23  and  C_24 
REMARK   14  A    between atoms: N_33  and  C_39 
REMARK       I    between atoms: N_37  and  C_38 
REMARK   15  A    between atoms: C_38  and  C_39 
REMARK   16  A    between atoms: C_39  and  C_40 
ROOT
HETATM    1  H           1     -21.780  -7.093  -7.017  0.00  0.00     0.163 HD
HETATM    2  O           1     -20.560  -4.329  -6.175  0.00  0.00    -0.271 OA
HETATM    3  N           1     -21.310  -6.416  -6.429  0.00  0.00    -0.345 N 
HETATM    4  C           1     -21.122  -5.136  -6.876  0.00  0.00     0.249 C 
ENDROOT
BRANCH   3   5
HETATM    5  C           1     -20.837  -6.802  -5.114  0.00  0.00     0.187 C 
BRANCH   5   6
HETATM    6  C           1     -21.992  -6.745  -4.122  0.00  0.00     0.066 C 
BRANCH   6   7
HETATM    7  C           1     -21.497  -6.179  -2.798  0.00  0.00     0.273 C 
BRANCH   7   8
HETATM    8  N           1     -20.821  -7.210  -2.058  0.00  0.00     0.098 N 
HETATM    9  H           1     -20.383  -6.803  -1.231  0.00  0.00     0.317 HD
BRANCH   8  10
HETATM   10  C           1     -21.806  -8.175  -1.653  0.00  0.00     0.320 C 
BRANCH  10  11
HETATM   11  C           1     -21.223  -9.577  -1.776  0.00  0.00     0.056 C 
BRANCH  11  12
HETATM   12  C           1     -22.263 -10.507  -2.390  0.00  0.00     0.105 C 
BRANCH  12  13
HETATM   13  C           1     -23.032 -11.197  -1.291  0.00  0.00     0.215 C 
HETATM   14  O           1     -24.240 -11.207  -1.313  0.00  0.00    -0.274 OA
HETATM   15  N           1     -22.360 -11.813  -0.269  0.00  0.00    -0.370 N 
HETATM   16  H           1     -21.348 -11.805  -0.251  0.00  0.00     0.159 HD
HETATM   17  H           1     -22.876 -12.276   0.468  0.00  0.00     0.159 HD
ENDBRANCH  12  13
ENDBRANCH  11  12
ENDBRANCH  10  11
BRANCH  10  18
HETATM   18  C           1     -22.201  -7.918  -0.219  0.00  0.00     0.207 C 
HETATM   19  O           1     -23.303  -7.391   0.041  0.00  0.00    -0.646 OA
HETATM   20  O           1     -21.425  -8.234   0.709  0.00  0.00    -0.646 OA
ENDBRANCH  10  18
ENDBRANCH   8  10
ENDBRANCH   7   8
ENDBRANCH   6   7
ENDBRANCH   5   6
BRANCH   5  21
HETATM   21  C           1     -20.290  -8.208  -5.170  0.00  0.00     0.196 C 
HETATM   22  O           1     -19.254  -8.500  -4.534  0.00  0.00    -0.646 OA
HETATM   23  O           1     -20.873  -9.078  -5.850  0.00  0.00    -0.646 OA
ENDBRANCH   5  21
ENDBRANCH   3   5
BRANCH   4  24
HETATM   24  C           1     -21.614  -4.734  -8.245  0.00  0.00     0.274 C 
BRANCH  24  25
HETATM   25  N           1     -22.737  -3.751  -8.102  0.00  0.00    -0.067 N 
HETATM   26  H           1     -22.469  -2.847  -8.552  0.00  0.00     0.275 HD
HETATM   27  H           1     -22.933  -3.590  -7.088  0.00  0.00     0.275 HD
HETATM   28  H           1     -23.594  -4.129  -8.566  0.00  0.00     0.275 HD
ENDBRANCH  24  25
BRANCH  24  29
HETATM   29  C           1     -20.475  -4.094  -9.027  0.00  0.00     0.044 C 
BRANCH  29  30
HETATM   30  C           1     -20.591  -4.478 -10.497  0.00  0.00     0.023 C 
BRANCH  30  31
HETATM   31  C           1     -20.912  -3.239 -11.322  0.00  0.00     0.138 C 
BRANCH  31  32
HETATM   32  N           1     -21.545  -3.643 -12.586  0.00  0.00    -0.227 N 
HETATM   33  C           1     -22.654  -3.138 -12.928  0.00  0.00     0.665 C 
HETATM   34  N           1     -23.233  -2.262 -12.161  0.00  0.00    -0.235 N 
HETATM   35  N           1     -23.199  -3.485 -14.017  0.00  0.00    -0.235 N 
HETATM   36  H           1     -24.149  -1.844 -12.445  0.00  0.00     0.174 HD
HETATM   37  H           1     -22.784  -1.975 -11.263  0.00  0.00     0.174 HD
HETATM   38  H           1     -24.119  -3.066 -14.301  0.00  0.00     0.174 HD
HETATM   39  H           1     -22.731  -4.193 -14.636  0.00  0.00     0.174 HD
HETATM   40  H           1     -21.077  -4.350 -13.205  0.00  0.00     0.177 HD
ENDBRANCH  31  32
ENDBRANCH  30  31
ENDBRANCH  29  30
ENDBRANCH  24  29
ENDBRANCH   4  24
TORSDOF 16
ENDMDL
MODEL 6
REMARK VINA RESULT:      -6.4      2.342      9.404
REMARK  16 active torsions:
REMARK  status: ('A' for Active; 'I' for Inactive)
REMARK    1  A    between atoms: C_2  and  C_3 
REMARK    2  A    between atoms: C_2  and  C_7 
REMARK    3  A    between atoms: C_3  and  C_12 
REMARK       I    between atoms: N_4  and  C_12 
REMARK    4  A    between atoms: C_6  and  C_7 
REMARK    5  A    between atoms: C_7  and  N_19 
REMARK       I    between atoms: N_13  and  C_24 
REMARK    6  A    between atoms: C_14  and  N_19 
REMARK    7  A    between atoms: C_14  and  C_15 
REMARK    8  A    between atoms: C_15  and  C_16 
REMARK    9  A    between atoms: C_16  and  C_17 
REMARK   10  A    between atoms: C_16  and  N_37 
REMARK   11  A    between atoms: C_21  and  C_40 
REMARK   12  A    between atoms: C_21  and  C_22 
REMARK   13  A    between atoms: C_22  and  N_23 
REMARK       I    between atoms: N_23  and  C_24 
REMARK   14  A    between atoms: N_33  and  C_39 
REMARK       I    between atoms: N_37  and  C_38 
REMARK   15  A    between atoms: C_38  and  C_39 
REMARK   16  A    between atoms: C_39  and  C_40 
ROOT
HETATM    1  H           1     -21.771  -6.065  -8.851  0.00  0.00     0.163 HD
HETATM    2  O           1     -22.718  -3.159  -8.145  0.00  0.00    -0.271 OA
HETATM    3  N           1     -21.863  -5.215  -8.309  0.00  0.00    -0.345 N 
HETATM    4  C           1     -22.609  -4.174  -8.791  0.00  0.00     0.249 C 
ENDROOT
BRANCH   3   5
HETATM    5  C           1     -21.203  -5.101  -7.023  0.00  0.00     0.187 C 
BRANCH   5   6
HETATM    6  C           1     -21.898  -6.005  -6.014  0.00  0.00     0.066 C 
BRANCH   6   7
HETATM    7  C           1     -21.271  -5.809  -4.640  0.00  0.00     0.273 C 
BRANCH   7   8
HETATM    8  N           1     -21.876  -6.717  -3.703  0.00  0.00     0.098 N 
HETATM    9  H           1     -22.544  -7.314  -4.191  0.00  0.00     0.317 HD
BRANCH   8  10
HETATM   10  C           1     -20.830  -7.527  -3.140  0.00  0.00     0.320 C 
BRANCH  10  11
HETATM   11  C           1     -21.354  -8.245  -1.904  0.00  0.00     0.056 C 
BRANCH  11  12
HETATM   12  C           1     -22.003  -7.234  -0.967  0.00  0.00     0.105 C 
BRANCH  12  13
HETATM   13  C           1     -22.347  -7.907   0.339  0.00  0.00     0.215 C 
HETATM   14  O           1     -23.503  -8.066   0.651  0.00  0.00    -0.274 OA
HETATM   15  N           1     -21.348  -8.339   1.170  0.00  0.00    -0.370 N 
HETATM   16  H           1     -20.379  -8.206   0.908  0.00  0.00     0.159 HD
HETATM   17  H           1     -21.578  -8.790   2.046  0.00  0.00     0.159 HD
ENDBRANCH  12  13
ENDBRANCH  11  12
ENDBRANCH  10  11
BRANCH  10  18
HETATM   18  C           1     -20.379  -8.543  -4.160  0.00  0.00     0.207 C 
HETATM   19  O           1     -19.168  -8.640  -4.455  0.00  0.00    -0.646 OA
HETATM   20  O           1     -21.217  -9.290  -4.711  0.00  0.00    -0.646 OA
ENDBRANCH  10  18
ENDBRANCH   8  10
ENDBRANCH   7   8
ENDBRANCH   6   7
ENDBRANCH   5   6
BRANCH   5  21
HETATM   21  C           1     -19.759  -5.517  -7.161  0.00  0.00     0.196 C 
HETATM   22  O           1     -18.867  -4.648  -7.277  0.00  0.00    -0.646 OA
HETATM   23  O           1     -19.455  -6.729  -7.159  0.00  0.00    -0.646 OA
ENDBRANCH   5  21
ENDBRANCH   3   5
BRANCH   4  24
HETATM   24  C           1     -23.296  -4.292 -10.129  0.00  0.00     0.274 C 
BRANCH  24  25
HETATM   25  N           1     -24.723  -4.706  -9.923  0.00  0.00    -0.067 N 
HETATM   26  H           1     -24.884  -4.905  -8.910  0.00  0.00     0.275 HD
HETATM   27  H           1     -24.921  -5.566 -10.483  0.00  0.00     0.275 HD
HETATM   28  H           1     -25.358  -3.936 -10.232  0.00  0.00     0.275 HD
ENDBRANCH  24  25
BRANCH  24  29
HETATM   29  C           1     -23.255  -2.948 -10.843  0.00  0.00     0.044 C 
BRANCH  29  30
HETATM   30  C           1     -22.311  -3.035 -12.035  0.00  0.00     0.023 C 
BRANCH  30  31
HETATM   31  C           1     -23.120  -3.200 -13.314  0.00  0.00     0.138 C 
BRANCH  31  32
HETATM   32  N           1     -23.939  -2.000 -13.535  0.00  0.00    -0.227 N 
HETATM   33  C           1     -23.794  -1.320 -14.593  0.00  0.00     0.665 C 
HETATM   34  N           1     -22.922  -1.685 -15.485  0.00  0.00    -0.235 N 
HETATM   35  N           1     -24.501  -0.286 -14.783  0.00  0.00    -0.235 N 
HETATM   36  H           1     -22.803  -1.124 -16.360  0.00  0.00     0.174 HD
HETATM   37  H           1     -22.339  -2.538 -15.328  0.00  0.00     0.174 HD
HETATM   38  H           1     -24.381   0.277 -15.661  0.00  0.00     0.174 HD
HETATM   39  H           1     -25.205   0.008 -14.063  0.00  0.00     0.174 HD
HETATM   40  H           1     -24.643  -1.705 -12.814  0.00  0.00     0.177 HD
ENDBRANCH  31  32
ENDBRANCH  30  31
ENDBRANCH  29  30
ENDBRANCH  24  29
ENDBRANCH   4  24
TORSDOF 16
ENDMDL
MODEL 7
REMARK VINA RESULT:      -6.4      2.906      8.393
REMARK  16 active torsions:
REMARK  status: ('A' for Active; 'I' for Inactive)
REMARK    1  A    between atoms: C_2  and  C_3 
REMARK    2  A    between atoms: C_2  and  C_7 
REMARK    3  A    between atoms: C_3  and  C_12 
REMARK       I    between atoms: N_4  and  C_12 
REMARK    4  A    between atoms: C_6  and  C_7 
REMARK    5  A    between atoms: C_7  and  N_19 
REMARK       I    between atoms: N_13  and  C_24 
REMARK    6  A    between atoms: C_14  and  N_19 
REMARK    7  A    between atoms: C_14  and  C_15 
REMARK    8  A    between atoms: C_15  and  C_16 
REMARK    9  A    between atoms: C_16  and  C_17 
REMARK   10  A    between atoms: C_16  and  N_37 
REMARK   11  A    between atoms: C_21  and  C_40 
REMARK   12  A    between atoms: C_21  and  C_22 
REMARK   13  A    between atoms: C_22  and  N_23 
REMARK       I    between atoms: N_23  and  C_24 
REMARK   14  A    between atoms: N_33  and  C_39 
REMARK       I    between atoms: N_37  and  C_38 
REMARK   15  A    between atoms: C_38  and  C_39 
REMARK   16  A    between atoms: C_39  and  C_40 
ROOT
HETATM    1  H           1     -20.473  -8.424  -3.990  0.00  0.00     0.163 HD
HETATM    2  O           1     -19.436  -7.185  -6.679  0.00  0.00    -0.271 OA
HETATM    3  N           1     -19.923  -8.348  -4.837  0.00  0.00    -0.345 N 
HETATM    4  C           1     -20.092  -7.274  -5.668  0.00  0.00     0.249 C 
ENDROOT
BRANCH   3   5
HETATM    5  C           1     -18.958  -9.378  -5.169  0.00  0.00     0.187 C 
BRANCH   5   6
HETATM    6  C           1     -18.031  -9.607  -3.982  0.00  0.00     0.066 C 
BRANCH   6   7
HETATM    7  C           1     -18.765  -9.265  -2.692  0.00  0.00     0.273 C 
BRANCH   7   8
HETATM    8  N           1     -19.399 -10.448  -2.173  0.00  0.00     0.098 N 
HETATM    9  H           1     -18.782 -10.894  -1.495  0.00  0.00     0.317 HD
BRANCH   8  10
HETATM   10  C           1     -20.615 -10.042  -1.521  0.00  0.00     0.320 C 
BRANCH  10  11
HETATM   11  C           1     -20.558  -8.549  -1.227  0.00  0.00     0.056 C 
BRANCH  11  12
HETATM   12  C           1     -21.240  -8.267   0.106  0.00  0.00     0.105 C 
BRANCH  12  13
HETATM   13  C           1     -22.566  -7.592  -0.140  0.00  0.00     0.215 C 
HETATM   14  O           1     -22.664  -6.745  -0.995  0.00  0.00    -0.274 OA
HETATM   15  N           1     -23.660  -7.940   0.607  0.00  0.00    -0.370 N 
HETATM   16  H           1     -23.578  -8.650   1.324  0.00  0.00     0.159 HD
HETATM   17  H           1     -24.550  -7.488   0.443  0.00  0.00     0.159 HD
ENDBRANCH  12  13
ENDBRANCH  11  12
ENDBRANCH  10  11
BRANCH  10  18
HETATM   18  C           1     -21.789 -10.334  -2.421  0.00  0.00     0.207 C 
HETATM   19  O           1     -22.471 -11.367  -2.245  0.00  0.00    -0.646 OA
HETATM   20  O           1     -22.082  -9.542  -3.344  0.00  0.00    -0.646 OA
ENDBRANCH  10  18
ENDBRANCH   8  10
ENDBRANCH   7   8
ENDBRANCH   6   7
ENDBRANCH   5   6
BRANCH   5  21
HETATM   21  C           1     -19.684 -10.661  -5.495  0.00  0.00     0.196 C 
HETATM   22  O           1     -20.655 -10.645  -6.283  0.00  0.00    -0.646 OA
HETATM   23  O           1     -19.315 -11.736  -4.978  0.00  0.00    -0.646 OA
ENDBRANCH   5  21
ENDBRANCH   3   5
BRANCH   4  24
HETATM   24  C           1     -21.096  -6.202  -5.324  0.00  0.00     0.274 C 
BRANCH  24  25
HETATM   25  N           1     -21.635  -6.448  -3.946  0.00  0.00    -0.067 N 
HETATM   26  H           1     -20.904  -6.916  -3.365  0.00  0.00     0.275 HD
HETATM   27  H           1     -22.479  -7.062  -4.006  0.00  0.00     0.275 HD
HETATM   28  H           1     -21.898  -5.537  -3.506  0.00  0.00     0.275 HD
ENDBRANCH  24  25
BRANCH  24  29
HETATM   29  C           1     -20.420  -4.838  -5.369  0.00  0.00     0.044 C 
BRANCH  29  30
HETATM   30  C           1     -20.841  -4.105  -6.637  0.00  0.00     0.023 C 
BRANCH  30  31
HETATM   31  C           1     -22.188  -4.637  -7.108  0.00  0.00     0.138 C 
BRANCH  31  32
HETATM   32  N           1     -22.192  -4.730  -8.575  0.00  0.00    -0.227 N 
HETATM   33  C           1     -23.179  -4.288  -9.234  0.00  0.00     0.665 C 
HETATM   34  N           1     -24.187  -3.752  -8.613  0.00  0.00    -0.235 N 
HETATM   35  N           1     -23.182  -4.367 -10.498  0.00  0.00    -0.235 N 
HETATM   36  H           1     -25.001  -3.386  -9.158  0.00  0.00     0.174 HD
HETATM   37  H           1     -24.184  -3.686  -7.570  0.00  0.00     0.174 HD
HETATM   38  H           1     -24.000  -4.000 -11.044  0.00  0.00     0.174 HD
HETATM   39  H           1     -22.368  -4.801 -10.999  0.00  0.00     0.174 HD
HETATM   40  H           1     -21.378  -5.163  -9.076  0.00  0.00     0.177 HD
ENDBRANCH  31  32
ENDBRANCH  30  31
ENDBRANCH  29  30
ENDBRANCH  24  29
ENDBRANCH   4  24
TORSDOF 16
ENDMDL
MODEL 8
REMARK VINA RESULT:      -6.3      3.013      8.910
REMARK  16 active torsions:
REMARK  status: ('A' for Active; 'I' for Inactive)
REMARK    1  A    between atoms: C_2  and  C_3 
REMARK    2  A    between atoms: C_2  and  C_7 
REMARK    3  A    between atoms: C_3  and  C_12 
REMARK       I    between atoms: N_4  and  C_12 
REMARK    4  A    between atoms: C_6  and  C_7 
REMARK    5  A    between atoms: C_7  and  N_19 
REMARK       I    between atoms: N_13  and  C_24 
REMARK    6  A    between atoms: C_14  and  N_19 
REMARK    7  A    between atoms: C_14  and  C_15 
REMARK    8  A    between atoms: C_15  and  C_16 
REMARK    9  A    between atoms: C_16  and  C_17 
REMARK   10  A    between atoms: C_16  and  N_37 
REMARK   11  A    between atoms: C_21  and  C_40 
REMARK   12  A    between atoms: C_21  and  C_22 
REMARK   13  A    between atoms: C_22  and  N_23 
REMARK       I    between atoms: N_23  and  C_24 
REMARK   14  A    between atoms: N_33  and  C_39 
REMARK       I    between atoms: N_37  and  C_38 
REMARK   15  A    between atoms: C_38  and  C_39 
REMARK   16  A    between atoms: C_39  and  C_40 
ROOT
HETATM    1  H           1     -21.251  -7.991  -4.367  0.00  0.00     0.163 HD
HETATM    2  O           1     -19.418  -6.949  -6.690  0.00  0.00    -0.271 OA
HETATM    3  N           1     -20.454  -7.961  -4.991  0.00  0.00    -0.345 N 
HETATM    4  C           1     -20.368  -6.984  -5.945  0.00  0.00     0.249 C 
ENDROOT
BRANCH   3   5
HETATM    5  C           1     -19.404  -8.954  -4.873  0.00  0.00     0.187 C 
BRANCH   5   6
HETATM    6  C           1     -19.087  -9.185  -3.401  0.00  0.00     0.066 C 
BRANCH   6   7
HETATM    7  C           1     -20.259  -9.892  -2.734  0.00  0.00     0.273 C 
BRANCH   7   8
HETATM    8  N           1     -20.535  -9.272  -1.466  0.00  0.00     0.098 N 
HETATM    9  H           1     -19.930  -8.459  -1.347  0.00  0.00     0.317 HD
BRANCH   8  10
HETATM   10  C           1     -21.909  -8.849  -1.476  0.00  0.00     0.320 C 
BRANCH  10  11
HETATM   11  C           1     -22.609  -9.370  -0.228  0.00  0.00     0.056 C 
BRANCH  11  12
HETATM   12  C           1     -23.474 -10.569  -0.594  0.00  0.00     0.105 C 
BRANCH  12  13
HETATM   13  C           1     -22.822 -11.833  -0.091  0.00  0.00     0.215 C 
HETATM   14  O           1     -21.767 -12.195  -0.555  0.00  0.00    -0.274 OA
HETATM   15  N           1     -23.427 -12.570   0.892  0.00  0.00    -0.370 N 
HETATM   16  H           1     -24.311 -12.267   1.281  0.00  0.00     0.159 HD
HETATM   17  H           1     -22.990 -13.418   1.230  0.00  0.00     0.159 HD
ENDBRANCH  12  13
ENDBRANCH  11  12
ENDBRANCH  10  11
BRANCH  10  18
HETATM   18  C           1     -21.970  -7.341  -1.496  0.00  0.00     0.207 C 
HETATM   19  O           1     -22.737  -6.736  -0.717  0.00  0.00    -0.646 OA
HETATM   20  O           1     -21.252  -6.698  -2.292  0.00  0.00    -0.646 OA
ENDBRANCH  10  18
ENDBRANCH   8  10
ENDBRANCH   7   8
ENDBRANCH   6   7
ENDBRANCH   5   6
BRANCH   5  21
HETATM   21  C           1     -19.865 -10.249  -5.497  0.00  0.00     0.196 C 
HETATM   22  O           1     -21.007 -10.328  -6.000  0.00  0.00    -0.646 OA
HETATM   23  O           1     -19.105 -11.240  -5.512  0.00  0.00    -0.646 OA
ENDBRANCH   5  21
ENDBRANCH   3   5
BRANCH   4  24
HETATM   24  C           1     -21.461  -5.950  -6.068  0.00  0.00     0.274 C 
BRANCH  24  25
HETATM   25  N           1     -22.386  -6.060  -4.893  0.00  0.00    -0.067 N 
HETATM   26  H           1     -23.102  -6.797  -5.082  0.00  0.00     0.275 HD
HETATM   27  H           1     -22.863  -5.143  -4.738  0.00  0.00     0.275 HD
HETATM   28  H           1     -21.839  -6.317  -4.040  0.00  0.00     0.275 HD
ENDBRANCH  24  25
BRANCH  24  29
HETATM   29  C           1     -20.843  -4.558  -6.101  0.00  0.00     0.044 C 
BRANCH  29  30
HETATM   30  C           1     -21.535  -3.722  -7.169  0.00  0.00     0.023 C 
BRANCH  30  31
HETATM   31  C           1     -22.379  -4.627  -8.057  0.00  0.00     0.138 C 
BRANCH  31  32
HETATM   32  N           1     -23.681  -3.993  -8.307  0.00  0.00    -0.227 N 
HETATM   33  C           1     -24.244  -4.128  -9.433  0.00  0.00     0.665 C 
HETATM   34  N           1     -23.672  -4.827 -10.366  0.00  0.00    -0.235 N 
HETATM   35  N           1     -25.367  -3.581  -9.648  0.00  0.00    -0.235 N 
HETATM   36  H           1     -24.138  -4.940 -11.295  0.00  0.00     0.174 HD
HETATM   37  H           1     -22.746  -5.278 -10.189  0.00  0.00     0.174 HD
HETATM   38  H           1     -25.834  -3.694 -10.581  0.00  0.00     0.174 HD
HETATM   39  H           1     -25.829  -3.016  -8.893  0.00  0.00     0.174 HD
HETATM   40  H           1     -24.143  -3.427  -7.553  0.00  0.00     0.177 HD
ENDBRANCH  31  32
ENDBRANCH  30  31
ENDBRANCH  29  30
ENDBRANCH  24  29
ENDBRANCH   4  24
TORSDOF 16
ENDMDL
MODEL 9
REMARK VINA RESULT:      -6.2     12.596     15.858
REMARK  16 active torsions:
REMARK  status: ('A' for Active; 'I' for Inactive)
REMARK    1  A    between atoms: C_2  and  C_3 
REMARK    2  A    between atoms: C_2  and  C_7 
REMARK    3  A    between atoms: C_3  and  C_12 
REMARK       I    between atoms: N_4  and  C_12 
REMARK    4  A    between atoms: C_6  and  C_7 
REMARK    5  A    between atoms: C_7  and  N_19 
REMARK       I    between atoms: N_13  and  C_24 
REMARK    6  A    between atoms: C_14  and  N_19 
REMARK    7  A    between atoms: C_14  and  C_15 
REMARK    8  A    between atoms: C_15  and  C_16 
REMARK    9  A    between atoms: C_16  and  C_17 
REMARK   10  A    between atoms: C_16  and  N_37 
REMARK   11  A    between atoms: C_21  and  C_40 
REMARK   12  A    between atoms: C_21  and  C_22 
REMARK   13  A    between atoms: C_22  and  N_23 
REMARK       I    between atoms: N_23  and  C_24 
REMARK   14  A    between atoms: N_33  and  C_39 
REMARK       I    between atoms: N_37  and  C_38 
REMARK   15  A    between atoms: C_38  and  C_39 
REMARK   16  A    between atoms: C_39  and  C_40 
ROOT
HETATM    1  H           1     -33.682  -1.344 -15.501  0.00  0.00     0.163 HD
HETATM    2  O           1     -36.672  -1.474 -16.439  0.00  0.00    -0.271 OA
HETATM    3  N           1     -34.516  -1.733 -15.923  0.00  0.00    -0.345 N 
HETATM    4  C           1     -35.677  -1.009 -15.936  0.00  0.00     0.249 C 
ENDROOT
BRANCH   3   5
HETATM    5  C           1     -34.479  -3.057 -16.512  0.00  0.00     0.187 C 
BRANCH   5   6
HETATM    6  C           1     -33.152  -3.255 -17.233  0.00  0.00     0.066 C 
BRANCH   6   7
HETATM    7  C           1     -32.626  -4.656 -16.954  0.00  0.00     0.273 C 
BRANCH   7   8
HETATM    8  N           1     -31.398  -4.569 -16.210  0.00  0.00     0.098 N 
HETATM    9  H           1     -31.609  -4.432 -15.221  0.00  0.00     0.317 HD
BRANCH   8  10
HETATM   10  C           1     -30.693  -5.810 -16.383  0.00  0.00     0.320 C 
BRANCH  10  11
HETATM   11  C           1     -30.325  -5.984 -17.850  0.00  0.00     0.056 C 
BRANCH  11  12
HETATM   12  C           1     -30.557  -7.431 -18.264  0.00  0.00     0.105 C 
BRANCH  12  13
HETATM   13  C           1     -29.359  -7.934 -19.031  0.00  0.00     0.215 C 
HETATM   14  O           1     -29.422  -8.979 -19.633  0.00  0.00    -0.274 OA
HETATM   15  N           1     -28.200  -7.205 -19.044  0.00  0.00    -0.370 N 
HETATM   16  H           1     -28.148  -6.329 -18.540  0.00  0.00     0.159 HD
HETATM   17  H           1     -27.397  -7.541 -19.558  0.00  0.00     0.159 HD
ENDBRANCH  12  13
ENDBRANCH  11  12
ENDBRANCH  10  11
BRANCH  10  18
HETATM   18  C           1     -29.437  -5.794 -15.547  0.00  0.00     0.207 C 
HETATM   19  O           1     -29.511  -5.642 -14.309  0.00  0.00    -0.646 OA
HETATM   20  O           1     -28.321  -5.934 -16.094  0.00  0.00    -0.646 OA
ENDBRANCH  10  18
ENDBRANCH   8  10
ENDBRANCH   7   8
ENDBRANCH   6   7
ENDBRANCH   5   6
BRANCH   5  21
HETATM   21  C           1     -34.621  -4.095 -15.426  0.00  0.00     0.196 C 
HETATM   22  O           1     -35.225  -5.165 -15.659  0.00  0.00    -0.646 OA
HETATM   23  O           1     -34.135  -3.885 -14.294  0.00  0.00    -0.646 OA
ENDBRANCH   5  21
ENDBRANCH   3   5
BRANCH   4  24
HETATM   24  C           1     -35.716   0.369 -15.323  0.00  0.00     0.274 C 
BRANCH  24  25
HETATM   25  N           1     -36.609   1.254 -16.140  0.00  0.00    -0.067 N 
HETATM   26  H           1     -36.395   2.254 -15.929  0.00  0.00     0.275 HD
HETATM   27  H           1     -37.608   1.054 -15.905  0.00  0.00     0.275 HD
HETATM   28  H           1     -36.448   1.070 -17.156  0.00  0.00     0.275 HD
ENDBRANCH  24  25
BRANCH  24  29
HETATM   29  C           1     -36.253   0.278 -13.901  0.00  0.00     0.044 C 
BRANCH  29  30
HETATM   30  C           1     -35.088   0.260 -12.919  0.00  0.00     0.023 C 
BRANCH  30  31
HETATM   31  C           1     -35.339  -0.797 -11.852  0.00  0.00     0.138 C 
BRANCH  31  32
HETATM   32  N           1     -34.479  -1.962 -12.104  0.00  0.00    -0.227 N 
HETATM   33  C           1     -33.712  -2.391 -11.193  0.00  0.00     0.665 C 
HETATM   34  N           1     -33.685  -1.802 -10.035  0.00  0.00    -0.235 N 
HETATM   35  N           1     -32.971  -3.395 -11.411  0.00  0.00    -0.235 N 
HETATM   36  H           1     -33.053  -2.158  -9.282  0.00  0.00     0.174 HD
HETATM   37  H           1     -34.297  -0.974  -9.856  0.00  0.00     0.174 HD
HETATM   38  H           1     -32.335  -3.751 -10.655  0.00  0.00     0.174 HD
HETATM   39  H           1     -32.992  -3.871 -12.347  0.00  0.00     0.174 HD
HETATM   40  H           1     -34.500  -2.437 -13.040  0.00  0.00     0.177 HD
ENDBRANCH  31  32
ENDBRANCH  30  31
ENDBRANCH  29  30
ENDBRANCH  24  29
ENDBRANCH   4  24
TORSDOF 16
ENDMDL
