MODEL 1
REMARK VINA RESULT:      -8.3      0.000      0.000
REMARK  8 active torsions:
REMARK  status: ('A' for Active; 'I' for Inactive)
REMARK    1  A    between atoms: C_1  and  C_24 
REMARK    2  A    between atoms: C_1  and  C_2 
REMARK    3  A    between atoms: C_1  and  N_17 
REMARK    4  A    between atoms: C_5  and  C_13 
REMARK    5  A    between atoms: C_5  and  C_18 
REMARK    6  A    between atoms: N_6  and  C_13 
REMARK       I    between atoms: C_8  and  N_17 
REMARK    7  A    between atoms: C_8  and  C_13 
REMARK    8  A    between atoms: C_23  and  C_24 
ROOT
HETATM    1  C           1     -21.041  -5.389  -6.721  0.00  0.00     0.278 C 
ENDROOT
BRANCH   1   2
HETATM    2  C           1     -22.099  -5.827  -5.717  0.00  0.00     0.083 C 
BRANCH   2   3
HETATM    3  C           1     -21.549  -6.922  -4.858  0.00  0.00    -0.028 A 
HETATM    4  C           1     -21.665  -7.016  -3.443  0.00  0.00    -0.002 A 
HETATM    5  C           1     -21.012  -8.186  -3.054  0.00  0.00     0.042 A 
HETATM    6  C           1     -22.266  -6.214  -2.454  0.00  0.00     0.014 A 
HETATM    7  N           1     -20.521  -8.774  -4.198  0.00  0.00    -0.365 N 
HETATM    8  C           1     -20.930  -8.597  -1.718  0.00  0.00     0.030 A 
HETATM    9  C           1     -20.839  -8.018  -5.294  0.00  0.00     0.096 A 
HETATM   10  H           1     -19.980  -9.673  -4.226  0.00  0.00     0.165 HD
HETATM   11  C           1     -21.534  -7.784  -0.754  0.00  0.00     0.002 A 
HETATM   12  C           1     -22.192  -6.610  -1.113  0.00  0.00     0.001 A 
ENDBRANCH   2   3
ENDBRANCH   1   2
BRANCH   1  13
HETATM   13  N           1     -19.887  -4.768  -5.991  0.00  0.00    -0.066 N 
HETATM   14  H           1     -19.060  -5.405  -6.039  0.00  0.00     0.275 HD
HETATM   15  H           1     -19.646  -3.853  -6.436  0.00  0.00     0.275 HD
HETATM   16  H           1     -20.150  -4.612  -4.992  0.00  0.00     0.275 HD
ENDBRANCH   1  13
BRANCH   1  17
HETATM   17  C           1     -21.635  -4.379  -7.671  0.00  0.00     0.249 C 
HETATM   18  N           1     -22.233  -4.797  -8.830  0.00  0.00    -0.344 N 
HETATM   19  H           1     -22.277  -5.784  -9.048  0.00  0.00     0.163 HD
HETATM   20  O           1     -21.584  -3.201  -7.410  0.00  0.00    -0.271 OA
BRANCH  18  21
HETATM   21  C           1     -22.804  -3.826  -9.743  0.00  0.00     0.189 C 
BRANCH  21  22
HETATM   22  C           1     -22.370  -4.149 -11.166  0.00  0.00     0.014 C 
HETATM   23  C           1     -22.886  -3.072 -12.111  0.00  0.00     0.012 C 
BRANCH  22  24
HETATM   24  C           1     -20.849  -4.196 -11.233  0.00  0.00     0.002 C 
HETATM   25  C           1     -20.292  -2.780 -11.171  0.00  0.00     0.005 C 
ENDBRANCH  22  24
ENDBRANCH  21  22
BRANCH  21  26
HETATM   26  C           1     -24.310  -3.878  -9.653  0.00  0.00     0.197 C 
HETATM   27  O           1     -24.958  -2.837  -9.410  0.00  0.00    -0.646 OA
HETATM   28  O           1     -24.909  -4.962  -9.823  0.00  0.00    -0.646 OA
ENDBRANCH  21  26
ENDBRANCH  18  21
ENDBRANCH   1  17
TORSDOF 8
ENDMDL
MODEL 2
REMARK VINA RESULT:      -8.2      2.345      8.196
REMARK  8 active torsions:
REMARK  status: ('A' for Active; 'I' for Inactive)
REMARK    1  A    between atoms: C_1  and  C_24 
REMARK    2  A    between atoms: C_1  and  C_2 
REMARK    3  A    between atoms: C_1  and  N_17 
REMARK    4  A    between atoms: C_5  and  C_13 
REMARK    5  A    between atoms: C_5  and  C_18 
REMARK    6  A    between atoms: N_6  and  C_13 
REMARK       I    between atoms: C_8  and  N_17 
REMARK    7  A    between atoms: C_8  and  C_13 
REMARK    8  A    between atoms: C_23  and  C_24 
ROOT
HETATM    1  C           1     -21.918  -4.417  -7.085  0.00  0.00     0.278 C 
ENDROOT
BRANCH   1   2
HETATM    2  C           1     -21.825  -4.902  -8.525  0.00  0.00     0.083 C 
BRANCH   2   3
HETATM    3  C           1     -22.975  -4.355  -9.311  0.00  0.00    -0.028 A 
HETATM    4  C           1     -22.930  -3.902 -10.659  0.00  0.00    -0.002 A 
HETATM    5  C           1     -24.216  -3.478 -10.994  0.00  0.00     0.042 A 
HETATM    6  C           1     -21.912  -3.812 -11.629  0.00  0.00     0.014 A 
HETATM    7  N           1     -25.007  -3.671  -9.884  0.00  0.00    -0.365 N 
HETATM    8  C           1     -24.538  -2.966 -12.257  0.00  0.00     0.030 A 
HETATM    9  C           1     -24.267  -4.201  -8.860  0.00  0.00     0.096 A 
HETATM   10  H           1     -26.031  -3.444  -9.829  0.00  0.00     0.165 HD
HETATM   11  C           1     -23.511  -2.887 -13.203  0.00  0.00     0.002 A 
HETATM   12  C           1     -22.217  -3.301 -12.896  0.00  0.00     0.001 A 
ENDBRANCH   2   3
ENDBRANCH   1   2
BRANCH   1  13
HETATM   13  N           1     -21.496  -2.979  -7.014  0.00  0.00    -0.066 N 
HETATM   14  H           1     -21.373  -2.700  -6.014  0.00  0.00     0.275 HD
HETATM   15  H           1     -20.591  -2.857  -7.522  0.00  0.00     0.275 HD
HETATM   16  H           1     -22.228  -2.379  -7.455  0.00  0.00     0.275 HD
ENDBRANCH   1  13
BRANCH   1  17
HETATM   17  C           1     -21.011  -5.249  -6.213  0.00  0.00     0.249 C 
HETATM   18  N           1     -21.519  -6.306  -5.507  0.00  0.00    -0.344 N 
HETATM   19  H           1     -22.505  -6.529  -5.570  0.00  0.00     0.163 HD
HETATM   20  O           1     -19.835  -4.983  -6.138  0.00  0.00    -0.271 OA
BRANCH  18  21
HETATM   21  C           1     -20.647  -7.106  -4.669  0.00  0.00     0.189 C 
BRANCH  21  22
HETATM   22  C           1     -21.377  -7.480  -3.386  0.00  0.00     0.014 C 
HETATM   23  C           1     -20.434  -8.251  -2.473  0.00  0.00     0.012 C 
BRANCH  22  24
HETATM   24  C           1     -21.843  -6.212  -2.680  0.00  0.00     0.002 C 
HETATM   25  C           1     -22.297  -6.555  -1.268  0.00  0.00     0.005 C 
ENDBRANCH  22  24
ENDBRANCH  21  22
BRANCH  21  26
HETATM   26  C           1     -20.255  -8.362  -5.408  0.00  0.00     0.197 C 
HETATM   27  O           1     -19.053  -8.587  -5.666  0.00  0.00    -0.646 OA
HETATM   28  O           1     -21.133  -9.179  -5.762  0.00  0.00    -0.646 OA
ENDBRANCH  21  26
ENDBRANCH  18  21
ENDBRANCH   1  17
TORSDOF 8
ENDMDL
MODEL 3
REMARK VINA RESULT:      -7.9      2.625      7.951
REMARK  8 active torsions:
REMARK  status: ('A' for Active; 'I' for Inactive)
REMARK    1  A    between atoms: C_1  and  C_24 
REMARK    2  A    between atoms: C_1  and  C_2 
REMARK    3  A    between atoms: C_1  and  N_17 
REMARK    4  A    between atoms: C_5  and  C_13 
REMARK    5  A    between atoms: C_5  and  C_18 
REMARK    6  A    between atoms: N_6  and  C_13 
REMARK       I    between atoms: C_8  and  N_17 
REMARK    7  A    between atoms: C_8  and  C_13 
REMARK    8  A    between atoms: C_23  and  C_24 
ROOT
HETATM    1  C           1     -21.711  -5.495  -7.270  0.00  0.00     0.278 C 
ENDROOT
BRANCH   1   2
HETATM    2  C           1     -20.849  -4.341  -7.765  0.00  0.00     0.083 C 
BRANCH   2   3
HETATM    3  C           1     -20.992  -4.212  -9.249  0.00  0.00    -0.028 A 
HETATM    4  C           1     -22.183  -3.875  -9.950  0.00  0.00    -0.002 A 
HETATM    5  C           1     -21.871  -3.865 -11.309  0.00  0.00     0.042 A 
HETATM    6  C           1     -23.502  -3.577  -9.554  0.00  0.00     0.014 A 
HETATM    7  N           1     -20.537  -4.185 -11.420  0.00  0.00    -0.365 N 
HETATM    8  C           1     -22.816  -3.570 -12.300  0.00  0.00     0.030 A 
HETATM    9  C           1     -19.996  -4.397 -10.180  0.00  0.00     0.096 A 
HETATM   10  H           1     -20.010  -4.256 -12.325  0.00  0.00     0.165 HD
HETATM   11  C           1     -24.119  -3.277 -11.883  0.00  0.00     0.002 A 
HETATM   12  C           1     -24.460  -3.280 -10.532  0.00  0.00     0.001 A 
ENDBRANCH   2   3
ENDBRANCH   1   2
BRANCH   1  13
HETATM   13  N           1     -22.834  -4.956  -6.433  0.00  0.00    -0.066 N 
HETATM   14  H           1     -22.545  -4.942  -5.429  0.00  0.00     0.275 HD
HETATM   15  H           1     -23.062  -3.984  -6.742  0.00  0.00     0.275 HD
HETATM   16  H           1     -23.675  -5.564  -6.545  0.00  0.00     0.275 HD
ENDBRANCH   1  13
BRANCH   1  17
HETATM   17  C           1     -20.871  -6.432  -6.439  0.00  0.00     0.249 C 
HETATM   18  N           1     -21.429  -7.096  -5.379  0.00  0.00    -0.344 N 
HETATM   19  H           1     -22.406  -6.958  -5.154  0.00  0.00     0.163 HD
HETATM   20  O           1     -19.706  -6.598  -6.709  0.00  0.00    -0.271 OA
BRANCH  18  21
HETATM   21  C           1     -20.621  -7.997  -4.581  0.00  0.00     0.189 C 
BRANCH  21  22
HETATM   22  C           1     -21.041  -7.899  -3.121  0.00  0.00     0.014 C 
HETATM   23  C           1     -19.911  -8.401  -2.233  0.00  0.00     0.012 C 
BRANCH  22  24
HETATM   24  C           1     -21.349  -6.446  -2.778  0.00  0.00     0.002 C 
HETATM   25  C           1     -22.268  -6.394  -1.566  0.00  0.00     0.005 C 
ENDBRANCH  22  24
ENDBRANCH  21  22
BRANCH  21  26
HETATM   26  C           1     -20.819  -9.413  -5.066  0.00  0.00     0.197 C 
HETATM   27  O           1     -21.765 -10.099  -4.623  0.00  0.00    -0.646 OA
HETATM   28  O           1     -20.037  -9.899  -5.912  0.00  0.00    -0.646 OA
ENDBRANCH  21  26
ENDBRANCH  18  21
ENDBRANCH   1  17
TORSDOF 8
ENDMDL
MODEL 4
REMARK VINA RESULT:      -7.8      2.550      7.911
REMARK  8 active torsions:
REMARK  status: ('A' for Active; 'I' for Inactive)
REMARK    1  A    between atoms: C_1  and  C_24 
REMARK    2  A    between atoms: C_1  and  C_2 
REMARK    3  A    between atoms: C_1  and  N_17 
REMARK    4  A    between atoms: C_5  and  C_13 
REMARK    5  A    between atoms: C_5  and  C_18 
REMARK    6  A    between atoms: N_6  and  C_13 
REMARK       I    between atoms: C_8  and  N_17 
REMARK    7  A    between atoms: C_8  and  C_13 
REMARK    8  A    between atoms: C_23  and  C_24 
ROOT
HETATM    1  C           1     -21.168  -4.901  -6.272  0.00  0.00     0.278 C 
ENDROOT
BRANCH   1   2
HETATM    2  C           1     -21.258  -5.427  -7.698  0.00  0.00     0.083 C 
BRANCH   2   3
HETATM    3  C           1     -22.291  -4.651  -8.453  0.00  0.00    -0.028 A 
HETATM    4  C           1     -22.192  -4.218  -9.805  0.00  0.00    -0.002 A 
HETATM    5  C           1     -23.370  -3.533 -10.103  0.00  0.00     0.042 A 
HETATM    6  C           1     -21.209  -4.346 -10.805  0.00  0.00     0.014 A 
HETATM    7  N           1     -24.149  -3.553  -8.969  0.00  0.00    -0.365 N 
HETATM    8  C           1     -23.616  -2.965 -11.360  0.00  0.00     0.030 A 
HETATM    9  C           1     -23.506  -4.227  -7.964  0.00  0.00     0.096 A 
HETATM   10  H           1     -25.099  -3.116  -8.885  0.00  0.00     0.165 HD
HETATM   11  C           1     -22.625  -3.105 -12.337  0.00  0.00     0.002 A 
HETATM   12  C           1     -21.439  -3.783 -12.067  0.00  0.00     0.001 A 
ENDBRANCH   2   3
ENDBRANCH   1   2
BRANCH   1  13
HETATM   13  N           1     -19.728  -4.689  -5.907  0.00  0.00    -0.066 N 
HETATM   14  H           1     -19.650  -4.519  -4.880  0.00  0.00     0.275 HD
HETATM   15  H           1     -19.177  -5.540  -6.162  0.00  0.00     0.275 HD
HETATM   16  H           1     -19.355  -3.863  -6.427  0.00  0.00     0.275 HD
ENDBRANCH   1  13
BRANCH   1  17
HETATM   17  C           1     -21.783  -5.902  -5.325  0.00  0.00     0.249 C 
HETATM   18  N           1     -20.983  -6.653  -4.507  0.00  0.00    -0.344 N 
HETATM   19  H           1     -19.978  -6.536  -4.537  0.00  0.00     0.163 HD
HETATM   20  O           1     -22.982  -6.039  -5.289  0.00  0.00    -0.271 OA
BRANCH  18  21
HETATM   21  C           1     -21.575  -7.615  -3.597  0.00  0.00     0.189 C 
BRANCH  21  22
HETATM   22  C           1     -20.747  -8.893  -3.600  0.00  0.00     0.014 C 
HETATM   23  C           1     -21.558 -10.021  -4.221  0.00  0.00     0.012 C 
BRANCH  22  24
HETATM   24  C           1     -19.477  -8.673  -4.412  0.00  0.00     0.002 C 
HETATM   25  C           1     -18.299  -9.324  -3.700  0.00  0.00     0.005 C 
ENDBRANCH  22  24
ENDBRANCH  21  22
BRANCH  21  26
HETATM   26  C           1     -21.602  -7.036  -2.204  0.00  0.00     0.197 C 
HETATM   27  O           1     -22.232  -5.981  -1.977  0.00  0.00    -0.646 OA
HETATM   28  O           1     -20.994  -7.613  -1.276  0.00  0.00    -0.646 OA
ENDBRANCH  21  26
ENDBRANCH  18  21
ENDBRANCH   1  17
TORSDOF 8
ENDMDL
MODEL 5
REMARK VINA RESULT:      -7.6      3.102      8.123
REMARK  8 active torsions:
REMARK  status: ('A' for Active; 'I' for Inactive)
REMARK    1  A    between atoms: C_1  and  C_24 
REMARK    2  A    between atoms: C_1  and  C_2 
REMARK    3  A    between atoms: C_1  and  N_17 
REMARK    4  A    between atoms: C_5  and  C_13 
REMARK    5  A    between atoms: C_5  and  C_18 
REMARK    6  A    between atoms: N_6  and  C_13 
REMARK       I    between atoms: C_8  and  N_17 
REMARK    7  A    between atoms: C_8  and  C_13 
REMARK    8  A    between atoms: C_23  and  C_24 
ROOT
HETATM    1  C           1     -21.431  -6.305  -5.580  0.00  0.00     0.278 C 
ENDROOT
BRANCH   1   2
HETATM    2  C           1     -20.903  -5.061  -6.283  0.00  0.00     0.083 C 
BRANCH   2   3
HETATM    3  C           1     -21.867  -4.643  -7.349  0.00  0.00    -0.028 A 
HETATM    4  C           1     -21.553  -4.402  -8.715  0.00  0.00    -0.002 A 
HETATM    5  C           1     -22.739  -4.035  -9.351  0.00  0.00     0.042 A 
HETATM    6  C           1     -20.367  -4.462  -9.473  0.00  0.00     0.014 A 
HETATM    7  N           1     -23.732  -4.055  -8.397  0.00  0.00    -0.365 N 
HETATM    8  C           1     -22.800  -3.724 -10.715  0.00  0.00     0.030 A 
HETATM    9  C           1     -23.215  -4.421  -7.183  0.00  0.00     0.096 A 
HETATM   10  H           1     -24.740  -3.824  -8.575  0.00  0.00     0.165 HD
HETATM   11  C           1     -21.610  -3.790 -11.447  0.00  0.00     0.002 A 
HETATM   12  C           1     -20.411  -4.153 -10.838  0.00  0.00     0.001 A 
ENDBRANCH   2   3
ENDBRANCH   1   2
BRANCH   1  13
HETATM   13  N           1     -21.838  -5.953  -4.180  0.00  0.00    -0.066 N 
HETATM   14  H           1     -21.620  -4.948  -3.996  0.00  0.00     0.275 HD
HETATM   15  H           1     -22.864  -6.112  -4.066  0.00  0.00     0.275 HD
HETATM   16  H           1     -21.314  -6.553  -3.504  0.00  0.00     0.275 HD
ENDBRANCH   1  13
BRANCH   1  17
HETATM   17  C           1     -20.351  -7.358  -5.540  0.00  0.00     0.249 C 
HETATM   18  N           1     -20.377  -8.330  -4.576  0.00  0.00    -0.344 N 
HETATM   19  H           1     -21.122  -8.342  -3.891  0.00  0.00     0.163 HD
HETATM   20  O           1     -19.463  -7.343  -6.358  0.00  0.00    -0.271 OA
BRANCH  18  21
HETATM   21  C           1     -19.339  -9.342  -4.538  0.00  0.00     0.189 C 
BRANCH  21  22
HETATM   22  C           1     -18.969  -9.635  -3.090  0.00  0.00     0.014 C 
HETATM   23  C           1     -17.476  -9.411  -2.893  0.00  0.00     0.012 C 
BRANCH  22  24
HETATM   24  C           1     -19.748  -8.705  -2.168  0.00  0.00     0.002 C 
HETATM   25  C           1     -20.599  -9.531  -1.213  0.00  0.00     0.005 C 
ENDBRANCH  22  24
ENDBRANCH  21  22
BRANCH  21  26
HETATM   26  C           1     -19.844 -10.604  -5.192  0.00  0.00     0.197 C 
HETATM   27  O           1     -20.537 -11.413  -4.539  0.00  0.00    -0.646 OA
HETATM   28  O           1     -19.569 -10.840  -6.389  0.00  0.00    -0.646 OA
ENDBRANCH  21  26
ENDBRANCH  18  21
ENDBRANCH   1  17
TORSDOF 8
ENDMDL
MODEL 6
REMARK VINA RESULT:      -7.2      1.957      3.286
REMARK  8 active torsions:
REMARK  status: ('A' for Active; 'I' for Inactive)
REMARK    1  A    between atoms: C_1  and  C_24 
REMARK    2  A    between atoms: C_1  and  C_2 
REMARK    3  A    between atoms: C_1  and  N_17 
REMARK    4  A    between atoms: C_5  and  C_13 
REMARK    5  A    between atoms: C_5  and  C_18 
REMARK    6  A    between atoms: N_6  and  C_13 
REMARK       I    between atoms: C_8  and  N_17 
REMARK    7  A    between atoms: C_8  and  C_13 
REMARK    8  A    between atoms: C_23  and  C_24 
ROOT
HETATM    1  C           1     -21.222  -7.759  -5.498  0.00  0.00     0.278 C 
ENDROOT
BRANCH   1   2
HETATM    2  C           1     -20.313  -7.649  -4.280  0.00  0.00     0.083 C 
BRANCH   2   3
HETATM    3  C           1     -21.108  -7.175  -3.104  0.00  0.00    -0.028 A 
HETATM    4  C           1     -21.363  -7.910  -1.913  0.00  0.00    -0.002 A 
HETATM    5  C           1     -22.140  -7.097  -1.087  0.00  0.00     0.042 A 
HETATM    6  C           1     -21.006  -9.194  -1.459  0.00  0.00     0.014 A 
HETATM    7  N           1     -22.344  -5.913  -1.761  0.00  0.00    -0.365 N 
HETATM    8  C           1     -22.579  -7.505   0.178  0.00  0.00     0.030 A 
HETATM    9  C           1     -21.724  -5.950  -2.982  0.00  0.00     0.096 A 
HETATM   10  H           1     -22.894  -5.100  -1.391  0.00  0.00     0.165 HD
HETATM   11  C           1     -22.211  -8.784   0.608  0.00  0.00     0.002 A 
HETATM   12  C           1     -21.437  -9.618  -0.196  0.00  0.00     0.001 A 
ENDBRANCH   2   3
ENDBRANCH   1   2
BRANCH   1  13
HETATM   13  N           1     -21.231  -9.177  -5.988  0.00  0.00    -0.066 N 
HETATM   14  H           1     -20.333  -9.643  -5.724  0.00  0.00     0.275 HD
HETATM   15  H           1     -22.029  -9.691  -5.550  0.00  0.00     0.275 HD
HETATM   16  H           1     -21.337  -9.186  -7.026  0.00  0.00     0.275 HD
ENDBRANCH   1  13
BRANCH   1  17
HETATM   17  C           1     -20.712  -6.854  -6.591  0.00  0.00     0.249 C 
HETATM   18  N           1     -21.573  -6.011  -7.240  0.00  0.00    -0.344 N 
HETATM   19  H           1     -22.553  -5.995  -6.986  0.00  0.00     0.163 HD
HETATM   20  O           1     -19.543  -6.872  -6.893  0.00  0.00    -0.271 OA
BRANCH  18  21
HETATM   21  C           1     -21.082  -5.140  -8.291  0.00  0.00     0.189 C 
BRANCH  21  22
HETATM   22  C           1     -22.230  -4.766  -9.218  0.00  0.00     0.014 C 
HETATM   23  C           1     -23.405  -4.258  -8.393  0.00  0.00     0.012 C 
BRANCH  22  24
HETATM   24  C           1     -21.773  -3.673 -10.176  0.00  0.00     0.002 C 
HETATM   25  C           1     -21.059  -4.304 -11.364  0.00  0.00     0.005 C 
ENDBRANCH  22  24
ENDBRANCH  21  22
BRANCH  21  26
HETATM   26  C           1     -20.505  -3.889  -7.677  0.00  0.00     0.197 C 
HETATM   27  O           1     -21.165  -3.243  -6.834  0.00  0.00    -0.646 OA
HETATM   28  O           1     -19.365  -3.497  -8.011  0.00  0.00    -0.646 OA
ENDBRANCH  21  26
ENDBRANCH  18  21
ENDBRANCH   1  17
TORSDOF 8
ENDMDL
MODEL 7
REMARK VINA RESULT:      -7.1      2.767      7.942
REMARK  8 active torsions:
REMARK  status: ('A' for Active; 'I' for Inactive)
REMARK    1  A    between atoms: C_1  and  C_24 
REMARK    2  A    between atoms: C_1  and  C_2 
REMARK    3  A    between atoms: C_1  and  N_17 
REMARK    4  A    between atoms: C_5  and  C_13 
REMARK    5  A    between atoms: C_5  and  C_18 
REMARK    6  A    between atoms: N_6  and  C_13 
REMARK       I    between atoms: C_8  and  N_17 
REMARK    7  A    between atoms: C_8  and  C_13 
REMARK    8  A    between atoms: C_23  and  C_24 
ROOT
HETATM    1  C           1     -21.742  -5.674  -6.666  0.00  0.00     0.278 C 
ENDROOT
BRANCH   1   2
HETATM    2  C           1     -21.225  -4.315  -7.121  0.00  0.00     0.083 C 
BRANCH   2   3
HETATM    3  C           1     -21.189  -4.269  -8.616  0.00  0.00    -0.028 A 
HETATM    4  C           1     -22.285  -3.973  -9.473  0.00  0.00    -0.002 A 
HETATM    5  C           1     -21.812  -4.039 -10.784  0.00  0.00     0.042 A 
HETATM    6  C           1     -23.639  -3.653  -9.256  0.00  0.00     0.014 A 
HETATM    7  N           1     -20.476  -4.365 -10.715  0.00  0.00    -0.365 N 
HETATM    8  C           1     -22.629  -3.801 -11.895  0.00  0.00     0.030 A 
HETATM    9  C           1     -20.089  -4.507  -9.409  0.00  0.00     0.096 A 
HETATM   10  H           1     -19.845  -4.487 -11.545  0.00  0.00     0.165 HD
HETATM   11  C           1     -23.971  -3.485 -11.655  0.00  0.00     0.002 A 
HETATM   12  C           1     -24.471  -3.413 -10.357  0.00  0.00     0.001 A 
ENDBRANCH   2   3
ENDBRANCH   1   2
BRANCH   1  13
HETATM   13  N           1     -23.070  -5.501  -5.988  0.00  0.00    -0.066 N 
HETATM   14  H           1     -23.834  -5.553  -6.698  0.00  0.00     0.275 HD
HETATM   15  H           1     -23.200  -6.261  -5.282  0.00  0.00     0.275 HD
HETATM   16  H           1     -23.099  -4.573  -5.511  0.00  0.00     0.275 HD
ENDBRANCH   1  13
BRANCH   1  17
HETATM   17  C           1     -20.761  -6.289  -5.700  0.00  0.00     0.249 C 
HETATM   18  N           1     -20.678  -7.651  -5.582  0.00  0.00    -0.344 N 
HETATM   19  H           1     -21.275  -8.244  -6.144  0.00  0.00     0.163 HD
HETATM   20  O           1     -20.048  -5.581  -5.030  0.00  0.00    -0.271 OA
BRANCH  18  21
HETATM   21  C           1     -19.734  -8.242  -4.653  0.00  0.00     0.189 C 
BRANCH  21  22
HETATM   22  C           1     -20.493  -8.938  -3.532  0.00  0.00     0.014 C 
HETATM   23  C           1     -20.614  -7.997  -2.341  0.00  0.00     0.012 C 
BRANCH  22  24
HETATM   24  C           1     -21.885  -9.319  -4.022  0.00  0.00     0.002 C 
HETATM   25  C           1     -22.179 -10.764  -3.642  0.00  0.00     0.005 C 
ENDBRANCH  22  24
ENDBRANCH  21  22
BRANCH  21  26
HETATM   26  C           1     -18.878  -9.249  -5.381  0.00  0.00     0.197 C 
HETATM   27  O           1     -18.348  -8.947  -6.472  0.00  0.00    -0.646 OA
HETATM   28  O           1     -18.698 -10.386  -4.893  0.00  0.00    -0.646 OA
ENDBRANCH  21  26
ENDBRANCH  18  21
ENDBRANCH   1  17
TORSDOF 8
ENDMDL
MODEL 8
REMARK VINA RESULT:      -7.1      1.988      3.294
REMARK  8 active torsions:
REMARK  status: ('A' for Active; 'I' for Inactive)
REMARK    1  A    between atoms: C_1  and  C_24 
REMARK    2  A    between atoms: C_1  and  C_2 
REMARK    3  A    between atoms: C_1  and  N_17 
REMARK    4  A    between atoms: C_5  and  C_13 
REMARK    5  A    between atoms: C_5  and  C_18 
REMARK    6  A    between atoms: N_6  and  C_13 
REMARK       I    between atoms: C_8  and  N_17 
REMARK    7  A    between atoms: C_8  and  C_13 
REMARK    8  A    between atoms: C_23  and  C_24 
ROOT
HETATM    1  C           1     -20.582  -7.931  -4.929  0.00  0.00     0.278 C 
ENDROOT
BRANCH   1   2
HETATM    2  C           1     -20.076  -8.085  -3.501  0.00  0.00     0.083 C 
BRANCH   2   3
HETATM    3  C           1     -20.955  -9.044  -2.760  0.00  0.00    -0.028 A 
HETATM    4  C           1     -21.755  -8.741  -1.624  0.00  0.00    -0.002 A 
HETATM    5  C           1     -22.408  -9.917  -1.256  0.00  0.00     0.042 A 
HETATM    6  C           1     -21.985  -7.573  -0.871  0.00  0.00     0.014 A 
HETATM    7  N           1     -22.013 -10.894  -2.142  0.00  0.00    -0.365 N 
HETATM    8  C           1     -23.286  -9.985  -0.166  0.00  0.00     0.030 A 
HETATM    9  C           1     -21.134 -10.376  -3.056  0.00  0.00     0.096 A 
HETATM   10  H           1     -22.339 -11.891  -2.121  0.00  0.00     0.165 HD
HETATM   11  C           1     -23.499  -8.813   0.566  0.00  0.00     0.002 A 
HETATM   12  C           1     -22.859  -7.624   0.222  0.00  0.00     0.001 A 
ENDBRANCH   2   3
ENDBRANCH   1   2
BRANCH   1  13
HETATM   13  N           1     -19.567  -8.490  -5.882  0.00  0.00    -0.066 N 
HETATM   14  H           1     -19.372  -9.487  -5.638  0.00  0.00     0.275 HD
HETATM   15  H           1     -19.940  -8.438  -6.857  0.00  0.00     0.275 HD
HETATM   16  H           1     -18.684  -7.936  -5.815  0.00  0.00     0.275 HD
ENDBRANCH   1  13
BRANCH   1  17
HETATM   17  C           1     -20.802  -6.470  -5.231  0.00  0.00     0.249 C 
HETATM   18  N           1     -20.882  -6.042  -6.529  0.00  0.00    -0.344 N 
HETATM   19  H           1     -20.795  -6.708  -7.287  0.00  0.00     0.163 HD
HETATM   20  O           1     -20.908  -5.676  -4.327  0.00  0.00    -0.271 OA
BRANCH  18  21
HETATM   21  C           1     -21.094  -4.637  -6.819  0.00  0.00     0.189 C 
BRANCH  21  22
HETATM   22  C           1     -20.169  -4.206  -7.949  0.00  0.00     0.014 C 
HETATM   23  C           1     -18.733  -4.170  -7.443  0.00  0.00     0.012 C 
BRANCH  22  24
HETATM   24  C           1     -20.276  -5.199  -9.099  0.00  0.00     0.002 C 
HETATM   25  C           1     -20.176  -4.455 -10.424  0.00  0.00     0.005 C 
ENDBRANCH  22  24
ENDBRANCH  21  22
BRANCH  21  26
HETATM   26  C           1     -22.528  -4.421  -7.234  0.00  0.00     0.197 C 
HETATM   27  O           1     -22.787  -3.833  -8.307  0.00  0.00    -0.646 OA
HETATM   28  O           1     -23.459  -4.830  -6.506  0.00  0.00    -0.646 OA
ENDBRANCH  21  26
ENDBRANCH  18  21
ENDBRANCH   1  17
TORSDOF 8
ENDMDL
MODEL 9
REMARK VINA RESULT:      -7.0      2.866      7.980
REMARK  8 active torsions:
REMARK  status: ('A' for Active; 'I' for Inactive)
REMARK    1  A    between atoms: C_1  and  C_24 
REMARK    2  A    between atoms: C_1  and  C_2 
REMARK    3  A    between atoms: C_1  and  N_17 
REMARK    4  A    between atoms: C_5  and  C_13 
REMARK    5  A    between atoms: C_5  and  C_18 
REMARK    6  A    between atoms: N_6  and  C_13 
REMARK       I    between atoms: C_8  and  N_17 
REMARK    7  A    between atoms: C_8  and  C_13 
REMARK    8  A    between atoms: C_23  and  C_24 
ROOT
HETATM    1  C           1     -20.425  -5.984  -5.870  0.00  0.00     0.278 C 
ENDROOT
BRANCH   1   2
HETATM    2  C           1     -20.781  -4.514  -6.051  0.00  0.00     0.083 C 
BRANCH   2   3
HETATM    3  C           1     -21.768  -4.373  -7.167  0.00  0.00    -0.028 A 
HETATM    4  C           1     -21.457  -4.186  -8.542  0.00  0.00    -0.002 A 
HETATM    5  C           1     -22.668  -4.103  -9.230  0.00  0.00     0.042 A 
HETATM    6  C           1     -20.255  -4.078  -9.269  0.00  0.00     0.014 A 
HETATM    7  N           1     -23.672  -4.237  -8.298  0.00  0.00    -0.365 N 
HETATM    8  C           1     -22.738  -3.918 -10.617  0.00  0.00     0.030 A 
HETATM    9  C           1     -23.139  -4.400  -7.047  0.00  0.00     0.096 A 
HETATM   10  H           1     -24.699  -4.217  -8.515  0.00  0.00     0.165 HD
HETATM   11  C           1     -21.532  -3.814 -11.317  0.00  0.00     0.002 A 
HETATM   12  C           1     -20.308  -3.892 -10.656  0.00  0.00     0.001 A 
ENDBRANCH   2   3
ENDBRANCH   1   2
BRANCH   1  13
HETATM   13  N           1     -20.755  -6.735  -7.126  0.00  0.00    -0.066 N 
HETATM   14  H           1     -21.757  -7.032  -7.102  0.00  0.00     0.275 HD
HETATM   15  H           1     -20.597  -6.116  -7.953  0.00  0.00     0.275 HD
HETATM   16  H           1     -20.143  -7.578  -7.199  0.00  0.00     0.275 HD
ENDBRANCH   1  13
BRANCH   1  17
HETATM   17  C           1     -21.214  -6.557  -4.720  0.00  0.00     0.249 C 
HETATM   18  N           1     -20.861  -7.764  -4.180  0.00  0.00    -0.344 N 
HETATM   19  H           1     -20.068  -8.272  -4.552  0.00  0.00     0.163 HD
HETATM   20  O           1     -22.159  -5.950  -4.275  0.00  0.00    -0.271 OA
BRANCH  18  21
HETATM   21  C           1     -21.620  -8.314  -3.074  0.00  0.00     0.189 C 
BRANCH  21  22
HETATM   22  C           1     -21.429  -9.824  -3.027  0.00  0.00     0.014 C 
HETATM   23  C           1     -22.429 -10.432  -2.053  0.00  0.00     0.012 C 
BRANCH  22  24
HETATM   24  C           1     -21.655 -10.407  -4.416  0.00  0.00     0.002 C 
HETATM   25  C           1     -22.438 -11.708  -4.301  0.00  0.00     0.005 C 
ENDBRANCH  22  24
ENDBRANCH  21  22
BRANCH  21  26
HETATM   26  C           1     -21.135  -7.706  -1.780  0.00  0.00     0.197 C 
HETATM   27  O           1     -19.967  -7.919  -1.389  0.00  0.00    -0.646 OA
HETATM   28  O           1     -21.901  -6.990  -1.100  0.00  0.00    -0.646 OA
ENDBRANCH  21  26
ENDBRANCH  18  21
ENDBRANCH   1  17
TORSDOF 8
ENDMDL
