MODEL 1
REMARK VINA RESULT:      -8.7      0.000      0.000
REMARK  9 active torsions:
REMARK  status: ('A' for Active; 'I' for Inactive)
REMARK    1  A    between atoms: N_6  and  C_13 
REMARK    2  A    between atoms: C_8  and  C_17 
REMARK    3  A    between atoms: C_8  and  C_10 
REMARK    4  A    between atoms: C_10  and  C_27 
REMARK    5  A    between atoms: N_11  and  C_27 
REMARK       I    between atoms: N_11  and  C_29 
REMARK    6  A    between atoms: C_12  and  C_13 
REMARK    7  A    between atoms: C_12  and  C_23 
REMARK    8  A    between atoms: C_13  and  C_29 
REMARK    9  A    between atoms: C_25  and  C_27 
ROOT
HETATM    1  C           1     -21.194  -5.828  -7.113  0.00  0.00     0.278 C 
ENDROOT
BRANCH   1   2
HETATM    2  N           1     -19.739  -5.935  -7.463  0.00  0.00    -0.066 N 
HETATM    3  H           1     -19.599  -5.658  -8.461  0.00  0.00     0.275 HD
HETATM    4  H           1     -19.184  -5.300  -6.845  0.00  0.00     0.275 HD
HETATM    5  H           1     -19.421  -6.921  -7.326  0.00  0.00     0.275 HD
ENDBRANCH   1   2
BRANCH   1   6
HETATM    6  C           1     -21.339  -5.551  -5.623  0.00  0.00     0.083 C 
BRANCH   6   7
HETATM    7  C           1     -21.351  -6.846  -4.872  0.00  0.00    -0.028 A 
HETATM    8  C           1     -21.096  -8.091  -5.399  0.00  0.00     0.096 A 
HETATM    9  N           1     -21.208  -9.006  -4.386  0.00  0.00    -0.365 N 
HETATM   10  H           1     -21.066 -10.041  -4.493  0.00  0.00     0.165 HD
HETATM   11  C           1     -21.534  -8.373  -3.208  0.00  0.00     0.042 A 
HETATM   12  C           1     -21.750  -8.899  -1.928  0.00  0.00     0.030 A 
HETATM   13  C           1     -21.631  -7.010  -3.487  0.00  0.00    -0.002 A 
HETATM   14  C           1     -22.073  -8.000  -0.906  0.00  0.00     0.002 A 
HETATM   15  C           1     -22.176  -6.634  -1.157  0.00  0.00     0.001 A 
HETATM   16  C           1     -21.958  -6.125  -2.442  0.00  0.00     0.014 A 
ENDBRANCH   6   7
ENDBRANCH   1   6
BRANCH   1  17
HETATM   17  C           1     -21.818  -4.700  -7.898  0.00  0.00     0.249 C 
HETATM   18  O           1     -21.938  -3.608  -7.395  0.00  0.00    -0.271 OA
HETATM   19  N           1     -22.247  -4.914  -9.180  0.00  0.00    -0.345 N 
HETATM   20  H           1     -22.147  -5.829  -9.602  0.00  0.00     0.163 HD
BRANCH  19  21
HETATM   21  C           1     -22.846  -3.830  -9.934  0.00  0.00     0.186 C 
BRANCH  21  22
HETATM   22  C           1     -22.536  -4.007 -11.414  0.00  0.00     0.046 C 
BRANCH  22  23
HETATM   23  C           1     -22.699  -2.674 -12.132  0.00  0.00     0.116 C 
BRANCH  23  24
HETATM   24  C           1     -23.736  -2.809 -13.220  0.00  0.00     0.172 C 
HETATM   25  O           1     -23.392  -2.749 -14.420  0.00  0.00    -0.648 OA
HETATM   26  O           1     -24.937  -2.981 -12.920  0.00  0.00    -0.648 OA
ENDBRANCH  23  24
ENDBRANCH  22  23
ENDBRANCH  21  22
BRANCH  21  27
HETATM   27  C           1     -24.342  -3.842  -9.730  0.00  0.00     0.196 C 
HETATM   28  O           1     -24.943  -2.781  -9.457  0.00  0.00    -0.646 OA
HETATM   29  O           1     -24.978  -4.912  -9.834  0.00  0.00    -0.646 OA
ENDBRANCH  21  27
ENDBRANCH  19  21
ENDBRANCH   1  17
TORSDOF 9
ENDMDL
MODEL 2
REMARK VINA RESULT:      -8.2      3.712      8.576
REMARK  9 active torsions:
REMARK  status: ('A' for Active; 'I' for Inactive)
REMARK    1  A    between atoms: N_6  and  C_13 
REMARK    2  A    between atoms: C_8  and  C_17 
REMARK    3  A    between atoms: C_8  and  C_10 
REMARK    4  A    between atoms: C_10  and  C_27 
REMARK    5  A    between atoms: N_11  and  C_27 
REMARK       I    between atoms: N_11  and  C_29 
REMARK    6  A    between atoms: C_12  and  C_13 
REMARK    7  A    between atoms: C_12  and  C_23 
REMARK    8  A    between atoms: C_13  and  C_29 
REMARK    9  A    between atoms: C_25  and  C_27 
ROOT
HETATM    1  C           1     -22.104  -5.355  -6.663  0.00  0.00     0.278 C 
ENDROOT
BRANCH   1   2
HETATM    2  N           1     -23.504  -5.115  -6.183  0.00  0.00    -0.066 N 
HETATM    3  H           1     -23.513  -5.073  -5.139  0.00  0.00     0.275 HD
HETATM    4  H           1     -23.854  -4.208  -6.570  0.00  0.00     0.275 HD
HETATM    5  H           1     -24.121  -5.894  -6.507  0.00  0.00     0.275 HD
ENDBRANCH   1   2
BRANCH   1   6
HETATM    6  C           1     -21.501  -4.044  -7.150  0.00  0.00     0.083 C 
BRANCH   6   7
HETATM    7  C           1     -21.334  -4.093  -8.637  0.00  0.00    -0.028 A 
HETATM    8  C           1     -20.170  -4.376  -9.314  0.00  0.00     0.096 A 
HETATM    9  N           1     -20.441  -4.318 -10.655  0.00  0.00    -0.365 N 
HETATM   10  H           1     -19.739  -4.491 -11.417  0.00  0.00     0.165 HD
HETATM   11  C           1     -21.764  -4.000 -10.861  0.00  0.00     0.042 A 
HETATM   12  C           1     -22.480  -3.833 -12.052  0.00  0.00     0.030 A 
HETATM   13  C           1     -22.350  -3.852  -9.603  0.00  0.00    -0.002 A 
HETATM   14  C           1     -23.836  -3.505 -11.950  0.00  0.00     0.002 A 
HETATM   15  C           1     -24.448  -3.352 -10.708  0.00  0.00     0.001 A 
HETATM   16  C           1     -23.716  -3.522  -9.526  0.00  0.00     0.014 A 
ENDBRANCH   6   7
ENDBRANCH   1   6
BRANCH   1  17
HETATM   17  C           1     -21.271  -5.902  -5.530  0.00  0.00     0.249 C 
HETATM   18  O           1     -20.651  -5.149  -4.817  0.00  0.00    -0.271 OA
HETATM   19  N           1     -21.219  -7.252  -5.309  0.00  0.00    -0.345 N 
HETATM   20  H           1     -21.738  -7.884  -5.906  0.00  0.00     0.163 HD
BRANCH  19  21
HETATM   21  C           1     -20.419  -7.778  -4.219  0.00  0.00     0.186 C 
BRANCH  21  22
HETATM   22  C           1     -21.334  -8.356  -3.149  0.00  0.00     0.046 C 
BRANCH  22  23
HETATM   23  C           1     -21.049  -7.678  -1.815  0.00  0.00     0.116 C 
BRANCH  23  24
HETATM   24  C           1     -22.230  -6.826  -1.421  0.00  0.00     0.172 C 
HETATM   25  O           1     -22.544  -5.833  -2.113  0.00  0.00    -0.648 OA
HETATM   26  O           1     -22.894  -7.112  -0.401  0.00  0.00    -0.648 OA
ENDBRANCH  23  24
ENDBRANCH  22  23
ENDBRANCH  21  22
BRANCH  21  27
HETATM   27  C           1     -19.509  -8.864  -4.742  0.00  0.00     0.196 C 
HETATM   28  O           1     -18.489  -9.187  -4.097  0.00  0.00    -0.646 OA
HETATM   29  O           1     -19.777  -9.438  -5.818  0.00  0.00    -0.646 OA
ENDBRANCH  21  27
ENDBRANCH  19  21
ENDBRANCH   1  17
TORSDOF 9
ENDMDL
MODEL 3
REMARK VINA RESULT:      -7.9      1.807      2.895
REMARK  9 active torsions:
REMARK  status: ('A' for Active; 'I' for Inactive)
REMARK    1  A    between atoms: N_6  and  C_13 
REMARK    2  A    between atoms: C_8  and  C_17 
REMARK    3  A    between atoms: C_8  and  C_10 
REMARK    4  A    between atoms: C_10  and  C_27 
REMARK    5  A    between atoms: N_11  and  C_27 
REMARK       I    between atoms: N_11  and  C_29 
REMARK    6  A    between atoms: C_12  and  C_13 
REMARK    7  A    between atoms: C_12  and  C_23 
REMARK    8  A    between atoms: C_13  and  C_29 
REMARK    9  A    between atoms: C_25  and  C_27 
ROOT
HETATM    1  C           1     -20.508  -5.853  -5.041  0.00  0.00     0.278 C 
ENDROOT
BRANCH   1   2
HETATM    2  N           1     -20.106  -4.453  -4.683  0.00  0.00    -0.066 N 
HETATM    3  H           1     -20.380  -3.803  -5.454  0.00  0.00     0.275 HD
HETATM    4  H           1     -20.588  -4.167  -3.800  0.00  0.00     0.275 HD
HETATM    5  H           1     -19.071  -4.413  -4.544  0.00  0.00     0.275 HD
ENDBRANCH   1   2
BRANCH   1   6
HETATM    6  C           1     -21.660  -6.295  -4.149  0.00  0.00     0.083 C 
BRANCH   6   7
HETATM    7  C           1     -21.210  -7.422  -3.272  0.00  0.00    -0.028 A 
HETATM    8  C           1     -20.379  -8.455  -3.641  0.00  0.00     0.096 A 
HETATM    9  N           1     -20.216  -9.271  -2.553  0.00  0.00    -0.365 N 
HETATM   10  H           1     -19.631 -10.142  -2.538  0.00  0.00     0.165 HD
HETATM   11  C           1     -20.931  -8.784  -1.482  0.00  0.00     0.042 A 
HETATM   12  C           1     -21.062  -9.283  -0.180  0.00  0.00     0.030 A 
HETATM   13  C           1     -21.568  -7.619  -1.910  0.00  0.00    -0.002 A 
HETATM   14  C           1     -21.869  -8.564   0.709  0.00  0.00     0.002 A 
HETATM   15  C           1     -22.516  -7.397   0.309  0.00  0.00     0.001 A 
HETATM   16  C           1     -22.375  -6.913  -0.997  0.00  0.00     0.014 A 
ENDBRANCH   6   7
ENDBRANCH   1   6
BRANCH   1  17
HETATM   17  C           1     -20.944  -5.898  -6.485  0.00  0.00     0.249 C 
HETATM   18  O           1     -20.975  -6.951  -7.075  0.00  0.00    -0.271 OA
HETATM   19  N           1     -21.304  -4.743  -7.126  0.00  0.00    -0.345 N 
HETATM   20  H           1     -21.278  -3.859  -6.633  0.00  0.00     0.163 HD
BRANCH  19  21
HETATM   21  C           1     -21.723  -4.786  -8.514  0.00  0.00     0.186 C 
BRANCH  21  22
HETATM   22  C           1     -22.888  -3.828  -8.724  0.00  0.00     0.046 C 
BRANCH  22  23
HETATM   23  C           1     -23.937  -4.489  -9.608  0.00  0.00     0.116 C 
BRANCH  23  24
HETATM   24  C           1     -24.756  -3.426 -10.299  0.00  0.00     0.172 C 
HETATM   25  O           1     -25.854  -3.073  -9.817  0.00  0.00    -0.648 OA
HETATM   26  O           1     -24.338  -2.901 -11.353  0.00  0.00    -0.648 OA
ENDBRANCH  23  24
ENDBRANCH  22  23
ENDBRANCH  21  22
BRANCH  21  27
HETATM   27  C           1     -20.571  -4.376  -9.400  0.00  0.00     0.196 C 
HETATM   28  O           1     -20.632  -4.571 -10.633  0.00  0.00    -0.646 OA
HETATM   29  O           1     -19.558  -3.843  -8.900  0.00  0.00    -0.646 OA
ENDBRANCH  21  27
ENDBRANCH  19  21
ENDBRANCH   1  17
TORSDOF 9
ENDMDL
MODEL 4
REMARK VINA RESULT:      -7.8      1.917      3.286
REMARK  9 active torsions:
REMARK  status: ('A' for Active; 'I' for Inactive)
REMARK    1  A    between atoms: N_6  and  C_13 
REMARK    2  A    between atoms: C_8  and  C_17 
REMARK    3  A    between atoms: C_8  and  C_10 
REMARK    4  A    between atoms: C_10  and  C_27 
REMARK    5  A    between atoms: N_11  and  C_27 
REMARK       I    between atoms: N_11  and  C_29 
REMARK    6  A    between atoms: C_12  and  C_13 
REMARK    7  A    between atoms: C_12  and  C_23 
REMARK    8  A    between atoms: C_13  and  C_29 
REMARK    9  A    between atoms: C_25  and  C_27 
ROOT
HETATM    1  C           1     -21.731  -5.922  -5.191  0.00  0.00     0.278 C 
ENDROOT
BRANCH   1   2
HETATM    2  N           1     -23.205  -6.175  -5.073  0.00  0.00    -0.066 N 
HETATM    3  H           1     -23.380  -6.870  -4.313  0.00  0.00     0.275 HD
HETATM    4  H           1     -23.695  -5.280  -4.844  0.00  0.00     0.275 HD
HETATM    5  H           1     -23.567  -6.550  -5.979  0.00  0.00     0.275 HD
ENDBRANCH   1   2
BRANCH   1   6
HETATM    6  C           1     -20.969  -6.990  -4.420  0.00  0.00     0.083 C 
BRANCH   6   7
HETATM    7  C           1     -21.478  -7.051  -3.013  0.00  0.00    -0.028 A 
HETATM    8  C           1     -21.740  -5.974  -2.198  0.00  0.00     0.096 A 
HETATM    9  N           1     -22.187  -6.456  -0.997  0.00  0.00    -0.365 N 
HETATM   10  H           1     -22.465  -5.862  -0.177  0.00  0.00     0.165 HD
HETATM   11  C           1     -22.219  -7.832  -1.019  0.00  0.00     0.042 A 
HETATM   12  C           1     -22.601  -8.745  -0.028  0.00  0.00     0.030 A 
HETATM   13  C           1     -21.776  -8.232  -2.280  0.00  0.00    -0.002 A 
HETATM   14  C           1     -22.528 -10.106  -0.340  0.00  0.00     0.002 A 
HETATM   15  C           1     -22.089 -10.534  -1.591  0.00  0.00     0.001 A 
HETATM   16  C           1     -21.710  -9.609  -2.570  0.00  0.00     0.014 A 
ENDBRANCH   6   7
ENDBRANCH   1   6
BRANCH   1  17
HETATM   17  C           1     -21.329  -5.966  -6.645  0.00  0.00     0.249 C 
HETATM   18  O           1     -20.554  -6.808  -7.032  0.00  0.00    -0.271 OA
HETATM   19  N           1     -21.843  -5.053  -7.526  0.00  0.00    -0.345 N 
HETATM   20  H           1     -22.493  -4.347  -7.202  0.00  0.00     0.163 HD
BRANCH  19  21
HETATM   21  C           1     -21.457  -5.096  -8.923  0.00  0.00     0.186 C 
BRANCH  21  22
HETATM   22  C           1     -22.679  -4.851  -9.797  0.00  0.00     0.046 C 
BRANCH  22  23
HETATM   23  C           1     -23.670  -3.967  -9.050  0.00  0.00     0.116 C 
BRANCH  23  24
HETATM   24  C           1     -24.589  -3.292 -10.038  0.00  0.00     0.172 C 
HETATM   25  O           1     -25.788  -3.098  -9.743  0.00  0.00    -0.648 OA
HETATM   26  O           1     -24.151  -2.929 -11.151  0.00  0.00    -0.648 OA
ENDBRANCH  23  24
ENDBRANCH  22  23
ENDBRANCH  21  22
BRANCH  21  27
HETATM   27  C           1     -20.425  -4.027  -9.192  0.00  0.00     0.196 C 
HETATM   28  O           1     -19.663  -3.651  -8.275  0.00  0.00    -0.646 OA
HETATM   29  O           1     -20.333  -3.520 -10.329  0.00  0.00    -0.646 OA
ENDBRANCH  21  27
ENDBRANCH  19  21
ENDBRANCH   1  17
TORSDOF 9
ENDMDL
MODEL 5
REMARK VINA RESULT:      -7.8      3.462      8.367
REMARK  9 active torsions:
REMARK  status: ('A' for Active; 'I' for Inactive)
REMARK    1  A    between atoms: N_6  and  C_13 
REMARK    2  A    between atoms: C_8  and  C_17 
REMARK    3  A    between atoms: C_8  and  C_10 
REMARK    4  A    between atoms: C_10  and  C_27 
REMARK    5  A    between atoms: N_11  and  C_27 
REMARK       I    between atoms: N_11  and  C_29 
REMARK    6  A    between atoms: C_12  and  C_13 
REMARK    7  A    between atoms: C_12  and  C_23 
REMARK    8  A    between atoms: C_13  and  C_29 
REMARK    9  A    between atoms: C_25  and  C_27 
ROOT
HETATM    1  C           1     -21.024  -4.998  -6.233  0.00  0.00     0.278 C 
ENDROOT
BRANCH   1   2
HETATM    2  N           1     -19.644  -4.552  -5.853  0.00  0.00    -0.066 N 
HETATM    3  H           1     -19.637  -3.515  -5.718  0.00  0.00     0.275 HD
HETATM    4  H           1     -19.359  -5.019  -4.962  0.00  0.00     0.275 HD
HETATM    5  H           1     -18.974  -4.809  -6.612  0.00  0.00     0.275 HD
ENDBRANCH   1   2
BRANCH   1   6
HETATM    6  C           1     -21.051  -5.363  -7.711  0.00  0.00     0.083 C 
BRANCH   6   7
HETATM    7  C           1     -22.184  -4.652  -8.381  0.00  0.00    -0.028 A 
HETATM    8  C           1     -23.375  -4.288  -7.794  0.00  0.00     0.096 A 
HETATM    9  N           1     -24.137  -3.661  -8.745  0.00  0.00    -0.365 N 
HETATM   10  H           1     -25.099  -3.274  -8.583  0.00  0.00     0.165 HD
HETATM   11  C           1     -23.459  -3.614  -9.942  0.00  0.00     0.042 A 
HETATM   12  C           1     -23.841  -3.077 -11.177  0.00  0.00     0.030 A 
HETATM   13  C           1     -22.225  -4.232  -9.740  0.00  0.00    -0.002 A 
HETATM   14  C           1     -22.931  -3.176 -12.235  0.00  0.00     0.002 A 
HETATM   15  C           1     -21.692  -3.788 -12.061  0.00  0.00     0.001 A 
HETATM   16  C           1     -21.325  -4.321 -10.819  0.00  0.00     0.014 A 
ENDBRANCH   6   7
ENDBRANCH   1   6
BRANCH   1  17
HETATM   17  C           1     -21.407  -6.204  -5.409  0.00  0.00     0.249 C 
HETATM   18  O           1     -22.022  -7.112  -5.916  0.00  0.00    -0.271 OA
HETATM   19  N           1     -21.057  -6.268  -4.087  0.00  0.00    -0.345 N 
HETATM   20  H           1     -20.541  -5.508  -3.662  0.00  0.00     0.163 HD
BRANCH  19  21
HETATM   21  C           1     -21.424  -7.426  -3.296  0.00  0.00     0.186 C 
BRANCH  21  22
HETATM   22  C           1     -20.213  -8.333  -3.128  0.00  0.00     0.046 C 
BRANCH  22  23
HETATM   23  C           1     -20.503  -9.691  -3.753  0.00  0.00     0.116 C 
BRANCH  23  24
HETATM   24  C           1     -19.944  -9.732  -5.154  0.00  0.00     0.172 C 
HETATM   25  O           1     -19.097  -8.886  -5.513  0.00  0.00    -0.648 OA
HETATM   26  O           1     -20.329 -10.610  -5.955  0.00  0.00    -0.648 OA
ENDBRANCH  23  24
ENDBRANCH  22  23
ENDBRANCH  21  22
BRANCH  21  27
HETATM   27  C           1     -21.905  -6.975  -1.938  0.00  0.00     0.196 C 
HETATM   28  O           1     -21.742  -7.712  -0.942  0.00  0.00    -0.646 OA
HETATM   29  O           1     -22.466  -5.866  -1.811  0.00  0.00    -0.646 OA
ENDBRANCH  21  27
ENDBRANCH  19  21
ENDBRANCH   1  17
TORSDOF 9
ENDMDL
MODEL 6
REMARK VINA RESULT:      -7.6      4.070      8.740
REMARK  9 active torsions:
REMARK  status: ('A' for Active; 'I' for Inactive)
REMARK    1  A    between atoms: N_6  and  C_13 
REMARK    2  A    between atoms: C_8  and  C_17 
REMARK    3  A    between atoms: C_8  and  C_10 
REMARK    4  A    between atoms: C_10  and  C_27 
REMARK    5  A    between atoms: N_11  and  C_27 
REMARK       I    between atoms: N_11  and  C_29 
REMARK    6  A    between atoms: C_12  and  C_13 
REMARK    7  A    between atoms: C_12  and  C_23 
REMARK    8  A    between atoms: C_13  and  C_29 
REMARK    9  A    between atoms: C_25  and  C_27 
ROOT
HETATM    1  C           1     -21.754  -6.427  -5.726  0.00  0.00     0.278 C 
ENDROOT
BRANCH   1   2
HETATM    2  N           1     -22.190  -5.955  -4.370  0.00  0.00    -0.066 N 
HETATM    3  H           1     -22.599  -4.997  -4.449  0.00  0.00     0.275 HD
HETATM    4  H           1     -22.909  -6.610  -3.988  0.00  0.00     0.275 HD
HETATM    5  H           1     -21.365  -5.930  -3.729  0.00  0.00     0.275 HD
ENDBRANCH   1   2
BRANCH   1   6
HETATM    6  C           1     -21.037  -5.296  -6.451  0.00  0.00     0.083 C 
BRANCH   6   7
HETATM    7  C           1     -21.942  -4.717  -7.493  0.00  0.00    -0.028 A 
HETATM    8  C           1     -23.271  -4.400  -7.327  0.00  0.00     0.096 A 
HETATM    9  N           1     -23.733  -3.898  -8.515  0.00  0.00    -0.365 N 
HETATM   10  H           1     -24.716  -3.571  -8.687  0.00  0.00     0.165 HD
HETATM   11  C           1     -22.724  -3.886  -9.451  0.00  0.00     0.042 A 
HETATM   12  C           1     -22.734  -3.465 -10.787  0.00  0.00     0.030 A 
HETATM   13  C           1     -21.584  -4.398  -8.832  0.00  0.00    -0.002 A 
HETATM   14  C           1     -21.539  -3.573 -11.507  0.00  0.00     0.002 A 
HETATM   15  C           1     -20.386  -4.080 -10.914  0.00  0.00     0.001 A 
HETATM   16  C           1     -20.393  -4.497  -9.577  0.00  0.00     0.014 A 
ENDBRANCH   6   7
ENDBRANCH   1   6
BRANCH   1  17
HETATM   17  C           1     -20.818  -7.601  -5.573  0.00  0.00     0.249 C 
HETATM   18  O           1     -19.720  -7.568  -6.075  0.00  0.00    -0.271 OA
HETATM   19  N           1     -21.214  -8.703  -4.863  0.00  0.00    -0.345 N 
HETATM   20  H           1     -22.134  -8.732  -4.441  0.00  0.00     0.163 HD
BRANCH  19  21
HETATM   21  C           1     -20.314  -9.831  -4.716  0.00  0.00     0.186 C 
BRANCH  21  22
HETATM   22  C           1     -20.301 -10.285  -3.263  0.00  0.00     0.046 C 
BRANCH  22  23
HETATM   23  C           1     -19.658  -9.209  -2.398  0.00  0.00     0.116 C 
BRANCH  23  24
HETATM   24  C           1     -20.710  -8.559  -1.534  0.00  0.00     0.172 C 
HETATM   25  O           1     -20.817  -8.884  -0.331  0.00  0.00    -0.648 OA
HETATM   26  O           1     -21.474  -7.699  -2.020  0.00  0.00    -0.648 OA
ENDBRANCH  23  24
ENDBRANCH  22  23
ENDBRANCH  21  22
BRANCH  21  27
HETATM   27  C           1     -20.784 -10.967  -5.592  0.00  0.00     0.196 C 
HETATM   28  O           1     -21.763 -11.661  -5.242  0.00  0.00    -0.646 OA
HETATM   29  O           1     -20.195 -11.212  -6.666  0.00  0.00    -0.646 OA
ENDBRANCH  21  27
ENDBRANCH  19  21
ENDBRANCH   1  17
TORSDOF 9
ENDMDL
MODEL 7
REMARK VINA RESULT:      -7.6      1.189      2.209
REMARK  9 active torsions:
REMARK  status: ('A' for Active; 'I' for Inactive)
REMARK    1  A    between atoms: N_6  and  C_13 
REMARK    2  A    between atoms: C_8  and  C_17 
REMARK    3  A    between atoms: C_8  and  C_10 
REMARK    4  A    between atoms: C_10  and  C_27 
REMARK    5  A    between atoms: N_11  and  C_27 
REMARK       I    between atoms: N_11  and  C_29 
REMARK    6  A    between atoms: C_12  and  C_13 
REMARK    7  A    between atoms: C_12  and  C_23 
REMARK    8  A    between atoms: C_13  and  C_29 
REMARK    9  A    between atoms: C_25  and  C_27 
ROOT
HETATM    1  C           1     -21.172  -5.519  -6.649  0.00  0.00     0.278 C 
ENDROOT
BRANCH   1   2
HETATM    2  N           1     -20.014  -4.980  -5.864  0.00  0.00    -0.066 N 
HETATM    3  H           1     -20.157  -3.960  -5.686  0.00  0.00     0.275 HD
HETATM    4  H           1     -19.945  -5.486  -4.951  0.00  0.00     0.275 HD
HETATM    5  H           1     -19.131  -5.118  -6.407  0.00  0.00     0.275 HD
ENDBRANCH   1   2
BRANCH   1   6
HETATM    6  C           1     -22.275  -5.953  -5.694  0.00  0.00     0.083 C 
BRANCH   6   7
HETATM    7  C           1     -21.670  -6.639  -4.510  0.00  0.00    -0.028 A 
HETATM    8  C           1     -21.534  -6.110  -3.247  0.00  0.00     0.096 A 
HETATM    9  N           1     -20.933  -7.055  -2.458  0.00  0.00    -0.365 N 
HETATM   10  H           1     -20.702  -6.930  -1.442  0.00  0.00     0.165 HD
HETATM   11  C           1     -20.674  -8.191  -3.191  0.00  0.00     0.042 A 
HETATM   12  C           1     -20.077  -9.399  -2.808  0.00  0.00     0.030 A 
HETATM   13  C           1     -21.129  -7.955  -4.488  0.00  0.00    -0.002 A 
HETATM   14  C           1     -19.944 -10.392  -3.784  0.00  0.00     0.002 A 
HETATM   15  C           1     -20.389 -10.183  -5.087  0.00  0.00     0.001 A 
HETATM   16  C           1     -20.983  -8.970  -5.454  0.00  0.00     0.014 A 
ENDBRANCH   6   7
ENDBRANCH   1   6
BRANCH   1  17
HETATM   17  C           1     -21.697  -4.446  -7.571  0.00  0.00     0.249 C 
HETATM   18  O           1     -21.597  -3.282  -7.264  0.00  0.00    -0.271 OA
HETATM   19  N           1     -22.287  -4.792  -8.758  0.00  0.00    -0.345 N 
HETATM   20  H           1     -22.371  -5.767  -9.017  0.00  0.00     0.163 HD
BRANCH  19  21
HETATM   21  C           1     -22.791  -3.761  -9.644  0.00  0.00     0.186 C 
BRANCH  21  22
HETATM   22  C           1     -22.258  -3.993 -11.051  0.00  0.00     0.046 C 
BRANCH  22  23
HETATM   23  C           1     -22.380  -2.709 -11.860  0.00  0.00     0.116 C 
BRANCH  23  24
HETATM   24  C           1     -23.202  -2.968 -13.098  0.00  0.00     0.172 C 
HETATM   25  O           1     -24.424  -3.214 -12.996  0.00  0.00    -0.648 OA
HETATM   26  O           1     -22.662  -2.939 -14.225  0.00  0.00    -0.648 OA
ENDBRANCH  23  24
ENDBRANCH  22  23
ENDBRANCH  21  22
BRANCH  21  27
HETATM   27  C           1     -24.300  -3.810  -9.665  0.00  0.00     0.196 C 
HETATM   28  O           1     -24.886  -4.895  -9.869  0.00  0.00    -0.646 OA
HETATM   29  O           1     -24.962  -2.767  -9.478  0.00  0.00    -0.646 OA
ENDBRANCH  21  27
ENDBRANCH  19  21
ENDBRANCH   1  17
TORSDOF 9
ENDMDL
MODEL 8
REMARK VINA RESULT:      -7.3      4.156      8.587
REMARK  9 active torsions:
REMARK  status: ('A' for Active; 'I' for Inactive)
REMARK    1  A    between atoms: N_6  and  C_13 
REMARK    2  A    between atoms: C_8  and  C_17 
REMARK    3  A    between atoms: C_8  and  C_10 
REMARK    4  A    between atoms: C_10  and  C_27 
REMARK    5  A    between atoms: N_11  and  C_27 
REMARK       I    between atoms: N_11  and  C_29 
REMARK    6  A    between atoms: C_12  and  C_13 
REMARK    7  A    between atoms: C_12  and  C_23 
REMARK    8  A    between atoms: C_13  and  C_29 
REMARK    9  A    between atoms: C_25  and  C_27 
ROOT
HETATM    1  C           1     -21.509  -6.325  -5.224  0.00  0.00     0.278 C 
ENDROOT
BRANCH   1   2
HETATM    2  N           1     -21.291  -5.620  -3.918  0.00  0.00    -0.066 N 
HETATM    3  H           1     -20.743  -6.236  -3.276  0.00  0.00     0.275 HD
HETATM    4  H           1     -20.762  -4.733  -4.085  0.00  0.00     0.275 HD
HETATM    5  H           1     -22.216  -5.398  -3.484  0.00  0.00     0.275 HD
ENDBRANCH   1   2
BRANCH   1   6
HETATM    6  C           1     -20.743  -5.604  -6.325  0.00  0.00     0.083 C 
BRANCH   6   7
HETATM    7  C           1     -21.710  -4.964  -7.271  0.00  0.00    -0.028 A 
HETATM    8  C           1     -23.016  -4.631  -6.994  0.00  0.00     0.096 A 
HETATM    9  N           1     -23.554  -4.070  -8.122  0.00  0.00    -0.365 N 
HETATM   10  H           1     -24.540  -3.719  -8.207  0.00  0.00     0.165 HD
HETATM   11  C           1     -22.616  -4.035  -9.130  0.00  0.00     0.042 A 
HETATM   12  C           1     -22.716  -3.557 -10.442  0.00  0.00     0.030 A 
HETATM   13  C           1     -21.445  -4.593  -8.618  0.00  0.00    -0.002 A 
HETATM   14  C           1     -21.580  -3.654 -11.253  0.00  0.00     0.002 A 
HETATM   15  C           1     -20.396  -4.206 -10.768  0.00  0.00     0.001 A 
HETATM   16  C           1     -20.314  -4.680  -9.454  0.00  0.00     0.014 A 
ENDBRANCH   6   7
ENDBRANCH   1   6
BRANCH   1  17
HETATM   17  C           1     -21.017  -7.747  -5.116  0.00  0.00     0.249 C 
HETATM   18  O           1     -21.183  -8.516  -6.033  0.00  0.00    -0.271 OA
HETATM   19  N           1     -20.380  -8.166  -3.979  0.00  0.00    -0.345 N 
HETATM   20  H           1     -20.239  -7.522  -3.210  0.00  0.00     0.163 HD
BRANCH  19  21
HETATM   21  C           1     -19.906  -9.532  -3.875  0.00  0.00     0.186 C 
BRANCH  21  22
HETATM   22  C           1     -18.395  -9.534  -3.688  0.00  0.00     0.046 C 
BRANCH  22  23
HETATM   23  C           1     -17.762 -10.515  -4.667  0.00  0.00     0.116 C 
BRANCH  23  24
HETATM   24  C           1     -17.200  -9.760  -5.846  0.00  0.00     0.172 C 
HETATM   25  O           1     -17.971  -9.166  -6.632  0.00  0.00    -0.648 OA
HETATM   26  O           1     -15.966  -9.729  -6.038  0.00  0.00    -0.648 OA
ENDBRANCH  23  24
ENDBRANCH  22  23
ENDBRANCH  21  22
BRANCH  21  27
HETATM   27  C           1     -20.559 -10.202  -2.690  0.00  0.00     0.196 C 
HETATM   28  O           1     -21.295 -11.197  -2.863  0.00  0.00    -0.646 OA
HETATM   29  O           1     -20.363  -9.762  -1.538  0.00  0.00    -0.646 OA
ENDBRANCH  21  27
ENDBRANCH  19  21
ENDBRANCH   1  17
TORSDOF 9
ENDMDL
MODEL 9
REMARK VINA RESULT:      -7.2      3.567      8.172
REMARK  9 active torsions:
REMARK  status: ('A' for Active; 'I' for Inactive)
REMARK    1  A    between atoms: N_6  and  C_13 
REMARK    2  A    between atoms: C_8  and  C_17 
REMARK    3  A    between atoms: C_8  and  C_10 
REMARK    4  A    between atoms: C_10  and  C_27 
REMARK    5  A    between atoms: N_11  and  C_27 
REMARK       I    between atoms: N_11  and  C_29 
REMARK    6  A    between atoms: C_12  and  C_13 
REMARK    7  A    between atoms: C_12  and  C_23 
REMARK    8  A    between atoms: C_13  and  C_29 
REMARK    9  A    between atoms: C_25  and  C_27 
ROOT
HETATM    1  C           1     -20.533  -5.746  -5.838  0.00  0.00     0.278 C 
ENDROOT
BRANCH   1   2
HETATM    2  N           1     -20.376  -6.617  -7.049  0.00  0.00    -0.066 N 
HETATM    3  H           1     -21.190  -7.270  -7.117  0.00  0.00     0.275 HD
HETATM    4  H           1     -20.338  -6.019  -7.906  0.00  0.00     0.275 HD
HETATM    5  H           1     -19.492  -7.168  -6.969  0.00  0.00     0.275 HD
ENDBRANCH   1   2
BRANCH   1   6
HETATM    6  C           1     -21.149  -4.415  -6.246  0.00  0.00     0.083 C 
BRANCH   6   7
HETATM    7  C           1     -21.016  -4.234  -7.726  0.00  0.00    -0.028 A 
HETATM    8  C           1     -19.837  -4.113  -8.425  0.00  0.00     0.096 A 
HETATM    9  N           1     -20.149  -3.965  -9.751  0.00  0.00    -0.365 N 
HETATM   10  H           1     -19.448  -3.850 -10.524  0.00  0.00     0.165 HD
HETATM   11  C           1     -21.515  -3.986  -9.923  0.00  0.00     0.042 A 
HETATM   12  C           1     -22.282  -3.870 -11.089  0.00  0.00     0.030 A 
HETATM   13  C           1     -22.085  -4.155  -8.661  0.00  0.00    -0.002 A 
HETATM   14  C           1     -23.673  -3.929 -10.956  0.00  0.00     0.002 A 
HETATM   15  C           1     -24.269  -4.097  -9.708  0.00  0.00     0.001 A 
HETATM   16  C           1     -23.487  -4.211  -8.552  0.00  0.00     0.014 A 
ENDBRANCH   6   7
ENDBRANCH   1   6
BRANCH   1  17
HETATM   17  C           1     -21.431  -6.432  -4.838  0.00  0.00     0.249 C 
HETATM   18  O           1     -22.614  -6.192  -4.824  0.00  0.00    -0.271 OA
HETATM   19  N           1     -20.903  -7.328  -3.947  0.00  0.00    -0.345 N 
HETATM   20  H           1     -19.911  -7.530  -3.958  0.00  0.00     0.163 HD
BRANCH  19  21
HETATM   21  C           1     -21.767  -7.987  -2.986  0.00  0.00     0.186 C 
BRANCH  21  22
HETATM   22  C           1     -21.375  -9.454  -2.873  0.00  0.00     0.046 C 
BRANCH  22  23
HETATM   23  C           1     -22.065 -10.252  -3.972  0.00  0.00     0.116 C 
BRANCH  23  24
HETATM   24  C           1     -21.093 -10.505  -5.098  0.00  0.00     0.172 C 
HETATM   25  O           1     -20.949  -9.653  -6.002  0.00  0.00    -0.648 OA
HETATM   26  O           1     -20.432 -11.565  -5.127  0.00  0.00    -0.648 OA
ENDBRANCH  23  24
ENDBRANCH  22  23
ENDBRANCH  21  22
BRANCH  21  27
HETATM   27  C           1     -21.618  -7.323  -1.639  0.00  0.00     0.196 C 
HETATM   28  O           1     -22.242  -6.268  -1.391  0.00  0.00    -0.646 OA
HETATM   29  O           1     -20.873  -7.827  -0.773  0.00  0.00    -0.646 OA
ENDBRANCH  21  27
ENDBRANCH  19  21
ENDBRANCH   1  17
TORSDOF 9
ENDMDL
