MODEL 1
REMARK VINA RESULT:      -7.6      0.000      0.000
REMARK  12 active torsions:
REMARK  status: ('A' for Active; 'I' for Inactive)
REMARK    1  A    between atoms: C_1  and  O_22 
REMARK    2  A    between atoms: C_4  and  C_5 
REMARK    3  A    between atoms: C_5  and  C_26 
REMARK    4  A    between atoms: N_8  and  C_13 
REMARK    5  A    between atoms: Se_10  and  C_11 
REMARK    6  A    between atoms: C_11  and  C_12 
REMARK    7  A    between atoms: C_12  and  C_13 
REMARK    8  A    between atoms: C_13  and  C_14 
REMARK       I    between atoms: C_14  and  N_15 
REMARK    9  A    between atoms: N_15  and  C_26 
REMARK   10  A    between atoms: O_19  and  P_21 
REMARK   11  A    between atoms: P_21  and  O_22 
REMARK   12  A    between atoms: C_24  and  C_26 
ROOT
HETATM    1  C           1     -21.563  -5.534  -6.646  0.00  0.00     0.189 C 
ENDROOT
BRANCH   1   2
HETATM    2  C           1     -21.919  -4.134  -7.129  0.00  0.00     0.074 C 
BRANCH   2   3
HETATM    3  C           1     -22.384  -4.201  -8.551  0.00  0.00    -0.056 A 
HETATM    4  C           1     -21.458  -4.353  -9.583  0.00  0.00     0.010 A 
HETATM    5  C           1     -21.892  -4.416 -10.907  0.00  0.00     0.038 A 
HETATM    6  C           1     -23.253  -4.328 -11.198  0.00  0.00     0.081 A 
HETATM    7  C           1     -24.180  -4.177 -10.168  0.00  0.00     0.038 A 
HETATM    8  C           1     -23.745  -4.114  -8.844  0.00  0.00     0.010 A 
BRANCH   6   9
HETATM    9  O           1     -23.675  -4.389 -12.485  0.00  0.00    -0.247 OA
BRANCH   9  10
HETATM   10  P           1     -23.995  -3.000 -13.244  0.00  0.00     0.411 P 
HETATM   11  O           1     -23.724  -3.155 -14.691  0.00  0.00    -0.624 OA
HETATM   12  O           1     -25.418  -2.645 -13.045  0.00  0.00    -0.624 OA
BRANCH  10  13
HETATM   13  O           1     -23.060  -1.829 -12.642  0.00  0.00    -0.300 OA
HETATM   14  H           1     -22.376  -1.712 -13.280  0.00  0.00     0.223 HD
ENDBRANCH  10  13
ENDBRANCH   9  10
ENDBRANCH   6   9
ENDBRANCH   2   3
ENDBRANCH   1   2
BRANCH   1  15
HETATM   15  N           1     -22.234  -5.795  -5.388  0.00  0.00    -0.344 N 
HETATM   16  C           1     -21.594  -6.498  -4.403  0.00  0.00     0.249 C 
HETATM   17  O           1     -20.928  -5.917  -3.580  0.00  0.00    -0.271 OA
HETATM   18  H           1     -23.176  -5.456  -5.237  0.00  0.00     0.163 HD
BRANCH  16  19
HETATM   19  C           1     -21.720  -8.001  -4.346  0.00  0.00     0.274 C 
BRANCH  19  20
HETATM   20  N           1     -21.185  -8.596  -5.615  0.00  0.00    -0.067 N 
HETATM   21  H           1     -20.648  -9.465  -5.395  0.00  0.00     0.275 HD
HETATM   22  H           1     -21.981  -8.831  -6.252  0.00  0.00     0.275 HD
HETATM   23  H           1     -20.555  -7.906  -6.084  0.00  0.00     0.275 HD
ENDBRANCH  19  20
BRANCH  19  24
HETATM   24  C           1     -20.924  -8.534  -3.162  0.00  0.00     0.042 C 
BRANCH  24  25
HETATM   25  C           1     -21.776  -9.526  -2.382  0.00  0.00     0.003 C 
BRANCH  25  26
HETATM   26 Se           1     -21.687  -9.104  -0.481  0.00  0.00     0.000 Se
HETATM   27  C           1     -22.362  -7.287  -0.686  0.00  0.00     0.000 C 
ENDBRANCH  25  26
ENDBRANCH  24  25
ENDBRANCH  19  24
ENDBRANCH  16  19
ENDBRANCH   1  15
BRANCH   1  28
HETATM   28  C           1     -20.069  -5.633  -6.448  0.00  0.00     0.197 C 
HETATM   29  O           1     -19.467  -6.685  -6.755  0.00  0.00    -0.646 OA
HETATM   30  O           1     -19.436  -4.664  -5.978  0.00  0.00    -0.646 OA
ENDBRANCH   1  28
TORSDOF 12
ENDMDL
MODEL 2
REMARK VINA RESULT:      -7.5      1.777      2.585
REMARK  12 active torsions:
REMARK  status: ('A' for Active; 'I' for Inactive)
REMARK    1  A    between atoms: C_1  and  O_22 
REMARK    2  A    between atoms: C_4  and  C_5 
REMARK    3  A    between atoms: C_5  and  C_26 
REMARK    4  A    between atoms: N_8  and  C_13 
REMARK    5  A    between atoms: Se_10  and  C_11 
REMARK    6  A    between atoms: C_11  and  C_12 
REMARK    7  A    between atoms: C_12  and  C_13 
REMARK    8  A    between atoms: C_13  and  C_14 
REMARK       I    between atoms: C_14  and  N_15 
REMARK    9  A    between atoms: N_15  and  C_26 
REMARK   10  A    between atoms: O_19  and  P_21 
REMARK   11  A    between atoms: P_21  and  O_22 
REMARK   12  A    between atoms: C_24  and  C_26 
ROOT
HETATM    1  C           1     -21.644  -6.738  -5.432  0.00  0.00     0.189 C 
ENDROOT
BRANCH   1   2
HETATM    2  C           1     -20.670  -5.623  -5.790  0.00  0.00     0.074 C 
BRANCH   2   3
HETATM    3  C           1     -21.063  -5.019  -7.102  0.00  0.00    -0.056 A 
HETATM    4  C           1     -20.199  -5.096  -8.194  0.00  0.00     0.010 A 
HETATM    5  C           1     -20.566  -4.535  -9.417  0.00  0.00     0.038 A 
HETATM    6  C           1     -21.799  -3.896  -9.547  0.00  0.00     0.081 A 
HETATM    7  C           1     -22.665  -3.819  -8.457  0.00  0.00     0.038 A 
HETATM    8  C           1     -22.296  -4.381  -7.234  0.00  0.00     0.010 A 
BRANCH   6   9
HETATM    9  O           1     -22.156  -3.350 -10.736  0.00  0.00    -0.247 OA
BRANCH   9  10
HETATM   10  P           1     -23.494  -3.902 -11.451  0.00  0.00     0.411 P 
HETATM   11  O           1     -23.761  -5.285 -10.998  0.00  0.00    -0.624 OA
HETATM   12  O           1     -24.640  -3.037 -11.092  0.00  0.00    -0.624 OA
BRANCH  10  13
HETATM   13  O           1     -23.292  -3.888 -13.053  0.00  0.00    -0.300 OA
HETATM   14  H           1     -23.984  -4.432 -13.391  0.00  0.00     0.223 HD
ENDBRANCH  10  13
ENDBRANCH   9  10
ENDBRANCH   6   9
ENDBRANCH   2   3
ENDBRANCH   1   2
BRANCH   1  15
HETATM   15  N           1     -22.383  -6.367  -4.240  0.00  0.00    -0.344 N 
HETATM   16  C           1     -21.742  -6.297  -3.032  0.00  0.00     0.249 C 
HETATM   17  O           1     -21.237  -5.260  -2.675  0.00  0.00    -0.271 OA
HETATM   18  H           1     -23.371  -6.159  -4.301  0.00  0.00     0.163 HD
BRANCH  16  19
HETATM   19  C           1     -21.667  -7.517  -2.147  0.00  0.00     0.274 C 
BRANCH  19  20
HETATM   20  N           1     -20.230  -7.848  -1.873  0.00  0.00    -0.067 N 
HETATM   21  H           1     -19.662  -7.682  -2.735  0.00  0.00     0.275 HD
HETATM   22  H           1     -19.874  -7.239  -1.100  0.00  0.00     0.275 HD
HETATM   23  H           1     -20.151  -8.851  -1.592  0.00  0.00     0.275 HD
ENDBRANCH  19  20
BRANCH  19  24
HETATM   24  C           1     -22.382  -7.236  -0.832  0.00  0.00     0.042 C 
BRANCH  24  25
HETATM   25  C           1     -22.063  -8.342   0.166  0.00  0.00     0.003 C 
BRANCH  25  26
HETATM   26 Se           1     -23.076  -9.943  -0.293  0.00  0.00     0.000 Se
HETATM   27  C           1     -21.503 -11.070  -0.525  0.00  0.00     0.000 C 
ENDBRANCH  25  26
ENDBRANCH  24  25
ENDBRANCH  19  24
ENDBRANCH  16  19
ENDBRANCH   1  15
BRANCH   1  28
HETATM   28  C           1     -20.878  -8.012  -5.172  0.00  0.00     0.197 C 
HETATM   29  O           1     -21.476  -9.109  -5.157  0.00  0.00    -0.646 OA
HETATM   30  O           1     -19.644  -7.969  -4.972  0.00  0.00    -0.646 OA
ENDBRANCH   1  28
TORSDOF 12
ENDMDL
MODEL 3
REMARK VINA RESULT:      -7.4      1.353      2.186
REMARK  12 active torsions:
REMARK  status: ('A' for Active; 'I' for Inactive)
REMARK    1  A    between atoms: C_1  and  O_22 
REMARK    2  A    between atoms: C_4  and  C_5 
REMARK    3  A    between atoms: C_5  and  C_26 
REMARK    4  A    between atoms: N_8  and  C_13 
REMARK    5  A    between atoms: Se_10  and  C_11 
REMARK    6  A    between atoms: C_11  and  C_12 
REMARK    7  A    between atoms: C_12  and  C_13 
REMARK    8  A    between atoms: C_13  and  C_14 
REMARK       I    between atoms: C_14  and  N_15 
REMARK    9  A    between atoms: N_15  and  C_26 
REMARK   10  A    between atoms: O_19  and  P_21 
REMARK   11  A    between atoms: P_21  and  O_22 
REMARK   12  A    between atoms: C_24  and  C_26 
ROOT
HETATM    1  C           1     -20.080  -5.913  -7.241  0.00  0.00     0.189 C 
ENDROOT
BRANCH   1   2
HETATM    2  C           1     -21.585  -5.677  -7.279  0.00  0.00     0.074 C 
BRANCH   2   3
HETATM    3  C           1     -21.932  -4.862  -8.485  0.00  0.00    -0.056 A 
HETATM    4  C           1     -23.186  -4.260  -8.584  0.00  0.00     0.010 A 
HETATM    5  C           1     -23.510  -3.499  -9.707  0.00  0.00     0.038 A 
HETATM    6  C           1     -22.578  -3.341 -10.733  0.00  0.00     0.081 A 
HETATM    7  C           1     -21.323  -3.942 -10.635  0.00  0.00     0.038 A 
HETATM    8  C           1     -21.001  -4.703  -9.511  0.00  0.00     0.010 A 
BRANCH   6   9
HETATM    9  O           1     -22.892  -2.603 -11.825  0.00  0.00    -0.247 OA
BRANCH   9  10
HETATM   10  P           1     -23.891  -3.250 -12.916  0.00  0.00     0.411 P 
HETATM   11  O           1     -25.285  -2.867 -12.597  0.00  0.00    -0.624 OA
HETATM   12  O           1     -23.540  -2.752 -14.265  0.00  0.00    -0.624 OA
BRANCH  10  13
HETATM   13  O           1     -23.752  -4.859 -12.884  0.00  0.00    -0.300 OA
HETATM   14  H           1     -24.381  -5.145 -12.242  0.00  0.00     0.223 HD
ENDBRANCH  10  13
ENDBRANCH   9  10
ENDBRANCH   6   9
ENDBRANCH   2   3
ENDBRANCH   1   2
BRANCH   1  15
HETATM   15  N           1     -19.795  -7.087  -6.440  0.00  0.00    -0.344 N 
HETATM   16  C           1     -20.742  -7.574  -5.580  0.00  0.00     0.249 C 
HETATM   17  O           1     -21.539  -8.398  -5.960  0.00  0.00    -0.271 OA
HETATM   18  H           1     -18.898  -7.548  -6.519  0.00  0.00     0.163 HD
BRANCH  16  19
HETATM   19  C           1     -20.790  -7.080  -4.155  0.00  0.00     0.274 C 
BRANCH  19  20
HETATM   20  N           1     -21.893  -6.074  -4.011  0.00  0.00    -0.067 N 
HETATM   21  H           1     -22.673  -6.315  -4.664  0.00  0.00     0.275 HD
HETATM   22  H           1     -22.248  -6.084  -3.028  0.00  0.00     0.275 HD
HETATM   23  H           1     -21.529  -5.122  -4.241  0.00  0.00     0.275 HD
ENDBRANCH  19  20
BRANCH  19  24
HETATM   24  C           1     -21.049  -8.253  -3.218  0.00  0.00     0.042 C 
BRANCH  24  25
HETATM   25  C           1     -20.566  -7.901  -1.817  0.00  0.00     0.003 C 
BRANCH  25  26
HETATM   26 Se           1     -22.063  -7.982  -0.573  0.00  0.00     0.000 Se
HETATM   27  C           1     -21.625  -9.759   0.095  0.00  0.00     0.000 C 
ENDBRANCH  25  26
ENDBRANCH  24  25
ENDBRANCH  19  24
ENDBRANCH  16  19
ENDBRANCH   1  15
BRANCH   1  28
HETATM   28  C           1     -19.398  -4.712  -6.632  0.00  0.00     0.197 C 
HETATM   29  O           1     -19.817  -4.236  -5.555  0.00  0.00    -0.646 OA
HETATM   30  O           1     -18.415  -4.194  -7.204  0.00  0.00    -0.646 OA
ENDBRANCH   1  28
TORSDOF 12
ENDMDL
MODEL 4
REMARK VINA RESULT:      -7.1      5.087      9.211
REMARK  12 active torsions:
REMARK  status: ('A' for Active; 'I' for Inactive)
REMARK    1  A    between atoms: C_1  and  O_22 
REMARK    2  A    between atoms: C_4  and  C_5 
REMARK    3  A    between atoms: C_5  and  C_26 
REMARK    4  A    between atoms: N_8  and  C_13 
REMARK    5  A    between atoms: Se_10  and  C_11 
REMARK    6  A    between atoms: C_11  and  C_12 
REMARK    7  A    between atoms: C_12  and  C_13 
REMARK    8  A    between atoms: C_13  and  C_14 
REMARK       I    between atoms: C_14  and  N_15 
REMARK    9  A    between atoms: N_15  and  C_26 
REMARK   10  A    between atoms: O_19  and  P_21 
REMARK   11  A    between atoms: P_21  and  O_22 
REMARK   12  A    between atoms: C_24  and  C_26 
ROOT
HETATM    1  C           1     -20.748  -5.107  -6.160  0.00  0.00     0.189 C 
ENDROOT
BRANCH   1   2
HETATM    2  C           1     -21.589  -6.352  -5.905  0.00  0.00     0.074 C 
BRANCH   2   3
HETATM    3  C           1     -21.342  -6.844  -4.513  0.00  0.00    -0.056 A 
HETATM    4  C           1     -21.972  -6.228  -3.432  0.00  0.00     0.010 A 
HETATM    5  C           1     -21.742  -6.687  -2.136  0.00  0.00     0.038 A 
HETATM    6  C           1     -20.882  -7.764  -1.920  0.00  0.00     0.081 A 
HETATM    7  C           1     -20.252  -8.381  -3.000  0.00  0.00     0.038 A 
HETATM    8  C           1     -20.482  -7.921  -4.297  0.00  0.00     0.010 A 
BRANCH   6   9
HETATM    9  O           1     -20.658  -8.210  -0.660  0.00  0.00    -0.247 OA
BRANCH   9  10
HETATM   10  P           1     -21.842  -9.026   0.075  0.00  0.00     0.411 P 
HETATM   11  O           1     -21.254 -10.056   0.961  0.00  0.00    -0.624 OA
HETATM   12  O           1     -22.660  -8.092   0.881  0.00  0.00    -0.624 OA
BRANCH  10  13
HETATM   13  O           1     -22.775  -9.738  -1.035  0.00  0.00    -0.300 OA
HETATM   14  H           1     -22.199 -10.322  -1.498  0.00  0.00     0.223 HD
ENDBRANCH  10  13
ENDBRANCH   9  10
ENDBRANCH   6   9
ENDBRANCH   2   3
ENDBRANCH   1   2
BRANCH   1  15
HETATM   15  N           1     -21.577  -4.080  -6.759  0.00  0.00    -0.344 N 
HETATM   16  C           1     -22.779  -4.412  -7.322  0.00  0.00     0.249 C 
HETATM   17  O           1     -23.784  -4.406  -6.651  0.00  0.00    -0.271 OA
HETATM   18  H           1     -21.267  -3.116  -6.761  0.00  0.00     0.163 HD
BRANCH  16  19
HETATM   19  C           1     -22.850  -4.788  -8.782  0.00  0.00     0.274 C 
BRANCH  19  20
HETATM   20  N           1     -24.229  -4.510  -9.303  0.00  0.00    -0.067 N 
HETATM   21  H           1     -24.383  -3.478  -9.352  0.00  0.00     0.275 HD
HETATM   22  H           1     -24.329  -4.922 -10.259  0.00  0.00     0.275 HD
HETATM   23  H           1     -24.936  -4.938  -8.664  0.00  0.00     0.275 HD
ENDBRANCH  19  20
BRANCH  19  24
HETATM   24  C           1     -21.837  -3.967  -9.569  0.00  0.00     0.042 C 
BRANCH  24  25
HETATM   25  C           1     -21.962  -4.291 -11.052  0.00  0.00     0.003 C 
BRANCH  25  26
HETATM   26 Se           1     -22.562  -2.707 -12.015  0.00  0.00     0.000 Se
HETATM   27  C           1     -23.942  -3.643 -13.024  0.00  0.00     0.000 C 
ENDBRANCH  25  26
ENDBRANCH  24  25
ENDBRANCH  19  24
ENDBRANCH  16  19
ENDBRANCH   1  15
BRANCH   1  28
HETATM   28  C           1     -19.616  -5.449  -7.098  0.00  0.00     0.197 C 
HETATM   29  O           1     -19.430  -6.635  -7.446  0.00  0.00    -0.646 OA
HETATM   30  O           1     -18.864  -4.547  -7.526  0.00  0.00    -0.646 OA
ENDBRANCH   1  28
TORSDOF 12
ENDMDL
MODEL 5
REMARK VINA RESULT:      -6.6      2.731      3.950
REMARK  12 active torsions:
REMARK  status: ('A' for Active; 'I' for Inactive)
REMARK    1  A    between atoms: C_1  and  O_22 
REMARK    2  A    between atoms: C_4  and  C_5 
REMARK    3  A    between atoms: C_5  and  C_26 
REMARK    4  A    between atoms: N_8  and  C_13 
REMARK    5  A    between atoms: Se_10  and  C_11 
REMARK    6  A    between atoms: C_11  and  C_12 
REMARK    7  A    between atoms: C_12  and  C_13 
REMARK    8  A    between atoms: C_13  and  C_14 
REMARK       I    between atoms: C_14  and  N_15 
REMARK    9  A    between atoms: N_15  and  C_26 
REMARK   10  A    between atoms: O_19  and  P_21 
REMARK   11  A    between atoms: P_21  and  O_22 
REMARK   12  A    between atoms: C_24  and  C_26 
ROOT
HETATM    1  C           1     -20.866  -7.186  -3.893  0.00  0.00     0.189 C 
ENDROOT
BRANCH   1   2
HETATM    2  C           1     -21.991  -7.085  -4.915  0.00  0.00     0.074 C 
BRANCH   2   3
HETATM    3  C           1     -21.588  -6.145  -6.008  0.00  0.00    -0.056 A 
HETATM    4  C           1     -22.494  -5.197  -6.484  0.00  0.00     0.010 A 
HETATM    5  C           1     -22.118  -4.321  -7.502  0.00  0.00     0.038 A 
HETATM    6  C           1     -20.835  -4.392  -8.044  0.00  0.00     0.081 A 
HETATM    7  C           1     -19.928  -5.338  -7.569  0.00  0.00     0.038 A 
HETATM    8  C           1     -20.305  -6.215  -6.551  0.00  0.00     0.010 A 
BRANCH   6   9
HETATM    9  O           1     -20.470  -3.540  -9.033  0.00  0.00    -0.247 OA
BRANCH   9  10
HETATM   10  P           1     -20.647  -4.033 -10.561  0.00  0.00     0.411 P 
HETATM   11  O           1     -19.639  -5.074 -10.863  0.00  0.00    -0.624 OA
HETATM   12  O           1     -22.004  -4.594 -10.745  0.00  0.00    -0.624 OA
BRANCH  10  13
HETATM   13  O           1     -20.443  -2.779 -11.557  0.00  0.00    -0.300 OA
HETATM   14  H           1     -20.978  -2.092 -11.196  0.00  0.00     0.223 HD
ENDBRANCH  10  13
ENDBRANCH   9  10
ENDBRANCH   6   9
ENDBRANCH   2   3
ENDBRANCH   1   2
BRANCH   1  15
HETATM   15  N           1     -20.349  -8.540  -3.878  0.00  0.00    -0.344 N 
HETATM   16  C           1     -21.010  -9.533  -4.549  0.00  0.00     0.249 C 
HETATM   17  O           1     -20.742  -9.765  -5.704  0.00  0.00    -0.271 OA
HETATM   18  H           1     -19.497  -8.752  -3.373  0.00  0.00     0.163 HD
BRANCH  16  19
HETATM   19  C           1     -22.076 -10.337  -3.847  0.00  0.00     0.274 C 
BRANCH  19  20
HETATM   20  N           1     -22.317 -11.613  -4.597  0.00  0.00    -0.067 N 
HETATM   21  H           1     -23.339 -11.831  -4.599  0.00  0.00     0.275 HD
HETATM   22  H           1     -21.982 -11.506  -5.582  0.00  0.00     0.275 HD
HETATM   23  H           1     -21.796 -12.392  -4.135  0.00  0.00     0.275 HD
ENDBRANCH  19  20
BRANCH  19  24
HETATM   24  C           1     -21.618 -10.662  -2.430  0.00  0.00     0.042 C 
BRANCH  24  25
HETATM   25  C           1     -22.288 -11.946  -1.962  0.00  0.00     0.003 C 
BRANCH  25  26
HETATM   26 Se           1     -23.900 -11.510  -0.957  0.00  0.00     0.000 Se
HETATM   27  C           1     -23.203  -9.832  -0.252  0.00  0.00     0.000 C 
ENDBRANCH  25  26
ENDBRANCH  24  25
ENDBRANCH  19  24
ENDBRANCH  16  19
ENDBRANCH   1  15
BRANCH   1  28
HETATM   28  C           1     -21.398  -6.837  -2.524  0.00  0.00     0.197 C 
HETATM   29  O           1     -20.936  -7.405  -1.511  0.00  0.00    -0.646 OA
HETATM   30  O           1     -22.300  -5.980  -2.404  0.00  0.00    -0.646 OA
ENDBRANCH   1  28
TORSDOF 12
ENDMDL
MODEL 6
REMARK VINA RESULT:      -6.6      2.312      3.399
REMARK  12 active torsions:
REMARK  status: ('A' for Active; 'I' for Inactive)
REMARK    1  A    between atoms: C_1  and  O_22 
REMARK    2  A    between atoms: C_4  and  C_5 
REMARK    3  A    between atoms: C_5  and  C_26 
REMARK    4  A    between atoms: N_8  and  C_13 
REMARK    5  A    between atoms: Se_10  and  C_11 
REMARK    6  A    between atoms: C_11  and  C_12 
REMARK    7  A    between atoms: C_12  and  C_13 
REMARK    8  A    between atoms: C_13  and  C_14 
REMARK       I    between atoms: C_14  and  N_15 
REMARK    9  A    between atoms: N_15  and  C_26 
REMARK   10  A    between atoms: O_19  and  P_21 
REMARK   11  A    between atoms: P_21  and  O_22 
REMARK   12  A    between atoms: C_24  and  C_26 
ROOT
HETATM    1  C           1     -21.090  -7.812  -5.583  0.00  0.00     0.189 C 
ENDROOT
BRANCH   1   2
HETATM    2  C           1     -20.413  -6.447  -5.561  0.00  0.00     0.074 C 
BRANCH   2   3
HETATM    3  C           1     -20.906  -5.627  -6.712  0.00  0.00    -0.056 A 
HETATM    4  C           1     -22.151  -5.001  -6.640  0.00  0.00     0.010 A 
HETATM    5  C           1     -22.610  -4.236  -7.712  0.00  0.00     0.038 A 
HETATM    6  C           1     -21.824  -4.097  -8.856  0.00  0.00     0.081 A 
HETATM    7  C           1     -20.580  -4.721  -8.928  0.00  0.00     0.038 A 
HETATM    8  C           1     -20.121  -5.486  -7.855  0.00  0.00     0.010 A 
BRANCH   6   9
HETATM    9  O           1     -22.271  -3.354  -9.897  0.00  0.00    -0.247 OA
BRANCH   9  10
HETATM   10  P           1     -23.682  -3.761 -10.570  0.00  0.00     0.411 P 
HETATM   11  O           1     -24.787  -3.119  -9.824  0.00  0.00    -0.624 OA
HETATM   12  O           1     -23.708  -3.306 -11.978  0.00  0.00    -0.624 OA
BRANCH  10  13
HETATM   13  O           1     -23.858  -5.366 -10.519  0.00  0.00    -0.300 OA
HETATM   14  H           1     -24.763  -5.505 -10.299  0.00  0.00     0.223 HD
ENDBRANCH  10  13
ENDBRANCH   9  10
ENDBRANCH   6   9
ENDBRANCH   2   3
ENDBRANCH   1   2
BRANCH   1  15
HETATM   15  N           1     -22.105  -7.862  -4.549  0.00  0.00    -0.344 N 
HETATM   16  C           1     -21.941  -7.148  -3.393  0.00  0.00     0.249 C 
HETATM   17  O           1     -22.351  -6.015  -3.318  0.00  0.00    -0.271 OA
HETATM   18  H           1     -22.936  -8.425  -4.682  0.00  0.00     0.163 HD
BRANCH  16  19
HETATM   19  C           1     -21.244  -7.777  -2.211  0.00  0.00     0.274 C 
BRANCH  19  20
HETATM   20  N           1     -21.795  -7.200  -0.941  0.00  0.00    -0.067 N 
HETATM   21  H           1     -22.266  -7.953  -0.390  0.00  0.00     0.275 HD
HETATM   22  H           1     -21.015  -6.793  -0.376  0.00  0.00     0.275 HD
HETATM   23  H           1     -22.488  -6.452  -1.170  0.00  0.00     0.275 HD
ENDBRANCH  19  20
BRANCH  19  24
HETATM   24  C           1     -21.476  -9.283  -2.225  0.00  0.00     0.042 C 
BRANCH  24  25
HETATM   25  C           1     -20.500  -9.956  -1.269  0.00  0.00     0.003 C 
BRANCH  25  26
HETATM   26 Se           1     -19.460 -11.291  -2.236  0.00  0.00     0.000 Se
HETATM   27  C           1     -18.551 -11.969  -0.651  0.00  0.00     0.000 C 
ENDBRANCH  25  26
ENDBRANCH  24  25
ENDBRANCH  19  24
ENDBRANCH  16  19
ENDBRANCH   1  15
BRANCH   1  28
HETATM   28  C           1     -20.062  -8.888  -5.331  0.00  0.00     0.197 C 
HETATM   29  O           1     -19.004  -8.612  -4.725  0.00  0.00    -0.646 OA
HETATM   30  O           1     -20.269 -10.055  -5.728  0.00  0.00    -0.646 OA
ENDBRANCH   1  28
TORSDOF 12
ENDMDL
MODEL 7
REMARK VINA RESULT:      -6.4      5.187      9.384
REMARK  12 active torsions:
REMARK  status: ('A' for Active; 'I' for Inactive)
REMARK    1  A    between atoms: C_1  and  O_22 
REMARK    2  A    between atoms: C_4  and  C_5 
REMARK    3  A    between atoms: C_5  and  C_26 
REMARK    4  A    between atoms: N_8  and  C_13 
REMARK    5  A    between atoms: Se_10  and  C_11 
REMARK    6  A    between atoms: C_11  and  C_12 
REMARK    7  A    between atoms: C_12  and  C_13 
REMARK    8  A    between atoms: C_13  and  C_14 
REMARK       I    between atoms: C_14  and  N_15 
REMARK    9  A    between atoms: N_15  and  C_26 
REMARK   10  A    between atoms: O_19  and  P_21 
REMARK   11  A    between atoms: P_21  and  O_22 
REMARK   12  A    between atoms: C_24  and  C_26 
ROOT
HETATM    1  C           1     -21.101  -7.023  -5.992  0.00  0.00     0.189 C 
ENDROOT
BRANCH   1   2
HETATM    2  C           1     -19.908  -7.764  -5.402  0.00  0.00     0.074 C 
BRANCH   2   3
HETATM    3  C           1     -20.388  -8.755  -4.389  0.00  0.00    -0.056 A 
HETATM    4  C           1     -21.450  -9.607  -4.693  0.00  0.00     0.010 A 
HETATM    5  C           1     -21.896 -10.531  -3.748  0.00  0.00     0.038 A 
HETATM    6  C           1     -21.280 -10.603  -2.499  0.00  0.00     0.081 A 
HETATM    7  C           1     -20.218  -9.753  -2.194  0.00  0.00     0.038 A 
HETATM    8  C           1     -19.772  -8.829  -3.139  0.00  0.00     0.010 A 
BRANCH   6   9
HETATM    9  O           1     -21.714 -11.501  -1.581  0.00  0.00    -0.247 OA
BRANCH   9  10
HETATM   10  P           1     -22.999 -11.107  -0.684  0.00  0.00     0.411 P 
HETATM   11  O           1     -24.237 -11.435  -1.426  0.00  0.00    -0.624 OA
HETATM   12  O           1     -22.968 -11.869   0.584  0.00  0.00    -0.624 OA
BRANCH  10  13
HETATM   13  O           1     -22.966  -9.525  -0.363  0.00  0.00    -0.300 OA
HETATM   14  H           1     -22.421  -9.443   0.402  0.00  0.00     0.223 HD
ENDBRANCH  10  13
ENDBRANCH   9  10
ENDBRANCH   6   9
ENDBRANCH   2   3
ENDBRANCH   1   2
BRANCH   1  15
HETATM   15  N           1     -20.652  -6.170  -7.075  0.00  0.00    -0.344 N 
HETATM   16  C           1     -21.215  -4.936  -7.253  0.00  0.00     0.249 C 
HETATM   17  O           1     -20.745  -3.970  -6.700  0.00  0.00    -0.271 OA
HETATM   18  H           1     -19.920  -6.487  -7.699  0.00  0.00     0.163 HD
BRANCH  16  19
HETATM   19  C           1     -22.426  -4.781  -8.139  0.00  0.00     0.274 C 
BRANCH  19  20
HETATM   20  N           1     -23.608  -4.380  -7.306  0.00  0.00    -0.067 N 
HETATM   21  H           1     -24.091  -3.567  -7.752  0.00  0.00     0.275 HD
HETATM   22  H           1     -24.273  -5.184  -7.237  0.00  0.00     0.275 HD
HETATM   23  H           1     -23.284  -4.111  -6.350  0.00  0.00     0.275 HD
ENDBRANCH  19  20
BRANCH  19  24
HETATM   24  C           1     -22.158  -3.707  -9.186  0.00  0.00     0.042 C 
BRANCH  24  25
HETATM   25  C           1     -21.581  -4.351 -10.439  0.00  0.00     0.003 C 
BRANCH  25  26
HETATM   26 Se           1     -22.187  -3.373 -12.011  0.00  0.00     0.000 Se
HETATM   27  C           1     -24.031  -3.211 -11.402  0.00  0.00     0.000 C 
ENDBRANCH  25  26
ENDBRANCH  24  25
ENDBRANCH  19  24
ENDBRANCH  16  19
ENDBRANCH   1  15
BRANCH   1  28
HETATM   28  C           1     -21.747  -6.177  -4.922  0.00  0.00     0.197 C 
HETATM   29  O           1     -21.037  -5.585  -4.081  0.00  0.00    -0.646 OA
HETATM   30  O           1     -22.992  -6.069  -4.877  0.00  0.00    -0.646 OA
ENDBRANCH   1  28
TORSDOF 12
ENDMDL
MODEL 8
REMARK VINA RESULT:      -6.4      3.417      4.785
REMARK  12 active torsions:
REMARK  status: ('A' for Active; 'I' for Inactive)
REMARK    1  A    between atoms: C_1  and  O_22 
REMARK    2  A    between atoms: C_4  and  C_5 
REMARK    3  A    between atoms: C_5  and  C_26 
REMARK    4  A    between atoms: N_8  and  C_13 
REMARK    5  A    between atoms: Se_10  and  C_11 
REMARK    6  A    between atoms: C_11  and  C_12 
REMARK    7  A    between atoms: C_12  and  C_13 
REMARK    8  A    between atoms: C_13  and  C_14 
REMARK       I    between atoms: C_14  and  N_15 
REMARK    9  A    between atoms: N_15  and  C_26 
REMARK   10  A    between atoms: O_19  and  P_21 
REMARK   11  A    between atoms: P_21  and  O_22 
REMARK   12  A    between atoms: C_24  and  C_26 
ROOT
HETATM    1  C           1     -20.831  -7.502  -3.796  0.00  0.00     0.189 C 
ENDROOT
BRANCH   1   2
HETATM    2  C           1     -21.946  -7.430  -4.832  0.00  0.00     0.074 C 
BRANCH   2   3
HETATM    3  C           1     -21.586  -6.427  -5.884  0.00  0.00    -0.056 A 
HETATM    4  C           1     -20.301  -6.416  -6.427  0.00  0.00     0.010 A 
HETATM    5  C           1     -19.966  -5.483  -7.407  0.00  0.00     0.038 A 
HETATM    6  C           1     -20.917  -4.560  -7.845  0.00  0.00     0.081 A 
HETATM    7  C           1     -22.201  -4.571  -7.304  0.00  0.00     0.038 A 
HETATM    8  C           1     -22.536  -5.505  -6.323  0.00  0.00     0.010 A 
BRANCH   6   9
HETATM    9  O           1     -20.591  -3.654  -8.799  0.00  0.00    -0.247 OA
BRANCH   9  10
HETATM   10  P           1     -20.725  -4.099 -10.345  0.00  0.00     0.411 P 
HETATM   11  O           1     -19.718  -5.140 -10.648  0.00  0.00    -0.624 OA
HETATM   12  O           1     -22.081  -4.640 -10.588  0.00  0.00    -0.624 OA
BRANCH  10  13
HETATM   13  O           1     -20.479  -2.817 -11.297  0.00  0.00    -0.300 OA
HETATM   14  H           1     -21.318  -2.641 -11.689  0.00  0.00     0.223 HD
ENDBRANCH  10  13
ENDBRANCH   9  10
ENDBRANCH   6   9
ENDBRANCH   2   3
ENDBRANCH   1   2
BRANCH   1  15
HETATM   15  N           1     -20.504  -8.890  -3.536  0.00  0.00    -0.344 N 
HETATM   16  C           1     -19.298  -9.396  -3.938  0.00  0.00     0.249 C 
HETATM   17  O           1     -18.344  -9.347  -3.198  0.00  0.00    -0.271 OA
HETATM   18  H           1     -21.168  -9.485  -3.056  0.00  0.00     0.163 HD
BRANCH  16  19
HETATM   19  C           1     -19.158 -10.014  -5.308  0.00  0.00     0.274 C 
BRANCH  19  20
HETATM   20  N           1     -18.293  -9.138  -6.166  0.00  0.00    -0.067 N 
HETATM   21  H           1     -18.098  -9.621  -7.072  0.00  0.00     0.275 HD
HETATM   22  H           1     -18.788  -8.236  -6.352  0.00  0.00     0.275 HD
HETATM   23  H           1     -17.393  -8.947  -5.671  0.00  0.00     0.275 HD
ENDBRANCH  19  20
BRANCH  19  24
HETATM   24  C           1     -18.517 -11.390  -5.182  0.00  0.00     0.042 C 
BRANCH  24  25
HETATM   25  C           1     -17.979 -11.826  -6.538  0.00  0.00     0.003 C 
BRANCH  25  26
HETATM   26 Se           1     -16.071 -12.197  -6.392  0.00  0.00     0.000 Se
HETATM   27  C           1     -15.949 -11.684  -4.515  0.00  0.00     0.000 C 
ENDBRANCH  25  26
ENDBRANCH  24  25
ENDBRANCH  19  24
ENDBRANCH  16  19
ENDBRANCH   1  15
BRANCH   1  28
HETATM   28  C           1     -21.290  -6.845  -2.517  0.00  0.00     0.197 C 
HETATM   29  O           1     -21.926  -5.770  -2.560  0.00  0.00    -0.646 OA
HETATM   30  O           1     -21.033  -7.377  -1.415  0.00  0.00    -0.646 OA
ENDBRANCH   1  28
TORSDOF 12
ENDMDL
MODEL 9
REMARK VINA RESULT:      -6.3      5.125      8.530
REMARK  12 active torsions:
REMARK  status: ('A' for Active; 'I' for Inactive)
REMARK    1  A    between atoms: C_1  and  O_22 
REMARK    2  A    between atoms: C_4  and  C_5 
REMARK    3  A    between atoms: C_5  and  C_26 
REMARK    4  A    between atoms: N_8  and  C_13 
REMARK    5  A    between atoms: Se_10  and  C_11 
REMARK    6  A    between atoms: C_11  and  C_12 
REMARK    7  A    between atoms: C_12  and  C_13 
REMARK    8  A    between atoms: C_13  and  C_14 
REMARK       I    between atoms: C_14  and  N_15 
REMARK    9  A    between atoms: N_15  and  C_26 
REMARK   10  A    between atoms: O_19  and  P_21 
REMARK   11  A    between atoms: P_21  and  O_22 
REMARK   12  A    between atoms: C_24  and  C_26 
ROOT
HETATM    1  C           1     -21.402  -7.741  -2.334  0.00  0.00     0.189 C 
ENDROOT
BRANCH   1   2
HETATM    2  C           1     -19.973  -8.122  -1.971  0.00  0.00     0.074 C 
BRANCH   2   3
HETATM    3  C           1     -19.527  -9.263  -2.831  0.00  0.00    -0.056 A 
HETATM    4  C           1     -18.168  -9.478  -3.058  0.00  0.00     0.010 A 
HETATM    5  C           1     -17.753 -10.542  -3.859  0.00  0.00     0.038 A 
HETATM    6  C           1     -18.699 -11.392  -4.432  0.00  0.00     0.081 A 
HETATM    7  C           1     -20.058 -11.179  -4.205  0.00  0.00     0.038 A 
HETATM    8  C           1     -20.472 -10.114  -3.405  0.00  0.00     0.010 A 
BRANCH   6   9
HETATM    9  O           1     -18.296 -12.426  -5.210  0.00  0.00    -0.247 OA
BRANCH   9  10
HETATM   10  P           1     -18.466 -12.282  -6.810  0.00  0.00     0.411 P 
HETATM   11  O           1     -19.686 -13.000  -7.243  0.00  0.00    -0.624 OA
HETATM   12  O           1     -18.585 -10.851  -7.168  0.00  0.00    -0.624 OA
BRANCH  10  13
HETATM   13  O           1     -17.177 -12.916  -7.547  0.00  0.00    -0.300 OA
HETATM   14  H           1     -16.572 -12.198  -7.640  0.00  0.00     0.223 HD
ENDBRANCH  10  13
ENDBRANCH   9  10
ENDBRANCH   6   9
ENDBRANCH   2   3
ENDBRANCH   1   2
BRANCH   1  15
HETATM   15  N           1     -21.407  -6.436  -2.967  0.00  0.00    -0.344 N 
HETATM   16  C           1     -21.641  -6.329  -4.311  0.00  0.00     0.249 C 
HETATM   17  O           1     -22.770  -6.197  -4.720  0.00  0.00    -0.271 OA
HETATM   18  H           1     -21.240  -5.605  -2.414  0.00  0.00     0.163 HD
BRANCH  16  19
HETATM   19  C           1     -20.488  -6.376  -5.283  0.00  0.00     0.274 C 
BRANCH  19  20
HETATM   20  N           1     -20.813  -7.324  -6.399  0.00  0.00    -0.067 N 
HETATM   21  H           1     -19.940  -7.558  -6.924  0.00  0.00     0.275 HD
HETATM   22  H           1     -21.225  -8.199  -6.003  0.00  0.00     0.275 HD
HETATM   23  H           1     -21.499  -6.876  -7.047  0.00  0.00     0.275 HD
ENDBRANCH  19  20
BRANCH  19  24
HETATM   24  C           1     -20.246  -4.985  -5.854  0.00  0.00     0.042 C 
BRANCH  24  25
HETATM   25  C           1     -20.415  -5.021  -7.367  0.00  0.00     0.003 C 
BRANCH  25  26
HETATM   26 Se           1     -22.087  -4.148  -7.856  0.00  0.00     0.000 Se
HETATM   27  C           1     -21.803  -4.316  -9.777  0.00  0.00     0.000 C 
ENDBRANCH  25  26
ENDBRANCH  24  25
ENDBRANCH  19  24
ENDBRANCH  16  19
ENDBRANCH   1  15
BRANCH   1  28
HETATM   28  C           1     -22.244  -7.695  -1.082  0.00  0.00     0.197 C 
HETATM   29  O           1     -22.661  -6.599  -0.649  0.00  0.00    -0.646 OA
HETATM   30  O           1     -22.523  -8.753  -0.477  0.00  0.00    -0.646 OA
ENDBRANCH   1  28
TORSDOF 12
ENDMDL
