MODEL 1
REMARK VINA RESULT:      -6.4      0.000      0.000
REMARK  12 active torsions:
REMARK  status: ('A' for Active; 'I' for Inactive)
REMARK    1  A    between atoms: C_2  and  C_4 
REMARK    2  A    between atoms: C_4  and  C_5 
REMARK    3  A    between atoms: C_4  and  N_11 
REMARK    4  A    between atoms: C_5  and  O_6 
REMARK    5  A    between atoms: O_6  and  P_7 
REMARK    6  A    between atoms: P_7  and  O_9 
REMARK       I    between atoms: N_11  and  C_12 
REMARK    7  A    between atoms: C_12  and  C_13 
REMARK    8  A    between atoms: C_13  and  C_14 
REMARK    9  A    between atoms: C_13  and  N_20 
REMARK   10  A    between atoms: C_14  and  O_15 
REMARK   11  A    between atoms: O_15  and  P_16 
REMARK   12  A    between atoms: P_16  and  O_17 
ROOT
HETATM    1  N           1     -35.265  -1.784 -12.099  0.00  0.00    -0.343 N 
HETATM    2  C           1     -34.094  -2.220 -11.540  0.00  0.00     0.251 C 
HETATM    3  O           1     -33.528  -1.542 -10.715  0.00  0.00    -0.271 OA
HETATM    4  H           1     -35.739  -2.352 -12.789  0.00  0.00     0.163 HD
ENDROOT
BRANCH   2   5
HETATM    5  C           1     -33.508  -3.547 -11.955  0.00  0.00     0.298 C 
BRANCH   5   6
HETATM    6  C           1     -34.320  -4.123 -13.108  0.00  0.00     0.224 C 
BRANCH   6   7
HETATM    7  O           1     -34.227  -3.271 -14.217  0.00  0.00    -0.287 OA
BRANCH   7   8
HETATM    8  P           1     -34.064  -3.992 -15.653  0.00  0.00     0.406 P 
HETATM    9  O           1     -34.942  -5.181 -15.710  0.00  0.00    -0.624 OA
HETATM   10  O           1     -32.655  -4.406 -15.838  0.00  0.00    -0.624 OA
BRANCH   8  11
HETATM   11  O           1     -34.478  -2.960 -16.825  0.00  0.00    -0.300 OA
HETATM   12  H           1     -33.891  -2.231 -16.728  0.00  0.00     0.223 HD
ENDBRANCH   8  11
ENDBRANCH   7   8
ENDBRANCH   6   7
ENDBRANCH   5   6
BRANCH   5  13
HETATM   13  N           1     -33.545  -4.495 -10.794  0.00  0.00    -0.064 N 
HETATM   14  H           1     -33.010  -5.361 -11.034  0.00  0.00     0.275 HD
HETATM   15  H           1     -33.113  -4.040  -9.959  0.00  0.00     0.275 HD
HETATM   16  H           1     -34.536  -4.746 -10.581  0.00  0.00     0.275 HD
ENDBRANCH   5  13
ENDBRANCH   2   5
BRANCH   1  17
HETATM   17  C           1     -35.827  -0.508 -11.699  0.00  0.00     0.210 C 
BRANCH  17  18
HETATM   18  C           1     -36.891  -0.735 -10.651  0.00  0.00     0.198 C 
HETATM   19  O           1     -36.589  -0.708  -9.439  0.00  0.00    -0.646 OA
HETATM   20  O           1     -38.073  -0.949 -10.997  0.00  0.00    -0.646 OA
ENDBRANCH  17  18
BRANCH  17  21
HETATM   21  C           1     -36.446   0.175 -12.911  0.00  0.00     0.217 C 
BRANCH  21  22
HETATM   22  O           1     -36.629  -0.764 -13.936  0.00  0.00    -0.287 OA
BRANCH  22  23
HETATM   23  P           1     -36.258  -0.268 -15.427  0.00  0.00     0.406 P 
HETATM   24  O           1     -36.824  -1.212 -16.417  0.00  0.00    -0.624 OA
HETATM   25  O           1     -34.787  -0.219 -15.578  0.00  0.00    -0.624 OA
BRANCH  23  26
HETATM   26  O           1     -36.876   1.204 -15.673  0.00  0.00    -0.300 OA
HETATM   27  H           1     -36.582   1.718 -14.939  0.00  0.00     0.223 HD
ENDBRANCH  23  26
ENDBRANCH  22  23
ENDBRANCH  21  22
ENDBRANCH  17  21
ENDBRANCH   1  17
TORSDOF 12
ENDMDL
MODEL 2
REMARK VINA RESULT:      -6.3      1.129      4.353
REMARK  12 active torsions:
REMARK  status: ('A' for Active; 'I' for Inactive)
REMARK    1  A    between atoms: C_2  and  C_4 
REMARK    2  A    between atoms: C_4  and  C_5 
REMARK    3  A    between atoms: C_4  and  N_11 
REMARK    4  A    between atoms: C_5  and  O_6 
REMARK    5  A    between atoms: O_6  and  P_7 
REMARK    6  A    between atoms: P_7  and  O_9 
REMARK       I    between atoms: N_11  and  C_12 
REMARK    7  A    between atoms: C_12  and  C_13 
REMARK    8  A    between atoms: C_13  and  C_14 
REMARK    9  A    between atoms: C_13  and  N_20 
REMARK   10  A    between atoms: C_14  and  O_15 
REMARK   11  A    between atoms: O_15  and  P_16 
REMARK   12  A    between atoms: P_16  and  O_17 
ROOT
HETATM    1  N           1     -35.100  -2.101 -12.329  0.00  0.00    -0.343 N 
HETATM    2  C           1     -36.131  -1.464 -11.692  0.00  0.00     0.251 C 
HETATM    3  O           1     -36.793  -2.055 -10.872  0.00  0.00    -0.271 OA
HETATM    4  H           1     -34.546  -1.605 -13.015  0.00  0.00     0.163 HD
ENDROOT
BRANCH   2   5
HETATM    5  C           1     -36.441  -0.022 -12.014  0.00  0.00     0.298 C 
BRANCH   5   6
HETATM    6  C           1     -37.436   0.039 -13.165  0.00  0.00     0.224 C 
BRANCH   6   7
HETATM    7  O           1     -37.059  -0.877 -14.158  0.00  0.00    -0.287 OA
BRANCH   7   8
HETATM    8  P           1     -36.474  -0.243 -15.523  0.00  0.00     0.406 P 
HETATM    9  O           1     -36.906  -1.066 -16.673  0.00  0.00    -0.624 OA
HETATM   10  O           1     -34.995  -0.217 -15.460  0.00  0.00    -0.624 OA
BRANCH   8  11
HETATM   11  O           1     -37.030   1.263 -15.699  0.00  0.00    -0.300 OA
HETATM   12  H           1     -37.963   1.170 -15.787  0.00  0.00     0.223 HD
ENDBRANCH   8  11
ENDBRANCH   7   8
ENDBRANCH   6   7
ENDBRANCH   5   6
BRANCH   5  13
HETATM   13  N           1     -35.178   0.685 -12.405  0.00  0.00    -0.064 N 
HETATM   14  H           1     -35.153   1.628 -11.955  0.00  0.00     0.275 HD
HETATM   15  H           1     -34.354   0.127 -12.088  0.00  0.00     0.275 HD
HETATM   16  H           1     -35.148   0.794 -13.444  0.00  0.00     0.275 HD
ENDBRANCH   5  13
ENDBRANCH   2   5
BRANCH   1  17
HETATM   17  C           1     -34.803  -3.486 -12.019  0.00  0.00     0.210 C 
BRANCH  17  18
HETATM   18  C           1     -33.755  -3.544 -10.935  0.00  0.00     0.198 C 
HETATM   19  O           1     -32.920  -2.620 -10.822  0.00  0.00    -0.646 OA
HETATM   20  O           1     -33.721  -4.516 -10.149  0.00  0.00    -0.646 OA
ENDBRANCH  17  18
BRANCH  17  21
HETATM   21  C           1     -34.281  -4.184 -13.268  0.00  0.00     0.217 C 
BRANCH  21  22
HETATM   22  O           1     -34.284  -3.284 -14.344  0.00  0.00    -0.287 OA
BRANCH  22  23
HETATM   23  P           1     -34.077  -3.930 -15.809  0.00  0.00     0.406 P 
HETATM   24  O           1     -34.943  -5.122 -15.949  0.00  0.00    -0.624 OA
HETATM   25  O           1     -32.662  -4.327 -15.977  0.00  0.00    -0.624 OA
BRANCH  23  26
HETATM   26  O           1     -34.471  -2.843 -16.937  0.00  0.00    -0.300 OA
HETATM   27  H           1     -33.695  -2.321 -17.054  0.00  0.00     0.223 HD
ENDBRANCH  23  26
ENDBRANCH  22  23
ENDBRANCH  21  22
ENDBRANCH  17  21
ENDBRANCH   1  17
TORSDOF 12
ENDMDL
MODEL 3
REMARK VINA RESULT:      -6.2      8.013     11.497
REMARK  12 active torsions:
REMARK  status: ('A' for Active; 'I' for Inactive)
REMARK    1  A    between atoms: C_2  and  C_4 
REMARK    2  A    between atoms: C_4  and  C_5 
REMARK    3  A    between atoms: C_4  and  N_11 
REMARK    4  A    between atoms: C_5  and  O_6 
REMARK    5  A    between atoms: O_6  and  P_7 
REMARK    6  A    between atoms: P_7  and  O_9 
REMARK       I    between atoms: N_11  and  C_12 
REMARK    7  A    between atoms: C_12  and  C_13 
REMARK    8  A    between atoms: C_13  and  C_14 
REMARK    9  A    between atoms: C_13  and  N_20 
REMARK   10  A    between atoms: C_14  and  O_15 
REMARK   11  A    between atoms: O_15  and  P_16 
REMARK   12  A    between atoms: P_16  and  O_17 
ROOT
HETATM    1  N           1     -27.470  -7.256 -19.466  0.00  0.00    -0.343 N 
HETATM    2  C           1     -28.544  -6.530 -19.024  0.00  0.00     0.251 C 
HETATM    3  O           1     -28.435  -5.341 -18.840  0.00  0.00    -0.271 OA
HETATM    4  H           1     -27.562  -8.252 -19.620  0.00  0.00     0.163 HD
ENDROOT
BRANCH   2   5
HETATM    5  C           1     -29.863  -7.215 -18.766  0.00  0.00     0.298 C 
BRANCH   5   6
HETATM    6  C           1     -30.355  -6.861 -17.369  0.00  0.00     0.224 C 
BRANCH   6   7
HETATM    7  O           1     -31.535  -6.108 -17.466  0.00  0.00    -0.287 OA
BRANCH   7   8
HETATM    8  P           1     -31.534  -4.687 -16.698  0.00  0.00     0.406 P 
HETATM    9  O           1     -31.292  -3.601 -17.672  0.00  0.00    -0.624 OA
HETATM   10  O           1     -30.466  -4.682 -15.673  0.00  0.00    -0.624 OA
BRANCH   8  11
HETATM   11  O           1     -32.964  -4.460 -15.984  0.00  0.00    -0.300 OA
HETATM   12  H           1     -33.302  -5.326 -15.831  0.00  0.00     0.223 HD
ENDBRANCH   8  11
ENDBRANCH   7   8
ENDBRANCH   6   7
ENDBRANCH   5   6
BRANCH   5  13
HETATM   13  N           1     -29.684  -8.700 -18.872  0.00  0.00    -0.064 N 
HETATM   14  H           1     -29.787  -8.994 -19.871  0.00  0.00     0.275 HD
HETATM   15  H           1     -28.732  -8.961 -18.530  0.00  0.00     0.275 HD
HETATM   16  H           1     -30.408  -9.180 -18.292  0.00  0.00     0.275 HD
ENDBRANCH   5  13
ENDBRANCH   2   5
BRANCH   1  17
HETATM   17  C           1     -26.202  -6.597 -19.714  0.00  0.00     0.210 C 
BRANCH  17  18
HETATM   18  C           1     -25.582  -7.159 -20.969  0.00  0.00     0.198 C 
HETATM   19  O           1     -25.855  -8.323 -21.335  0.00  0.00    -0.646 OA
HETATM   20  O           1     -24.794  -6.461 -21.644  0.00  0.00    -0.646 OA
ENDBRANCH  17  18
BRANCH  17  21
HETATM   21  C           1     -25.268  -6.835 -18.535  0.00  0.00     0.217 C 
BRANCH  21  22
HETATM   22  O           1     -25.716  -6.101 -17.426  0.00  0.00    -0.287 OA
BRANCH  22  23
HETATM   23  P           1     -25.380  -6.729 -15.978  0.00  0.00     0.406 P 
HETATM   24  O           1     -26.589  -7.387 -15.432  0.00  0.00    -0.624 OA
HETATM   25  O           1     -24.950  -5.652 -15.060  0.00  0.00    -0.624 OA
BRANCH  23  26
HETATM   26  O           1     -24.197  -7.819 -16.125  0.00  0.00    -0.300 OA
HETATM   27  H           1     -23.937  -7.775 -17.030  0.00  0.00     0.223 HD
ENDBRANCH  23  26
ENDBRANCH  22  23
ENDBRANCH  21  22
ENDBRANCH  17  21
ENDBRANCH   1  17
TORSDOF 12
ENDMDL
MODEL 4
REMARK VINA RESULT:      -6.2     12.352     14.518
REMARK  12 active torsions:
REMARK  status: ('A' for Active; 'I' for Inactive)
REMARK    1  A    between atoms: C_2  and  C_4 
REMARK    2  A    between atoms: C_4  and  C_5 
REMARK    3  A    between atoms: C_4  and  N_11 
REMARK    4  A    between atoms: C_5  and  O_6 
REMARK    5  A    between atoms: O_6  and  P_7 
REMARK    6  A    between atoms: P_7  and  O_9 
REMARK       I    between atoms: N_11  and  C_12 
REMARK    7  A    between atoms: C_12  and  C_13 
REMARK    8  A    between atoms: C_13  and  C_14 
REMARK    9  A    between atoms: C_13  and  N_20 
REMARK   10  A    between atoms: C_14  and  O_15 
REMARK   11  A    between atoms: O_15  and  P_16 
REMARK   12  A    between atoms: P_16  and  O_17 
ROOT
HETATM    1  N           1     -21.482  -4.451  -9.848  0.00  0.00    -0.343 N 
HETATM    2  C           1     -21.175  -4.350  -8.517  0.00  0.00     0.251 C 
HETATM    3  O           1     -21.649  -3.459  -7.853  0.00  0.00    -0.271 OA
HETATM    4  H           1     -21.086  -5.198 -10.404  0.00  0.00     0.163 HD
ENDROOT
BRANCH   2   5
HETATM    5  C           1     -20.243  -5.352  -7.880  0.00  0.00     0.298 C 
BRANCH   5   6
HETATM    6  C           1     -21.031  -6.249  -6.935  0.00  0.00     0.224 C 
BRANCH   6   7
HETATM    7  O           1     -20.654  -5.978  -5.611  0.00  0.00    -0.287 OA
BRANCH   7   8
HETATM    8  P           1     -21.649  -6.529  -4.465  0.00  0.00     0.406 P 
HETATM    9  O           1     -23.044  -6.177  -4.812  0.00  0.00    -0.624 OA
HETATM   10  O           1     -21.292  -5.915  -3.166  0.00  0.00    -0.624 OA
BRANCH   8  11
HETATM   11  O           1     -21.511  -8.134  -4.356  0.00  0.00    -0.300 OA
HETATM   12  H           1     -22.383  -8.464  -4.484  0.00  0.00     0.223 HD
ENDBRANCH   8  11
ENDBRANCH   7   8
ENDBRANCH   6   7
ENDBRANCH   5   6
BRANCH   5  13
HETATM   13  N           1     -19.180  -4.626  -7.112  0.00  0.00    -0.064 N 
HETATM   14  H           1     -19.621  -3.884  -6.522  0.00  0.00     0.275 HD
HETATM   15  H           1     -18.672  -5.301  -6.497  0.00  0.00     0.275 HD
HETATM   16  H           1     -18.507  -4.187  -7.780  0.00  0.00     0.275 HD
ENDBRANCH   5  13
ENDBRANCH   2   5
BRANCH   1  17
HETATM   17  C           1     -22.377  -3.488 -10.459  0.00  0.00     0.210 C 
BRANCH  17  18
HETATM   18  C           1     -23.807  -3.920 -10.237  0.00  0.00     0.198 C 
HETATM   19  O           1     -24.666  -3.082  -9.889  0.00  0.00    -0.646 OA
HETATM   20  O           1     -24.131  -5.116 -10.401  0.00  0.00    -0.646 OA
ENDBRANCH  17  18
BRANCH  17  21
HETATM   21  C           1     -22.096  -3.412 -11.954  0.00  0.00     0.217 C 
BRANCH  21  22
HETATM   22  O           1     -22.774  -2.314 -12.503  0.00  0.00    -0.287 OA
BRANCH  22  23
HETATM   23  P           1     -23.592  -2.595 -13.866  0.00  0.00     0.406 P 
HETATM   24  O           1     -24.411  -3.818 -13.706  0.00  0.00    -0.624 OA
HETATM   25  O           1     -22.640  -2.782 -14.983  0.00  0.00    -0.624 OA
BRANCH  23  26
HETATM   26  O           1     -24.558  -1.340 -14.183  0.00  0.00    -0.300 OA
HETATM   27  H           1     -24.149  -0.605 -13.758  0.00  0.00     0.223 HD
ENDBRANCH  23  26
ENDBRANCH  22  23
ENDBRANCH  21  22
ENDBRANCH  17  21
ENDBRANCH   1  17
TORSDOF 12
ENDMDL
MODEL 5
REMARK VINA RESULT:      -5.7     12.263     14.941
REMARK  12 active torsions:
REMARK  status: ('A' for Active; 'I' for Inactive)
REMARK    1  A    between atoms: C_2  and  C_4 
REMARK    2  A    between atoms: C_4  and  C_5 
REMARK    3  A    between atoms: C_4  and  N_11 
REMARK    4  A    between atoms: C_5  and  O_6 
REMARK    5  A    between atoms: O_6  and  P_7 
REMARK    6  A    between atoms: P_7  and  O_9 
REMARK       I    between atoms: N_11  and  C_12 
REMARK    7  A    between atoms: C_12  and  C_13 
REMARK    8  A    between atoms: C_13  and  C_14 
REMARK    9  A    between atoms: C_13  and  N_20 
REMARK   10  A    between atoms: C_14  and  O_15 
REMARK   11  A    between atoms: O_15  and  P_16 
REMARK   12  A    between atoms: P_16  and  O_17 
ROOT
HETATM    1  N           1     -21.998  -4.918  -8.789  0.00  0.00    -0.343 N 
HETATM    2  C           1     -23.302  -4.521  -8.654  0.00  0.00     0.251 C 
HETATM    3  O           1     -23.681  -4.030  -7.617  0.00  0.00    -0.271 OA
HETATM    4  H           1     -21.681  -5.328  -9.658  0.00  0.00     0.163 HD
ENDROOT
BRANCH   2   5
HETATM    5  C           1     -24.266  -4.697  -9.802  0.00  0.00     0.298 C 
BRANCH   5   6
HETATM    6  C           1     -23.503  -4.655 -11.119  0.00  0.00     0.224 C 
BRANCH   6   7
HETATM    7  O           1     -23.537  -3.353 -11.638  0.00  0.00    -0.287 OA
BRANCH   7   8
HETATM    8  P           1     -23.797  -3.230 -13.227  0.00  0.00     0.406 P 
HETATM    9  O           1     -22.542  -2.831 -13.902  0.00  0.00    -0.624 OA
HETATM   10  O           1     -24.840  -2.210 -13.478  0.00  0.00    -0.624 OA
BRANCH   8  11
HETATM   11  O           1     -24.289  -4.655 -13.805  0.00  0.00    -0.300 OA
HETATM   12  H           1     -23.619  -5.266 -13.552  0.00  0.00     0.223 HD
ENDBRANCH   8  11
ENDBRANCH   7   8
ENDBRANCH   6   7
ENDBRANCH   5   6
BRANCH   5  13
HETATM   13  N           1     -25.280  -3.593  -9.776  0.00  0.00    -0.064 N 
HETATM   14  H           1     -25.869  -3.640 -10.639  0.00  0.00     0.275 HD
HETATM   15  H           1     -25.890  -3.700  -8.934  0.00  0.00     0.275 HD
HETATM   16  H           1     -24.790  -2.671  -9.738  0.00  0.00     0.275 HD
ENDBRANCH   5  13
ENDBRANCH   2   5
BRANCH   1  17
HETATM   17  C           1     -21.072  -4.748  -7.686  0.00  0.00     0.210 C 
BRANCH  17  18
HETATM   18  C           1     -19.759  -4.220  -8.210  0.00  0.00     0.198 C 
HETATM   19  O           1     -19.700  -3.711  -9.350  0.00  0.00    -0.646 OA
HETATM   20  O           1     -18.730  -4.293  -7.504  0.00  0.00    -0.646 OA
ENDBRANCH  17  18
BRANCH  17  21
HETATM   21  C           1     -20.844  -6.091  -7.004  0.00  0.00     0.217 C 
BRANCH  21  22
HETATM   22  O           1     -20.737  -5.901  -5.619  0.00  0.00    -0.287 OA
BRANCH  22  23
HETATM   23  P           1     -21.950  -6.486  -4.727  0.00  0.00     0.406 P 
HETATM   24  O           1     -21.806  -6.017  -3.331  0.00  0.00    -0.624 OA
HETATM   25  O           1     -21.915  -7.964  -4.757  0.00  0.00    -0.624 OA
BRANCH  23  26
HETATM   26  O           1     -23.357  -5.966  -5.326  0.00  0.00    -0.300 OA
HETATM   27  H           1     -23.278  -5.027  -5.352  0.00  0.00     0.223 HD
ENDBRANCH  23  26
ENDBRANCH  22  23
ENDBRANCH  21  22
ENDBRANCH  17  21
ENDBRANCH   1  17
TORSDOF 12
ENDMDL
MODEL 6
REMARK VINA RESULT:      -5.6     13.174     15.878
REMARK  12 active torsions:
REMARK  status: ('A' for Active; 'I' for Inactive)
REMARK    1  A    between atoms: C_2  and  C_4 
REMARK    2  A    between atoms: C_4  and  C_5 
REMARK    3  A    between atoms: C_4  and  N_11 
REMARK    4  A    between atoms: C_5  and  O_6 
REMARK    5  A    between atoms: O_6  and  P_7 
REMARK    6  A    between atoms: P_7  and  O_9 
REMARK       I    between atoms: N_11  and  C_12 
REMARK    7  A    between atoms: C_12  and  C_13 
REMARK    8  A    between atoms: C_13  and  C_14 
REMARK    9  A    between atoms: C_13  and  N_20 
REMARK   10  A    between atoms: C_14  and  O_15 
REMARK   11  A    between atoms: O_15  and  P_16 
REMARK   12  A    between atoms: P_16  and  O_17 
ROOT
HETATM    1  N           1     -22.288  -5.486  -7.065  0.00  0.00    -0.343 N 
HETATM    2  C           1     -22.379  -4.347  -7.821  0.00  0.00     0.251 C 
HETATM    3  O           1     -21.729  -3.372  -7.525  0.00  0.00    -0.271 OA
HETATM    4  H           1     -22.832  -6.303  -7.314  0.00  0.00     0.163 HD
ENDROOT
BRANCH   2   5
HETATM    5  C           1     -23.292  -4.310  -9.021  0.00  0.00     0.298 C 
BRANCH   5   6
HETATM    6  C           1     -22.478  -3.994 -10.269  0.00  0.00     0.224 C 
BRANCH   6   7
HETATM    7  O           1     -23.129  -4.515 -11.397  0.00  0.00    -0.287 OA
BRANCH   7   8
HETATM    8  P           1     -23.821  -3.434 -12.378  0.00  0.00     0.406 P 
HETATM    9  O           1     -22.957  -2.238 -12.481  0.00  0.00    -0.624 OA
HETATM   10  O           1     -25.141  -3.047 -11.831  0.00  0.00    -0.624 OA
BRANCH   8  11
HETATM   11  O           1     -24.017  -4.085 -13.843  0.00  0.00    -0.300 OA
HETATM   12  H           1     -23.410  -4.803 -13.875  0.00  0.00     0.223 HD
ENDBRANCH   8  11
ENDBRANCH   7   8
ENDBRANCH   6   7
ENDBRANCH   5   6
BRANCH   5  13
HETATM   13  N           1     -24.334  -3.250  -8.823  0.00  0.00    -0.064 N 
HETATM   14  H           1     -24.348  -2.959  -7.818  0.00  0.00     0.275 HD
HETATM   15  H           1     -24.110  -2.424  -9.421  0.00  0.00     0.275 HD
HETATM   16  H           1     -25.271  -3.630  -9.087  0.00  0.00     0.275 HD
ENDBRANCH   5  13
ENDBRANCH   2   5
BRANCH   1  17
HETATM   17  C           1     -21.410  -5.522  -5.912  0.00  0.00     0.210 C 
BRANCH  17  18
HETATM   18  C           1     -20.098  -6.160  -6.298  0.00  0.00     0.198 C 
HETATM   19  O           1     -19.219  -5.483  -6.873  0.00  0.00    -0.646 OA
HETATM   20  O           1     -19.892  -7.367  -6.044  0.00  0.00    -0.646 OA
ENDBRANCH  17  18
BRANCH  17  21
HETATM   21  C           1     -22.064  -6.335  -4.803  0.00  0.00     0.217 C 
BRANCH  21  22
HETATM   22  O           1     -21.516  -5.966  -3.565  0.00  0.00    -0.287 OA
BRANCH  22  23
HETATM   23  P           1     -21.563  -7.089  -2.406  0.00  0.00     0.406 P 
HETATM   24  O           1     -20.220  -7.228  -1.799  0.00  0.00    -0.624 OA
HETATM   25  O           1     -21.976  -8.384  -2.991  0.00  0.00    -0.624 OA
BRANCH  23  26
HETATM   26  O           1     -22.622  -6.646  -1.271  0.00  0.00    -0.300 OA
HETATM   27  H           1     -23.302  -6.188  -1.736  0.00  0.00     0.223 HD
ENDBRANCH  23  26
ENDBRANCH  22  23
ENDBRANCH  21  22
ENDBRANCH  17  21
ENDBRANCH   1  17
TORSDOF 12
ENDMDL
MODEL 7
REMARK VINA RESULT:      -5.2     14.094     16.802
REMARK  12 active torsions:
REMARK  status: ('A' for Active; 'I' for Inactive)
REMARK    1  A    between atoms: C_2  and  C_4 
REMARK    2  A    between atoms: C_4  and  C_5 
REMARK    3  A    between atoms: C_4  and  N_11 
REMARK    4  A    between atoms: C_5  and  O_6 
REMARK    5  A    between atoms: O_6  and  P_7 
REMARK    6  A    between atoms: P_7  and  O_9 
REMARK       I    between atoms: N_11  and  C_12 
REMARK    7  A    between atoms: C_12  and  C_13 
REMARK    8  A    between atoms: C_13  and  C_14 
REMARK    9  A    between atoms: C_13  and  N_20 
REMARK   10  A    between atoms: C_14  and  O_15 
REMARK   11  A    between atoms: O_15  and  P_16 
REMARK   12  A    between atoms: P_16  and  O_17 
ROOT
HETATM    1  N           1     -21.200  -6.092  -6.464  0.00  0.00    -0.343 N 
HETATM    2  C           1     -20.607  -4.911  -6.822  0.00  0.00     0.251 C 
HETATM    3  O           1     -19.744  -4.432  -6.124  0.00  0.00    -0.271 OA
HETATM    4  H           1     -21.922  -6.493  -7.050  0.00  0.00     0.163 HD
ENDROOT
BRANCH   2   5
HETATM    5  C           1     -21.030  -4.207  -8.087  0.00  0.00     0.298 C 
BRANCH   5   6
HETATM    6  C           1     -22.519  -4.428  -8.318  0.00  0.00     0.224 C 
BRANCH   6   7
HETATM    7  O           1     -23.055  -3.327  -9.003  0.00  0.00    -0.287 OA
BRANCH   7   8
HETATM    8  P           1     -24.005  -3.670 -10.263  0.00  0.00     0.406 P 
HETATM    9  O           1     -23.538  -2.920 -11.450  0.00  0.00    -0.624 OA
HETATM   10  O           1     -25.398  -3.283  -9.949  0.00  0.00    -0.624 OA
BRANCH   8  11
HETATM   11  O           1     -23.944  -5.254 -10.569  0.00  0.00    -0.300 OA
HETATM   12  H           1     -23.694  -5.318 -11.475  0.00  0.00     0.223 HD
ENDBRANCH   8  11
ENDBRANCH   7   8
ENDBRANCH   6   7
ENDBRANCH   5   6
BRANCH   5  13
HETATM   13  N           1     -20.256  -4.756  -9.248  0.00  0.00    -0.064 N 
HETATM   14  H           1     -20.857  -4.746 -10.104  0.00  0.00     0.275 HD
HETATM   15  H           1     -19.409  -4.168  -9.412  0.00  0.00     0.275 HD
HETATM   16  H           1     -19.965  -5.738  -9.038  0.00  0.00     0.275 HD
ENDBRANCH   5  13
ENDBRANCH   2   5
BRANCH   1  17
HETATM   17  C           1     -20.793  -6.769  -5.248  0.00  0.00     0.210 C 
BRANCH  17  18
HETATM   18  C           1     -20.349  -8.173  -5.580  0.00  0.00     0.198 C 
HETATM   19  O           1     -21.168  -9.115  -5.531  0.00  0.00    -0.646 OA
HETATM   20  O           1     -19.161  -8.393  -5.903  0.00  0.00    -0.646 OA
ENDBRANCH  17  18
BRANCH  17  21
HETATM   21  C           1     -21.967  -6.822  -4.280  0.00  0.00     0.217 C 
BRANCH  21  22
HETATM   22  O           1     -21.535  -6.450  -2.999  0.00  0.00    -0.287 OA
BRANCH  22  23
HETATM   23  P           1     -21.469  -7.633  -1.902  0.00  0.00     0.406 P 
HETATM   24  O           1     -22.339  -7.291  -0.754  0.00  0.00    -0.624 OA
HETATM   25  O           1     -20.076  -7.794  -1.433  0.00  0.00    -0.624 OA
BRANCH  23  26
HETATM   26  O           1     -21.978  -9.013  -2.569  0.00  0.00    -0.300 OA
HETATM   27  H           1     -22.918  -8.942  -2.590  0.00  0.00     0.223 HD
ENDBRANCH  23  26
ENDBRANCH  22  23
ENDBRANCH  21  22
ENDBRANCH  17  21
ENDBRANCH   1  17
TORSDOF 12
ENDMDL
MODEL 8
REMARK VINA RESULT:      -5.0     14.795     17.355
REMARK  12 active torsions:
REMARK  status: ('A' for Active; 'I' for Inactive)
REMARK    1  A    between atoms: C_2  and  C_4 
REMARK    2  A    between atoms: C_4  and  C_5 
REMARK    3  A    between atoms: C_4  and  N_11 
REMARK    4  A    between atoms: C_5  and  O_6 
REMARK    5  A    between atoms: O_6  and  P_7 
REMARK    6  A    between atoms: P_7  and  O_9 
REMARK       I    between atoms: N_11  and  C_12 
REMARK    7  A    between atoms: C_12  and  C_13 
REMARK    8  A    between atoms: C_13  and  C_14 
REMARK    9  A    between atoms: C_13  and  N_20 
REMARK   10  A    between atoms: C_14  and  O_15 
REMARK   11  A    between atoms: O_15  and  P_16 
REMARK   12  A    between atoms: P_16  and  O_17 
ROOT
HETATM    1  N           1     -20.995  -6.841  -4.440  0.00  0.00    -0.343 N 
HETATM    2  C           1     -21.787  -6.155  -5.322  0.00  0.00     0.251 C 
HETATM    3  O           1     -22.989  -6.271  -5.272  0.00  0.00    -0.271 OA
HETATM    4  H           1     -19.989  -6.743  -4.482  0.00  0.00     0.163 HD
ENDROOT
BRANCH   2   5
HETATM    5  C           1     -21.159  -5.257  -6.359  0.00  0.00     0.298 C 
BRANCH   5   6
HETATM    6  C           1     -22.252  -4.575  -7.171  0.00  0.00     0.224 C 
BRANCH   6   7
HETATM    7  O           1     -22.220  -5.050  -8.490  0.00  0.00    -0.287 OA
BRANCH   7   8
HETATM    8  P           1     -23.154  -4.265  -9.548  0.00  0.00     0.406 P 
HETATM    9  O           1     -23.877  -5.245 -10.388  0.00  0.00    -0.624 OA
HETATM   10  O           1     -22.310  -3.404 -10.407  0.00  0.00    -0.624 OA
BRANCH   8  11
HETATM   11  O           1     -24.220  -3.350  -8.752  0.00  0.00    -0.300 OA
HETATM   12  H           1     -23.706  -2.672  -8.348  0.00  0.00     0.223 HD
ENDBRANCH   8  11
ENDBRANCH   7   8
ENDBRANCH   6   7
ENDBRANCH   5   6
BRANCH   5  13
HETATM   13  N           1     -20.295  -6.076  -7.272  0.00  0.00    -0.064 N 
HETATM   14  H           1     -20.739  -6.129  -8.217  0.00  0.00     0.275 HD
HETATM   15  H           1     -19.354  -5.629  -7.355  0.00  0.00     0.275 HD
HETATM   16  H           1     -20.191  -7.039  -6.881  0.00  0.00     0.275 HD
ENDBRANCH   5  13
ENDBRANCH   2   5
BRANCH   1  17
HETATM   17  C           1     -21.600  -7.704  -3.444  0.00  0.00     0.210 C 
BRANCH  17  18
HETATM   18  C           1     -21.681  -6.970  -2.127  0.00  0.00     0.198 C 
HETATM   19  O           1     -22.032  -5.771  -2.100  0.00  0.00    -0.646 OA
HETATM   20  O           1     -21.396  -7.563  -1.063  0.00  0.00    -0.646 OA
ENDBRANCH  17  18
BRANCH  17  21
HETATM   21  C           1     -20.750  -8.957  -3.276  0.00  0.00     0.217 C 
BRANCH  21  22
HETATM   22  O           1     -19.422  -8.672  -3.624  0.00  0.00    -0.287 OA
BRANCH  22  23
HETATM   23  P           1     -18.838  -9.467  -4.903  0.00  0.00     0.406 P 
HETATM   24  O           1     -17.415  -9.802  -4.668  0.00  0.00    -0.624 OA
HETATM   25  O           1     -18.951  -8.614  -6.106  0.00  0.00    -0.624 OA
BRANCH  23  26
HETATM   26  O           1     -19.681 -10.826  -5.121  0.00  0.00    -0.300 OA
HETATM   27  H           1     -20.465 -10.558  -5.570  0.00  0.00     0.223 HD
ENDBRANCH  23  26
ENDBRANCH  22  23
ENDBRANCH  21  22
ENDBRANCH  17  21
ENDBRANCH   1  17
TORSDOF 12
ENDMDL
MODEL 9
REMARK VINA RESULT:      -5.0     11.104     13.646
REMARK  12 active torsions:
REMARK  status: ('A' for Active; 'I' for Inactive)
REMARK    1  A    between atoms: C_2  and  C_4 
REMARK    2  A    between atoms: C_4  and  C_5 
REMARK    3  A    between atoms: C_4  and  N_11 
REMARK    4  A    between atoms: C_5  and  O_6 
REMARK    5  A    between atoms: O_6  and  P_7 
REMARK    6  A    between atoms: P_7  and  O_9 
REMARK       I    between atoms: N_11  and  C_12 
REMARK    7  A    between atoms: C_12  and  C_13 
REMARK    8  A    between atoms: C_13  and  C_14 
REMARK    9  A    between atoms: C_13  and  N_20 
REMARK   10  A    between atoms: C_14  and  O_15 
REMARK   11  A    between atoms: O_15  and  P_16 
REMARK   12  A    between atoms: P_16  and  O_17 
ROOT
HETATM    1  N           1     -22.589  -4.156 -11.950  0.00  0.00    -0.343 N 
HETATM    2  C           1     -23.677  -3.485 -12.442  0.00  0.00     0.251 C 
HETATM    3  O           1     -24.247  -2.671 -11.754  0.00  0.00    -0.271 OA
HETATM    4  H           1     -22.112  -4.837 -12.527  0.00  0.00     0.163 HD
ENDROOT
BRANCH   2   5
HETATM    5  C           1     -24.165  -3.763 -13.842  0.00  0.00     0.298 C 
BRANCH   5   6
HETATM    6  C           1     -24.330  -5.265 -14.034  0.00  0.00     0.224 C 
BRANCH   6   7
HETATM    7  O           1     -25.609  -5.533 -14.544  0.00  0.00    -0.287 OA
BRANCH   7   8
HETATM    8  P           1     -25.683  -6.625 -15.732  0.00  0.00     0.406 P 
HETATM    9  O           1     -25.877  -5.934 -17.025  0.00  0.00    -0.624 OA
HETATM   10  O           1     -26.818  -7.544 -15.486  0.00  0.00    -0.624 OA
BRANCH   8  11
HETATM   11  O           1     -24.308  -7.471 -15.774  0.00  0.00    -0.300 OA
HETATM   12  H           1     -24.550  -8.344 -15.521  0.00  0.00     0.223 HD
ENDBRANCH   8  11
ENDBRANCH   7   8
ENDBRANCH   6   7
ENDBRANCH   5   6
BRANCH   5  13
HETATM   13  N           1     -23.169  -3.239 -14.832  0.00  0.00    -0.064 N 
HETATM   14  H           1     -22.235  -3.146 -14.371  0.00  0.00     0.275 HD
HETATM   15  H           1     -23.095  -3.901 -15.637  0.00  0.00     0.275 HD
HETATM   16  H           1     -23.481  -2.303 -15.177  0.00  0.00     0.275 HD
ENDBRANCH   5  13
ENDBRANCH   2   5
BRANCH   1  17
HETATM   17  C           1     -22.120  -3.888 -10.605  0.00  0.00     0.210 C 
BRANCH  17  18
HETATM   18  C           1     -20.612  -3.837 -10.600  0.00  0.00     0.198 C 
HETATM   19  O           1     -20.016  -2.887 -11.152  0.00  0.00    -0.646 OA
HETATM   20  O           1     -19.957  -4.746 -10.043  0.00  0.00    -0.646 OA
ENDBRANCH  17  18
BRANCH  17  21
HETATM   21  C           1     -22.594  -4.996  -9.673  0.00  0.00     0.217 C 
BRANCH  21  22
HETATM   22  O           1     -22.949  -4.445  -8.433  0.00  0.00    -0.287 OA
BRANCH  22  23
HETATM   23  P           1     -21.986  -4.816  -7.191  0.00  0.00     0.406 P 
HETATM   24  O           1     -22.811  -5.203  -6.025  0.00  0.00    -0.624 OA
HETATM   25  O           1     -21.159  -3.641  -6.841  0.00  0.00    -0.624 OA
BRANCH  23  26
HETATM   26  O           1     -21.027  -6.048  -7.604  0.00  0.00    -0.300 OA
HETATM   27  H           1     -20.481  -5.711  -8.295  0.00  0.00     0.223 HD
ENDBRANCH  23  26
ENDBRANCH  22  23
ENDBRANCH  21  22
ENDBRANCH  17  21
ENDBRANCH   1  17
TORSDOF 12
ENDMDL
