MODEL 1
REMARK VINA RESULT:      -5.4      0.000      0.000
REMARK  6 active torsions:
REMARK  status: ('A' for Active; 'I' for Inactive)
REMARK    1  A    between atoms: C_5  and  C_13 
REMARK    2  A    between atoms: C_5  and  N_16 
REMARK    3  A    between atoms: C_6  and  C_7 
REMARK    4  A    between atoms: C_6  and  C_17 
REMARK    5  A    between atoms: C_6  and  N_12 
REMARK    6  A    between atoms: C_7  and  O_8 
REMARK       I    between atoms: N_12  and  C_13 
ROOT
HETATM    1  H           1     -34.161  -1.564 -14.061  0.00  0.00     0.163 HD
HETATM    2  O           1     -35.867  -2.215 -11.511  0.00  0.00    -0.271 OA
HETATM    3  N           1     -34.845  -1.420 -13.330  0.00  0.00    -0.343 N 
HETATM    4  C           1     -35.049  -2.387 -12.382  0.00  0.00     0.248 C 
ENDROOT
BRANCH   3   5
HETATM    5  C           1     -35.610  -0.189 -13.286  0.00  0.00     0.209 C 
BRANCH   5   6
HETATM    6  C           1     -34.753   0.960 -13.800  0.00  0.00     0.200 C 
BRANCH   6   7
HETATM    7  O           1     -35.474   1.690 -14.756  0.00  0.00    -0.398 OA
HETATM    8  H           1     -34.849   2.221 -15.222  0.00  0.00     0.209 HD
ENDBRANCH   6   7
ENDBRANCH   5   6
BRANCH   5   9
HETATM    9  C           1     -36.837  -0.329 -14.154  0.00  0.00     0.198 C 
HETATM   10  O           1     -36.749  -0.868 -15.278  0.00  0.00    -0.646 OA
HETATM   11  O           1     -37.941   0.091 -13.748  0.00  0.00    -0.646 OA
ENDBRANCH   5   9
ENDBRANCH   3   5
BRANCH   4  12
HETATM   12  C           1     -34.252  -3.668 -12.428  0.00  0.00     0.270 C 
HETATM   13  C           1     -33.006  -3.521 -11.567  0.00  0.00     0.050 C 
BRANCH  12  14
HETATM   14  N           1     -33.850  -3.955 -13.845  0.00  0.00    -0.067 N 
HETATM   15  H           1     -32.870  -4.317 -13.862  0.00  0.00     0.275 HD
HETATM   16  H           1     -33.906  -3.076 -14.407  0.00  0.00     0.275 HD
HETATM   17  H           1     -34.494  -4.670 -14.252  0.00  0.00     0.275 HD
ENDBRANCH  12  14
ENDBRANCH   4  12
TORSDOF 6
ENDMDL
MODEL 2
REMARK VINA RESULT:      -5.4      1.754      2.351
REMARK  6 active torsions:
REMARK  status: ('A' for Active; 'I' for Inactive)
REMARK    1  A    between atoms: C_5  and  C_13 
REMARK    2  A    between atoms: C_5  and  N_16 
REMARK    3  A    between atoms: C_6  and  C_7 
REMARK    4  A    between atoms: C_6  and  C_17 
REMARK    5  A    between atoms: C_6  and  N_12 
REMARK    6  A    between atoms: C_7  and  O_8 
REMARK       I    between atoms: N_12  and  C_13 
ROOT
HETATM    1  H           1     -33.940  -0.620 -14.225  0.00  0.00     0.163 HD
HETATM    2  O           1     -36.522  -1.318 -12.587  0.00  0.00    -0.271 OA
HETATM    3  N           1     -34.928  -0.686 -14.017  0.00  0.00    -0.343 N 
HETATM    4  C           1     -35.343  -1.238 -12.834  0.00  0.00     0.248 C 
ENDROOT
BRANCH   3   5
HETATM    5  C           1     -35.904  -0.197 -14.971  0.00  0.00     0.209 C 
BRANCH   5   6
HETATM    6  C           1     -35.583   1.247 -15.331  0.00  0.00     0.200 C 
BRANCH   6   7
HETATM    7  O           1     -36.653   1.801 -16.047  0.00  0.00    -0.398 OA
HETATM    8  H           1     -36.866   2.619 -15.631  0.00  0.00     0.209 HD
ENDBRANCH   6   7
ENDBRANCH   5   6
BRANCH   5   9
HETATM    9  C           1     -35.857  -1.048 -16.216  0.00  0.00     0.198 C 
HETATM   10  O           1     -36.625  -0.801 -17.171  0.00  0.00    -0.646 OA
HETATM   11  O           1     -35.050  -1.999 -16.294  0.00  0.00    -0.646 OA
ENDBRANCH   5   9
ENDBRANCH   3   5
BRANCH   4  12
HETATM   12  C           1     -34.327  -1.747 -11.841  0.00  0.00     0.270 C 
HETATM   13  C           1     -34.048  -3.219 -12.111  0.00  0.00     0.050 C 
BRANCH  12  14
HETATM   14  N           1     -34.864  -1.587 -10.450  0.00  0.00    -0.067 N 
HETATM   15  H           1     -34.679  -0.615 -10.115  0.00  0.00     0.275 HD
HETATM   16  H           1     -34.395  -2.270  -9.815  0.00  0.00     0.275 HD
HETATM   17  H           1     -35.894  -1.765 -10.452  0.00  0.00     0.275 HD
ENDBRANCH  12  14
ENDBRANCH   4  12
TORSDOF 6
ENDMDL
MODEL 3
REMARK VINA RESULT:      -5.2      2.093      4.748
REMARK  6 active torsions:
REMARK  status: ('A' for Active; 'I' for Inactive)
REMARK    1  A    between atoms: C_5  and  C_13 
REMARK    2  A    between atoms: C_5  and  N_16 
REMARK    3  A    between atoms: C_6  and  C_7 
REMARK    4  A    between atoms: C_6  and  C_17 
REMARK    5  A    between atoms: C_6  and  N_12 
REMARK    6  A    between atoms: C_7  and  O_8 
REMARK       I    between atoms: N_12  and  C_13 
ROOT
HETATM    1  H           1     -33.832  -1.775 -13.889  0.00  0.00     0.163 HD
HETATM    2  O           1     -36.679  -1.134 -12.740  0.00  0.00    -0.271 OA
HETATM    3  N           1     -34.645  -1.869 -13.294  0.00  0.00    -0.343 N 
HETATM    4  C           1     -35.709  -1.022 -13.451  0.00  0.00     0.248 C 
ENDROOT
BRANCH   3   5
HETATM    5  C           1     -34.682  -2.900 -12.276  0.00  0.00     0.209 C 
BRANCH   5   6
HETATM    6  C           1     -34.477  -4.262 -12.925  0.00  0.00     0.200 C 
BRANCH   6   7
HETATM    7  O           1     -33.607  -4.135 -14.016  0.00  0.00    -0.398 OA
HETATM    8  H           1     -34.068  -4.458 -14.772  0.00  0.00     0.209 HD
ENDBRANCH   6   7
ENDBRANCH   5   6
BRANCH   5   9
HETATM    9  C           1     -33.586  -2.652 -11.270  0.00  0.00     0.198 C 
HETATM   10  O           1     -33.745  -1.801 -10.368  0.00  0.00    -0.646 OA
HETATM   11  O           1     -32.518  -3.298 -11.337  0.00  0.00    -0.646 OA
ENDBRANCH   5   9
ENDBRANCH   3   5
BRANCH   4  12
HETATM   12  C           1     -35.670   0.051 -14.511  0.00  0.00     0.270 C 
HETATM   13  C           1     -34.765   1.186 -14.051  0.00  0.00     0.050 C 
BRANCH  12  14
HETATM   14  N           1     -37.055   0.579 -14.740  0.00  0.00    -0.067 N 
HETATM   15  H           1     -37.212   0.714 -15.764  0.00  0.00     0.275 HD
HETATM   16  H           1     -37.165   1.493 -14.247  0.00  0.00     0.275 HD
HETATM   17  H           1     -37.754  -0.103 -14.366  0.00  0.00     0.275 HD
ENDBRANCH  12  14
ENDBRANCH   4  12
TORSDOF 6
ENDMDL
MODEL 4
REMARK VINA RESULT:      -5.0      1.854      2.656
REMARK  6 active torsions:
REMARK  status: ('A' for Active; 'I' for Inactive)
REMARK    1  A    between atoms: C_5  and  C_13 
REMARK    2  A    between atoms: C_5  and  N_16 
REMARK    3  A    between atoms: C_6  and  C_7 
REMARK    4  A    between atoms: C_6  and  C_17 
REMARK    5  A    between atoms: C_6  and  N_12 
REMARK    6  A    between atoms: C_7  and  O_8 
REMARK       I    between atoms: N_12  and  C_13 
ROOT
HETATM    1  H           1     -35.476  -2.116 -14.169  0.00  0.00     0.163 HD
HETATM    2  O           1     -34.897   0.688 -12.888  0.00  0.00    -0.271 OA
HETATM    3  N           1     -35.416  -1.108 -14.110  0.00  0.00    -0.343 N 
HETATM    4  C           1     -34.968  -0.516 -12.959  0.00  0.00     0.248 C 
ENDROOT
BRANCH   3   5
HETATM    5  C           1     -35.803  -0.290 -15.243  0.00  0.00     0.209 C 
BRANCH   5   6
HETATM    6  C           1     -35.428  -1.003 -16.535  0.00  0.00     0.200 C 
BRANCH   6   7
HETATM    7  O           1     -36.472  -0.875 -17.461  0.00  0.00    -0.398 OA
HETATM    8  H           1     -36.366  -0.037 -17.879  0.00  0.00     0.209 HD
ENDBRANCH   6   7
ENDBRANCH   5   6
BRANCH   5   9
HETATM    9  C           1     -37.294  -0.061 -15.210  0.00  0.00     0.198 C 
HETATM   10  O           1     -37.792   0.906 -15.825  0.00  0.00    -0.646 OA
HETATM   11  O           1     -38.032  -0.839 -14.568  0.00  0.00    -0.646 OA
ENDBRANCH   5   9
ENDBRANCH   3   5
BRANCH   4  12
HETATM   12  C           1     -34.565  -1.367 -11.780  0.00  0.00     0.270 C 
HETATM   13  C           1     -34.642  -2.838 -12.167  0.00  0.00     0.050 C 
BRANCH  12  14
HETATM   14  N           1     -35.494  -1.103 -10.633  0.00  0.00    -0.067 N 
HETATM   15  H           1     -36.046  -1.965 -10.426  0.00  0.00     0.275 HD
HETATM   16  H           1     -36.145  -0.324 -10.884  0.00  0.00     0.275 HD
HETATM   17  H           1     -34.939  -0.833  -9.790  0.00  0.00     0.275 HD
ENDBRANCH  12  14
ENDBRANCH   4  12
TORSDOF 6
ENDMDL
MODEL 5
REMARK VINA RESULT:      -5.0     11.943     13.553
REMARK  6 active torsions:
REMARK  status: ('A' for Active; 'I' for Inactive)
REMARK    1  A    between atoms: C_5  and  C_13 
REMARK    2  A    between atoms: C_5  and  N_16 
REMARK    3  A    between atoms: C_6  and  C_7 
REMARK    4  A    between atoms: C_6  and  C_17 
REMARK    5  A    between atoms: C_6  and  N_12 
REMARK    6  A    between atoms: C_7  and  O_8 
REMARK       I    between atoms: N_12  and  C_13 
ROOT
HETATM    1  H           1     -23.922  -4.199  -9.016  0.00  0.00     0.163 HD
HETATM    2  O           1     -20.840  -3.618  -9.023  0.00  0.00    -0.271 OA
HETATM    3  N           1     -23.024  -3.910  -9.382  0.00  0.00    -0.343 N 
HETATM    4  C           1     -21.911  -3.964  -8.586  0.00  0.00     0.248 C 
ENDROOT
BRANCH   3   5
HETATM    5  C           1     -22.916  -3.438 -10.749  0.00  0.00     0.209 C 
BRANCH   5   6
HETATM    6  C           1     -22.204  -4.486 -11.593  0.00  0.00     0.200 C 
BRANCH   6   7
HETATM    7  O           1     -21.664  -3.880 -12.736  0.00  0.00    -0.398 OA
HETATM    8  H           1     -22.096  -3.048 -12.834  0.00  0.00     0.209 HD
ENDBRANCH   6   7
ENDBRANCH   5   6
BRANCH   5   9
HETATM    9  C           1     -24.297  -3.196 -11.307  0.00  0.00     0.198 C 
HETATM   10  O           1     -25.290  -3.214 -10.547  0.00  0.00    -0.646 OA
HETATM   11  O           1     -24.449  -2.977 -12.527  0.00  0.00    -0.646 OA
ENDBRANCH   5   9
ENDBRANCH   3   5
BRANCH   4  12
HETATM   12  C           1     -22.024  -4.455  -7.164  0.00  0.00     0.270 C 
HETATM   13  C           1     -21.333  -5.805  -7.037  0.00  0.00     0.050 C 
BRANCH  12  14
HETATM   14  N           1     -23.472  -4.598  -6.799  0.00  0.00    -0.067 N 
HETATM   15  H           1     -23.925  -3.656  -6.795  0.00  0.00     0.275 HD
HETATM   16  H           1     -23.551  -5.027  -5.849  0.00  0.00     0.275 HD
HETATM   17  H           1     -23.949  -5.211  -7.497  0.00  0.00     0.275 HD
ENDBRANCH  12  14
ENDBRANCH   4  12
TORSDOF 6
ENDMDL
MODEL 6
REMARK VINA RESULT:      -5.0      1.841      2.321
REMARK  6 active torsions:
REMARK  status: ('A' for Active; 'I' for Inactive)
REMARK    1  A    between atoms: C_5  and  C_13 
REMARK    2  A    between atoms: C_5  and  N_16 
REMARK    3  A    between atoms: C_6  and  C_7 
REMARK    4  A    between atoms: C_6  and  C_17 
REMARK    5  A    between atoms: C_6  and  N_12 
REMARK    6  A    between atoms: C_7  and  O_8 
REMARK       I    between atoms: N_12  and  C_13 
ROOT
HETATM    1  H           1     -35.438  -2.702 -13.081  0.00  0.00     0.163 HD
HETATM    2  O           1     -33.178  -2.288 -10.946  0.00  0.00    -0.271 OA
HETATM    3  N           1     -34.842  -2.204 -12.433  0.00  0.00    -0.343 N 
HETATM    4  C           1     -33.889  -2.882 -11.721  0.00  0.00     0.248 C 
ENDROOT
BRANCH   3   5
HETATM    5  C           1     -34.997  -0.773 -12.258  0.00  0.00     0.209 C 
BRANCH   5   6
HETATM    6  C           1     -35.180  -0.112 -13.617  0.00  0.00     0.200 C 
BRANCH   6   7
HETATM    7  O           1     -36.444   0.491 -13.679  0.00  0.00    -0.398 OA
HETATM    8  H           1     -36.483   0.961 -14.494  0.00  0.00     0.209 HD
ENDBRANCH   6   7
ENDBRANCH   5   6
BRANCH   5   9
HETATM    9  C           1     -36.207  -0.501 -11.399  0.00  0.00     0.198 C 
HETATM   10  O           1     -37.183  -1.281 -11.429  0.00  0.00    -0.646 OA
HETATM   11  O           1     -36.234   0.504 -10.656  0.00  0.00    -0.646 OA
ENDBRANCH   5   9
ENDBRANCH   3   5
BRANCH   4  12
HETATM   12  C           1     -33.728  -4.371 -11.903  0.00  0.00     0.270 C 
HETATM   13  C           1     -34.108  -5.084 -10.613  0.00  0.00     0.050 C 
BRANCH  12  14
HETATM   14  N           1     -32.301  -4.681 -12.244  0.00  0.00    -0.067 N 
HETATM   15  H           1     -32.170  -5.717 -12.288  0.00  0.00     0.275 HD
HETATM   16  H           1     -31.673  -4.281 -11.511  0.00  0.00     0.275 HD
HETATM   17  H           1     -32.065  -4.260 -13.171  0.00  0.00     0.275 HD
ENDBRANCH  12  14
ENDBRANCH   4  12
TORSDOF 6
ENDMDL
MODEL 7
REMARK VINA RESULT:      -5.0     12.769     14.462
REMARK  6 active torsions:
REMARK  status: ('A' for Active; 'I' for Inactive)
REMARK    1  A    between atoms: C_5  and  C_13 
REMARK    2  A    between atoms: C_5  and  N_16 
REMARK    3  A    between atoms: C_6  and  C_7 
REMARK    4  A    between atoms: C_6  and  C_17 
REMARK    5  A    between atoms: C_6  and  N_12 
REMARK    6  A    between atoms: C_7  and  O_8 
REMARK       I    between atoms: N_12  and  C_13 
ROOT
HETATM    1  H           1     -21.866  -5.720  -9.262  0.00  0.00     0.163 HD
HETATM    2  O           1     -21.499  -3.269  -7.339  0.00  0.00    -0.271 OA
HETATM    3  N           1     -21.877  -4.753  -8.964  0.00  0.00    -0.343 N 
HETATM    4  C           1     -21.486  -4.423  -7.694  0.00  0.00     0.248 C 
ENDROOT
BRANCH   3   5
HETATM    5  C           1     -22.307  -3.716  -9.883  0.00  0.00     0.209 C 
BRANCH   5   6
HETATM    6  C           1     -21.443  -3.758 -11.136  0.00  0.00     0.200 C 
BRANCH   6   7
HETATM    7  O           1     -22.138  -4.410 -12.164  0.00  0.00    -0.398 OA
HETATM    8  H           1     -22.442  -3.741 -12.755  0.00  0.00     0.209 HD
ENDBRANCH   6   7
ENDBRANCH   5   6
BRANCH   5   9
HETATM    9  C           1     -23.750  -3.947 -10.259  0.00  0.00     0.198 C 
HETATM   10  O           1     -24.261  -5.079 -10.114  0.00  0.00    -0.646 OA
HETATM   11  O           1     -24.435  -3.007 -10.715  0.00  0.00    -0.646 OA
ENDBRANCH   5   9
ENDBRANCH   3   5
BRANCH   4  12
HETATM   12  C           1     -21.038  -5.502  -6.739  0.00  0.00     0.270 C 
HETATM   13  C           1     -20.446  -4.860  -5.491  0.00  0.00     0.050 C 
BRANCH  12  14
HETATM   14  N           1     -19.999  -6.356  -7.402  0.00  0.00    -0.067 N 
HETATM   15  H           1     -19.499  -6.921  -6.679  0.00  0.00     0.275 HD
HETATM   16  H           1     -19.314  -5.746  -7.903  0.00  0.00     0.275 HD
HETATM   17  H           1     -20.460  -6.996  -8.088  0.00  0.00     0.275 HD
ENDBRANCH  12  14
ENDBRANCH   4  12
TORSDOF 6
ENDMDL
MODEL 8
REMARK VINA RESULT:      -4.9      2.838      4.760
REMARK  6 active torsions:
REMARK  status: ('A' for Active; 'I' for Inactive)
REMARK    1  A    between atoms: C_5  and  C_13 
REMARK    2  A    between atoms: C_5  and  N_16 
REMARK    3  A    between atoms: C_6  and  C_7 
REMARK    4  A    between atoms: C_6  and  C_17 
REMARK    5  A    between atoms: C_6  and  N_12 
REMARK    6  A    between atoms: C_7  and  O_8 
REMARK       I    between atoms: N_12  and  C_13 
ROOT
HETATM    1  H           1     -35.765  -3.467 -11.119  0.00  0.00     0.163 HD
HETATM    2  O           1     -34.828  -0.521 -11.652  0.00  0.00    -0.271 OA
HETATM    3  N           1     -35.197  -2.717 -11.493  0.00  0.00    -0.343 N 
HETATM    4  C           1     -35.505  -1.415 -11.204  0.00  0.00     0.248 C 
ENDROOT
BRANCH   3   5
HETATM    5  C           1     -34.057  -3.023 -12.335  0.00  0.00     0.209 C 
BRANCH   5   6
HETATM    6  C           1     -32.928  -3.581 -11.479  0.00  0.00     0.200 C 
BRANCH   6   7
HETATM    7  O           1     -32.307  -4.641 -12.155  0.00  0.00    -0.398 OA
HETATM    8  H           1     -32.832  -5.409 -11.998  0.00  0.00     0.209 HD
ENDBRANCH   6   7
ENDBRANCH   5   6
BRANCH   5   9
HETATM    9  C           1     -34.457  -4.047 -13.369  0.00  0.00     0.198 C 
HETATM   10  O           1     -34.173  -3.864 -14.573  0.00  0.00    -0.646 OA
HETATM   11  O           1     -35.071  -5.079 -13.022  0.00  0.00    -0.646 OA
ENDBRANCH   5   9
ENDBRANCH   3   5
BRANCH   4  12
HETATM   12  C           1     -36.692  -1.097 -10.328  0.00  0.00     0.270 C 
HETATM   13  C           1     -37.716  -0.305 -11.129  0.00  0.00     0.050 C 
BRANCH  12  14
HETATM   14  N           1     -36.240  -0.284  -9.152  0.00  0.00    -0.067 N 
HETATM   15  H           1     -36.337   0.733  -9.373  0.00  0.00     0.275 HD
HETATM   16  H           1     -35.239  -0.501  -8.942  0.00  0.00     0.275 HD
HETATM   17  H           1     -36.828  -0.518  -8.320  0.00  0.00     0.275 HD
ENDBRANCH  12  14
ENDBRANCH   4  12
TORSDOF 6
ENDMDL
MODEL 9
REMARK VINA RESULT:      -4.9     12.422     14.116
REMARK  6 active torsions:
REMARK  status: ('A' for Active; 'I' for Inactive)
REMARK    1  A    between atoms: C_5  and  C_13 
REMARK    2  A    between atoms: C_5  and  N_16 
REMARK    3  A    between atoms: C_6  and  C_7 
REMARK    4  A    between atoms: C_6  and  C_17 
REMARK    5  A    between atoms: C_6  and  N_12 
REMARK    6  A    between atoms: C_7  and  O_8 
REMARK       I    between atoms: N_12  and  C_13 
ROOT
HETATM    1  H           1     -22.848  -3.447  -8.870  0.00  0.00     0.163 HD
HETATM    2  O           1     -20.261  -4.738 -10.087  0.00  0.00    -0.271 OA
HETATM    3  N           1     -22.268  -3.917  -9.552  0.00  0.00    -0.343 N 
HETATM    4  C           1     -20.953  -4.177  -9.271  0.00  0.00     0.248 C 
ENDROOT
BRANCH   3   5
HETATM    5  C           1     -22.829  -4.316 -10.828  0.00  0.00     0.209 C 
BRANCH   5   6
HETATM    6  C           1     -24.022  -5.234 -10.594  0.00  0.00     0.200 C 
BRANCH   6   7
HETATM    7  O           1     -24.901  -4.636  -9.681  0.00  0.00    -0.398 OA
HETATM    8  H           1     -24.373  -4.283  -8.984  0.00  0.00     0.209 HD
ENDBRANCH   6   7
ENDBRANCH   5   6
BRANCH   5   9
HETATM    9  C           1     -23.279  -3.090 -11.584  0.00  0.00     0.198 C 
HETATM   10  O           1     -22.432  -2.296 -12.049  0.00  0.00    -0.646 OA
HETATM   11  O           1     -24.498  -2.867 -11.746  0.00  0.00    -0.646 OA
ENDBRANCH   5   9
ENDBRANCH   3   5
BRANCH   4  12
HETATM   12  C           1     -20.370  -3.762  -7.943  0.00  0.00     0.270 C 
HETATM   13  C           1     -19.609  -4.932  -7.335  0.00  0.00     0.050 C 
BRANCH  12  14
HETATM   14  N           1     -21.477  -3.351  -7.018  0.00  0.00    -0.067 N 
HETATM   15  H           1     -21.376  -3.856  -6.109  0.00  0.00     0.275 HD
HETATM   16  H           1     -22.398  -3.591  -7.449  0.00  0.00     0.275 HD
HETATM   17  H           1     -21.428  -2.321  -6.852  0.00  0.00     0.275 HD
ENDBRANCH  12  14
ENDBRANCH   4  12
TORSDOF 6
ENDMDL
