MODEL 1
REMARK VINA RESULT:      -6.7      0.000      0.000
REMARK  11 active torsions:
REMARK  status: ('A' for Active; 'I' for Inactive)
REMARK    1  A    between atoms: N_1  and  C_23 
REMARK    2  A    between atoms: C_6  and  C_7 
REMARK    3  A    between atoms: C_7  and  C_28 
REMARK    4  A    between atoms: C_10  and  C_19 
REMARK    5  A    between atoms: C_10  and  N_14 
REMARK    6  A    between atoms: C_19  and  C_25 
REMARK    7  A    between atoms: N_21  and  C_28 
REMARK       I    between atoms: N_21  and  C_22 
REMARK    8  A    between atoms: C_22  and  C_23 
REMARK    9  A    between atoms: C_23  and  C_24 
REMARK   10  A    between atoms: C_24  and  C_25 
REMARK   11  A    between atoms: C_26  and  C_28 
ROOT
HETATM    1  O           1     -21.328  -3.054  -6.846  0.00  0.00    -0.271 OA
HETATM    2  H           1     -23.677  -4.527  -7.413  0.00  0.00     0.163 HD
HETATM    3  N           1     -22.954  -4.090  -7.971  0.00  0.00    -0.344 N 
HETATM    4  C           1     -21.673  -4.012  -7.495  0.00  0.00     0.249 C 
ENDROOT
BRANCH   4   5
HETATM    5  C           1     -20.694  -5.124  -7.780  0.00  0.00     0.274 C 
BRANCH   5   6
HETATM    6  N           1     -19.304  -4.662  -7.454  0.00  0.00    -0.067 N 
HETATM    7  H           1     -19.029  -3.895  -8.109  0.00  0.00     0.275 HD
HETATM    8  H           1     -19.278  -4.306  -6.471  0.00  0.00     0.275 HD
HETATM    9  H           1     -18.640  -5.461  -7.554  0.00  0.00     0.275 HD
ENDBRANCH   5   6
BRANCH   5  10
HETATM   10  C           1     -21.038  -6.337  -6.925  0.00  0.00     0.043 C 
BRANCH  10  11
HETATM   11  C           1     -20.632  -6.073  -5.481  0.00  0.00     0.006 C 
BRANCH  11  12
HETATM   12  C           1     -21.806  -6.373  -4.560  0.00  0.00     0.421 C 
BRANCH  12  13
HETATM   13  C           1     -21.324  -6.408  -3.116  0.00  0.00     0.231 C 
BRANCH  13  14
HETATM   14  N           1     -22.407  -5.892  -2.214  0.00  0.00    -0.079 N 
HETATM   15  H           1     -23.199  -6.572  -2.199  0.00  0.00     0.274 HD
HETATM   16  H           1     -22.746  -4.970  -2.570  0.00  0.00     0.274 HD
HETATM   17  H           1     -22.028  -5.774  -1.248  0.00  0.00     0.274 HD
ENDBRANCH  13  14
ENDBRANCH  12  13
ENDBRANCH  11  12
ENDBRANCH  10  11
ENDBRANCH   5  10
ENDBRANCH   4   5
BRANCH   3  18
HETATM   18  C           1     -23.276  -3.546  -9.276  0.00  0.00     0.191 C 
BRANCH  18  19
HETATM   19  C           1     -22.363  -4.169 -10.324  0.00  0.00     0.094 C 
BRANCH  19  20
HETATM   20  C           1     -22.797  -3.732 -11.689  0.00  0.00     0.034 A 
HETATM   21  C           1     -22.500  -2.513 -12.250  0.00  0.00     0.212 A 
HETATM   22  N           1     -23.087  -2.539 -13.486  0.00  0.00    -0.073 N 
HETATM   23  C           1     -23.705  -3.749 -13.620  0.00  0.00     0.277 A 
HETATM   24  H           1     -23.066  -1.769 -14.199  0.00  0.00     0.272 HD
HETATM   25  N           1     -23.547  -4.491 -12.549  0.00  0.00    -0.349 N 
ATOM     26  HN          1     -23.905  -5.433 -12.390  1.00  0.00     0.166 HD
ENDBRANCH  19  20
ENDBRANCH  18  19
BRANCH  18  27
HETATM   27  C           1     -24.714  -3.861  -9.611  0.00  0.00     0.197 C 
HETATM   28  O           1     -25.537  -2.933  -9.762  0.00  0.00    -0.646 OA
HETATM   29  O           1     -25.080  -5.049  -9.738  0.00  0.00    -0.646 OA
ENDBRANCH  18  27
ENDBRANCH   3  18
TORSDOF 11
ENDMDL
MODEL 2
REMARK VINA RESULT:      -6.3      3.854      8.168
REMARK  11 active torsions:
REMARK  status: ('A' for Active; 'I' for Inactive)
REMARK    1  A    between atoms: N_1  and  C_23 
REMARK    2  A    between atoms: C_6  and  C_7 
REMARK    3  A    between atoms: C_7  and  C_28 
REMARK    4  A    between atoms: C_10  and  C_19 
REMARK    5  A    between atoms: C_10  and  N_14 
REMARK    6  A    between atoms: C_19  and  C_25 
REMARK    7  A    between atoms: N_21  and  C_28 
REMARK       I    between atoms: N_21  and  C_22 
REMARK    8  A    between atoms: C_22  and  C_23 
REMARK    9  A    between atoms: C_23  and  C_24 
REMARK   10  A    between atoms: C_24  and  C_25 
REMARK   11  A    between atoms: C_26  and  C_28 
ROOT
HETATM    1  O           1     -22.813  -6.282  -4.792  0.00  0.00    -0.271 OA
HETATM    2  H           1     -21.377  -5.643  -2.439  0.00  0.00     0.163 HD
HETATM    3  N           1     -21.479  -6.471  -3.012  0.00  0.00    -0.344 N 
HETATM    4  C           1     -21.687  -6.351  -4.359  0.00  0.00     0.249 C 
ENDROOT
BRANCH   4   5
HETATM    5  C           1     -20.511  -6.304  -5.303  0.00  0.00     0.274 C 
BRANCH   5   6
HETATM    6  N           1     -20.868  -7.003  -6.581  0.00  0.00    -0.067 N 
HETATM    7  H           1     -21.603  -6.457  -7.084  0.00  0.00     0.275 HD
HETATM    8  H           1     -20.018  -7.081  -7.184  0.00  0.00     0.275 HD
HETATM    9  H           1     -21.231  -7.958  -6.365  0.00  0.00     0.275 HD
ENDBRANCH   5   6
BRANCH   5  10
HETATM   10  C           1     -20.157  -4.852  -5.602  0.00  0.00     0.043 C 
BRANCH  10  11
HETATM   11  C           1     -20.313  -4.588  -7.094  0.00  0.00     0.006 C 
BRANCH  11  12
HETATM   12  C           1     -21.390  -3.533  -7.312  0.00  0.00     0.421 C 
BRANCH  12  13
HETATM   13  C           1     -22.594  -4.170  -7.994  0.00  0.00     0.231 C 
BRANCH  13  14
HETATM   14  N           1     -23.658  -4.448  -6.973  0.00  0.00    -0.079 N 
HETATM   15  H           1     -23.631  -5.459  -6.712  0.00  0.00     0.274 HD
HETATM   16  H           1     -24.595  -4.216  -7.374  0.00  0.00     0.274 HD
HETATM   17  H           1     -23.488  -3.862  -6.125  0.00  0.00     0.274 HD
ENDBRANCH  13  14
ENDBRANCH  12  13
ENDBRANCH  11  12
ENDBRANCH  10  11
ENDBRANCH   5  10
ENDBRANCH   4   5
BRANCH   3  18
HETATM   18  C           1     -21.404  -7.786  -2.405  0.00  0.00     0.191 C 
BRANCH  18  19
HETATM   19  C           1     -19.956  -8.099  -2.050  0.00  0.00     0.094 C 
BRANCH  19  20
HETATM   20  C           1     -19.406  -9.090  -3.028  0.00  0.00     0.034 A 
HETATM   21  C           1     -20.161  -9.793  -3.936  0.00  0.00     0.212 A 
HETATM   22  N           1     -19.264 -10.572  -4.616  0.00  0.00    -0.073 N 
HETATM   23  C           1     -18.026 -10.315  -4.100  0.00  0.00     0.277 A 
HETATM   24  H           1     -19.487 -11.244  -5.391  0.00  0.00     0.272 HD
HETATM   25  N           1     -18.081  -9.423  -3.138  0.00  0.00    -0.349 N 
ATOM     26  HN          1     -17.303  -9.055  -2.590  1.00  0.00     0.166 HD
ENDBRANCH  19  20
ENDBRANCH  18  19
BRANCH  18  27
HETATM   27  C           1     -22.245  -7.810  -1.152  0.00  0.00     0.197 C 
HETATM   28  O           1     -22.746  -6.751  -0.717  0.00  0.00    -0.646 OA
HETATM   29  O           1     -22.440  -8.887  -0.549  0.00  0.00    -0.646 OA
ENDBRANCH  18  27
ENDBRANCH   3  18
TORSDOF 11
ENDMDL
MODEL 3
REMARK VINA RESULT:      -6.3      3.725      7.795
REMARK  11 active torsions:
REMARK  status: ('A' for Active; 'I' for Inactive)
REMARK    1  A    between atoms: N_1  and  C_23 
REMARK    2  A    between atoms: C_6  and  C_7 
REMARK    3  A    between atoms: C_7  and  C_28 
REMARK    4  A    between atoms: C_10  and  C_19 
REMARK    5  A    between atoms: C_10  and  N_14 
REMARK    6  A    between atoms: C_19  and  C_25 
REMARK    7  A    between atoms: N_21  and  C_28 
REMARK       I    between atoms: N_21  and  C_22 
REMARK    8  A    between atoms: C_22  and  C_23 
REMARK    9  A    between atoms: C_23  and  C_24 
REMARK   10  A    between atoms: C_24  and  C_25 
REMARK   11  A    between atoms: C_26  and  C_28 
ROOT
HETATM    1  O           1     -22.760  -6.060  -4.859  0.00  0.00    -0.271 OA
HETATM    2  H           1     -21.260  -5.682  -2.489  0.00  0.00     0.163 HD
HETATM    3  N           1     -21.438  -6.464  -3.107  0.00  0.00    -0.344 N 
HETATM    4  C           1     -21.642  -6.250  -4.443  0.00  0.00     0.249 C 
ENDROOT
BRANCH   4   5
HETATM    5  C           1     -20.472  -6.252  -5.395  0.00  0.00     0.274 C 
BRANCH   5   6
HETATM    6  N           1     -20.850  -6.984  -6.649  0.00  0.00    -0.067 N 
HETATM    7  H           1     -21.891  -7.003  -6.742  0.00  0.00     0.275 HD
HETATM    8  H           1     -20.436  -6.494  -7.475  0.00  0.00     0.275 HD
HETATM    9  H           1     -20.486  -7.961  -6.604  0.00  0.00     0.275 HD
ENDBRANCH   5   6
BRANCH   5  10
HETATM   10  C           1     -20.094  -4.817  -5.739  0.00  0.00     0.043 C 
BRANCH  10  11
HETATM   11  C           1     -20.329  -4.572  -7.225  0.00  0.00     0.006 C 
BRANCH  11  12
HETATM   12  C           1     -21.427  -3.532  -7.401  0.00  0.00     0.421 C 
BRANCH  12  13
HETATM   13  C           1     -22.636  -4.178  -8.066  0.00  0.00     0.231 C 
BRANCH  13  14
HETATM   14  N           1     -23.709  -4.405  -7.042  0.00  0.00    -0.079 N 
HETATM   15  H           1     -23.425  -5.186  -6.409  0.00  0.00     0.274 HD
HETATM   16  H           1     -24.603  -4.653  -7.522  0.00  0.00     0.274 HD
HETATM   17  H           1     -23.845  -3.533  -6.482  0.00  0.00     0.274 HD
ENDBRANCH  13  14
ENDBRANCH  12  13
ENDBRANCH  11  12
ENDBRANCH  10  11
ENDBRANCH   5  10
ENDBRANCH   4   5
BRANCH   3  18
HETATM   18  C           1     -21.474  -7.813  -2.574  0.00  0.00     0.191 C 
BRANCH  18  19
HETATM   19  C           1     -20.078  -8.419  -2.633  0.00  0.00     0.094 C 
BRANCH  19  20
HETATM   20  C           1     -19.952  -9.264  -3.863  0.00  0.00     0.034 A 
HETATM   21  C           1     -18.808  -9.381  -4.616  0.00  0.00     0.212 A 
HETATM   22  N           1     -19.137 -10.239  -5.629  0.00  0.00    -0.073 N 
HETATM   23  C           1     -20.442 -10.600  -5.453  0.00  0.00     0.277 A 
HETATM   24  H           1     -18.502 -10.561  -6.402  0.00  0.00     0.272 HD
HETATM   25  N           1     -20.961 -10.025  -4.392  0.00  0.00    -0.349 N 
ATOM     26  HN          1     -21.912 -10.125  -4.037  1.00  0.00     0.166 HD
ENDBRANCH  19  20
ENDBRANCH  18  19
BRANCH  18  27
HETATM   27  C           1     -21.946  -7.775  -1.141  0.00  0.00     0.197 C 
HETATM   28  O           1     -21.590  -8.668  -0.343  0.00  0.00    -0.646 OA
HETATM   29  O           1     -22.693  -6.852  -0.753  0.00  0.00    -0.646 OA
ENDBRANCH  18  27
ENDBRANCH   3  18
TORSDOF 11
ENDMDL
MODEL 4
REMARK VINA RESULT:      -6.3      2.576      3.841
REMARK  11 active torsions:
REMARK  status: ('A' for Active; 'I' for Inactive)
REMARK    1  A    between atoms: N_1  and  C_23 
REMARK    2  A    between atoms: C_6  and  C_7 
REMARK    3  A    between atoms: C_7  and  C_28 
REMARK    4  A    between atoms: C_10  and  C_19 
REMARK    5  A    between atoms: C_10  and  N_14 
REMARK    6  A    between atoms: C_19  and  C_25 
REMARK    7  A    between atoms: N_21  and  C_28 
REMARK       I    between atoms: N_21  and  C_22 
REMARK    8  A    between atoms: C_22  and  C_23 
REMARK    9  A    between atoms: C_23  and  C_24 
REMARK   10  A    between atoms: C_24  and  C_25 
REMARK   11  A    between atoms: C_26  and  C_28 
ROOT
HETATM    1  O           1     -19.718  -7.397  -6.128  0.00  0.00    -0.271 OA
HETATM    2  H           1     -20.190  -4.614  -5.921  0.00  0.00     0.163 HD
HETATM    3  N           1     -20.609  -5.374  -6.442  0.00  0.00    -0.344 N 
HETATM    4  C           1     -20.632  -6.637  -5.913  0.00  0.00     0.249 C 
ENDROOT
BRANCH   4   5
HETATM    5  C           1     -21.798  -7.078  -5.064  0.00  0.00     0.274 C 
BRANCH   5   6
HETATM    6  N           1     -21.618  -8.516  -4.678  0.00  0.00    -0.067 N 
HETATM    7  H           1     -20.639  -8.815  -4.889  0.00  0.00     0.275 HD
HETATM    8  H           1     -21.803  -8.627  -3.655  0.00  0.00     0.275 HD
HETATM    9  H           1     -22.287  -9.107  -5.220  0.00  0.00     0.275 HD
ENDBRANCH   5   6
BRANCH   5  10
HETATM   10  C           1     -21.863  -6.220  -3.806  0.00  0.00     0.043 C 
BRANCH  10  11
HETATM   11  C           1     -21.391  -7.036  -2.609  0.00  0.00     0.006 C 
BRANCH  11  12
HETATM   12  C           1     -22.275  -6.733  -1.407  0.00  0.00     0.421 C 
BRANCH  12  13
HETATM   13  C           1     -22.222  -7.900  -0.429  0.00  0.00     0.231 C 
BRANCH  13  14
HETATM   14  N           1     -23.409  -7.840   0.486  0.00  0.00    -0.079 N 
HETATM   15  H           1     -23.951  -6.968   0.295  0.00  0.00     0.274 HD
HETATM   16  H           1     -23.084  -7.838   1.479  0.00  0.00     0.274 HD
HETATM   17  H           1     -24.018  -8.674   0.321  0.00  0.00     0.274 HD
ENDBRANCH  13  14
ENDBRANCH  12  13
ENDBRANCH  11  12
ENDBRANCH  10  11
ENDBRANCH   5  10
ENDBRANCH   4   5
BRANCH   3  18
HETATM   18  C           1     -21.187  -5.125  -7.748  0.00  0.00     0.191 C 
BRANCH  18  19
HETATM   19  C           1     -22.403  -4.220  -7.600  0.00  0.00     0.094 C 
BRANCH  19  20
HETATM   20  C           1     -23.185  -4.221  -8.877  0.00  0.00     0.034 A 
HETATM   21  C           1     -24.226  -3.368  -9.156  0.00  0.00     0.212 A 
HETATM   22  N           1     -24.643  -3.716 -10.412  0.00  0.00    -0.073 N 
HETATM   23  C           1     -23.853  -4.747 -10.835  0.00  0.00     0.277 A 
HETATM   24  H           1     -25.427  -3.272 -10.952  0.00  0.00     0.272 HD
HETATM   25  N           1     -22.963  -5.074  -9.926  0.00  0.00    -0.349 N 
ATOM     26  HN          1     -22.255  -5.807  -9.989  1.00  0.00     0.166 HD
ENDBRANCH  19  20
ENDBRANCH  18  19
BRANCH  18  27
HETATM   27  C           1     -20.164  -4.451  -8.630  0.00  0.00     0.197 C 
HETATM   28  O           1     -20.047  -4.796  -9.826  0.00  0.00    -0.646 OA
HETATM   29  O           1     -19.433  -3.550  -8.165  0.00  0.00    -0.646 OA
ENDBRANCH  18  27
ENDBRANCH   3  18
TORSDOF 11
ENDMDL
MODEL 5
REMARK VINA RESULT:      -6.1      2.955      7.494
REMARK  11 active torsions:
REMARK  status: ('A' for Active; 'I' for Inactive)
REMARK    1  A    between atoms: N_1  and  C_23 
REMARK    2  A    between atoms: C_6  and  C_7 
REMARK    3  A    between atoms: C_7  and  C_28 
REMARK    4  A    between atoms: C_10  and  C_19 
REMARK    5  A    between atoms: C_10  and  N_14 
REMARK    6  A    between atoms: C_19  and  C_25 
REMARK    7  A    between atoms: N_21  and  C_28 
REMARK       I    between atoms: N_21  and  C_22 
REMARK    8  A    between atoms: C_22  and  C_23 
REMARK    9  A    between atoms: C_23  and  C_24 
REMARK   10  A    between atoms: C_24  and  C_25 
REMARK   11  A    between atoms: C_26  and  C_28 
ROOT
HETATM    1  O           1     -20.749  -4.108  -6.383  0.00  0.00    -0.271 OA
HETATM    2  H           1     -19.858  -6.625  -7.320  0.00  0.00     0.163 HD
HETATM    3  N           1     -20.688  -6.291  -6.845  0.00  0.00    -0.344 N 
HETATM    4  C           1     -21.141  -5.020  -7.071  0.00  0.00     0.249 C 
ENDROOT
BRANCH   4   5
HETATM    5  C           1     -22.129  -4.757  -8.181  0.00  0.00     0.274 C 
BRANCH   5   6
HETATM    6  N           1     -23.421  -4.271  -7.595  0.00  0.00    -0.067 N 
HETATM    7  H           1     -24.218  -4.792  -8.026  0.00  0.00     0.275 HD
HETATM    8  H           1     -23.417  -4.435  -6.562  0.00  0.00     0.275 HD
HETATM    9  H           1     -23.528  -3.251  -7.787  0.00  0.00     0.275 HD
ENDBRANCH   5   6
BRANCH   5  10
HETATM   10  C           1     -21.569  -3.697  -9.121  0.00  0.00     0.043 C 
BRANCH  10  11
HETATM   11  C           1     -21.070  -4.362 -10.398  0.00  0.00     0.006 C 
BRANCH  11  12
HETATM   12  C           1     -22.198  -4.410 -11.419  0.00  0.00     0.421 C 
BRANCH  12  13
HETATM   13  C           1     -22.307  -3.061 -12.120  0.00  0.00     0.231 C 
BRANCH  13  14
HETATM   14  N           1     -22.295  -3.267 -13.606  0.00  0.00    -0.079 N 
HETATM   15  H           1     -22.233  -4.289 -13.814  0.00  0.00     0.274 HD
HETATM   16  H           1     -21.471  -2.776 -14.019  0.00  0.00     0.274 HD
HETATM   17  H           1     -23.174  -2.879 -14.017  0.00  0.00     0.274 HD
ENDBRANCH  13  14
ENDBRANCH  12  13
ENDBRANCH  11  12
ENDBRANCH  10  11
ENDBRANCH   5  10
ENDBRANCH   4   5
BRANCH   3  18
HETATM   18  C           1     -21.396  -7.161  -5.927  0.00  0.00     0.191 C 
BRANCH  18  19
HETATM   19  C           1     -20.398  -8.056  -5.204  0.00  0.00     0.094 C 
BRANCH  19  20
HETATM   20  C           1     -20.963  -9.437  -5.082  0.00  0.00     0.034 A 
HETATM   21  C           1     -21.682  -9.894  -4.003  0.00  0.00     0.212 A 
HETATM   22  N           1     -21.996 -11.190  -4.309  0.00  0.00    -0.073 N 
HETATM   23  C           1     -21.464 -11.461  -5.537  0.00  0.00     0.277 A 
HETATM   24  H           1     -22.545 -11.855  -3.709  0.00  0.00     0.272 HD
HETATM   25  N           1     -20.833 -10.419  -6.028  0.00  0.00    -0.349 N 
ATOM     26  HN          1     -20.350 -10.354  -6.925  1.00  0.00     0.166 HD
ENDBRANCH  19  20
ENDBRANCH  18  19
BRANCH  18  27
HETATM   27  C           1     -22.144  -6.324  -4.917  0.00  0.00     0.197 C 
HETATM   28  O           1     -23.345  -6.039  -5.111  0.00  0.00    -0.646 OA
HETATM   29  O           1     -21.562  -5.916  -3.890  0.00  0.00    -0.646 OA
ENDBRANCH  18  27
ENDBRANCH   3  18
TORSDOF 11
ENDMDL
MODEL 6
REMARK VINA RESULT:      -6.1      3.230      8.031
REMARK  11 active torsions:
REMARK  status: ('A' for Active; 'I' for Inactive)
REMARK    1  A    between atoms: N_1  and  C_23 
REMARK    2  A    between atoms: C_6  and  C_7 
REMARK    3  A    between atoms: C_7  and  C_28 
REMARK    4  A    between atoms: C_10  and  C_19 
REMARK    5  A    between atoms: C_10  and  N_14 
REMARK    6  A    between atoms: C_19  and  C_25 
REMARK    7  A    between atoms: N_21  and  C_28 
REMARK       I    between atoms: N_21  and  C_22 
REMARK    8  A    between atoms: C_22  and  C_23 
REMARK    9  A    between atoms: C_23  and  C_24 
REMARK   10  A    between atoms: C_24  and  C_25 
REMARK   11  A    between atoms: C_26  and  C_28 
ROOT
HETATM    1  O           1     -19.415  -6.520  -7.418  0.00  0.00    -0.271 OA
HETATM    2  H           1     -21.608  -8.018  -6.441  0.00  0.00     0.163 HD
HETATM    3  N           1     -20.836  -7.521  -6.016  0.00  0.00    -0.344 N 
HETATM    4  C           1     -20.319  -6.408  -6.625  0.00  0.00     0.249 C 
ENDROOT
BRANCH   4   5
HETATM    5  C           1     -20.880  -5.045  -6.305  0.00  0.00     0.274 C 
BRANCH   5   6
HETATM    6  N           1     -20.076  -4.419  -5.204  0.00  0.00    -0.067 N 
HETATM    7  H           1     -19.398  -3.737  -5.613  0.00  0.00     0.275 HD
HETATM    8  H           1     -20.717  -3.921  -4.546  0.00  0.00     0.275 HD
HETATM    9  H           1     -19.555  -5.163  -4.689  0.00  0.00     0.275 HD
ENDBRANCH   5   6
BRANCH   5  10
HETATM   10  C           1     -20.813  -4.163  -7.546  0.00  0.00     0.043 C 
BRANCH  10  11
HETATM   11  C           1     -22.171  -4.151  -8.235  0.00  0.00     0.006 C 
BRANCH  11  12
HETATM   12  C           1     -21.986  -4.383  -9.728  0.00  0.00     0.421 C 
BRANCH  12  13
HETATM   13  C           1     -20.519  -4.192 -10.094  0.00  0.00     0.231 C 
BRANCH  13  14
HETATM   14  N           1     -20.418  -3.638 -11.485  0.00  0.00    -0.079 N 
HETATM   15  H           1     -20.537  -2.601 -11.454  0.00  0.00     0.274 HD
HETATM   16  H           1     -21.166  -4.057 -12.082  0.00  0.00     0.274 HD
HETATM   17  H           1     -19.482  -3.871 -11.885  0.00  0.00     0.274 HD
ENDBRANCH  13  14
ENDBRANCH  12  13
ENDBRANCH  11  12
ENDBRANCH  10  11
ENDBRANCH   5  10
ENDBRANCH   4   5
BRANCH   3  18
HETATM   18  C           1     -20.277  -7.986  -4.762  0.00  0.00     0.191 C 
BRANCH  18  19
HETATM   19  C           1     -21.380  -8.606  -3.914  0.00  0.00     0.094 C 
BRANCH  19  20
HETATM   20  C           1     -21.754  -7.662  -2.813  0.00  0.00     0.034 A 
HETATM   21  C           1     -21.965  -6.314  -2.978  0.00  0.00     0.212 A 
HETATM   22  N           1     -22.280  -5.849  -1.731  0.00  0.00    -0.073 N 
HETATM   23  C           1     -22.247  -6.914  -0.876  0.00  0.00     0.277 A 
HETATM   24  H           1     -22.505  -4.855  -1.477  0.00  0.00     0.272 HD
HETATM   25  N           1     -21.932  -8.023  -1.503  0.00  0.00    -0.349 N 
ATOM     26  HN          1     -21.839  -8.957  -1.101  1.00  0.00     0.166 HD
ENDBRANCH  19  20
ENDBRANCH  18  19
BRANCH  18  27
HETATM   27  C           1     -19.213  -9.020  -5.038  0.00  0.00     0.197 C 
HETATM   28  O           1     -19.301  -9.751  -6.048  0.00  0.00    -0.646 OA
HETATM   29  O           1     -18.246  -9.147  -4.257  0.00  0.00    -0.646 OA
ENDBRANCH  18  27
ENDBRANCH   3  18
TORSDOF 11
ENDMDL
MODEL 7
REMARK VINA RESULT:      -6.0      2.752      4.609
REMARK  11 active torsions:
REMARK  status: ('A' for Active; 'I' for Inactive)
REMARK    1  A    between atoms: N_1  and  C_23 
REMARK    2  A    between atoms: C_6  and  C_7 
REMARK    3  A    between atoms: C_7  and  C_28 
REMARK    4  A    between atoms: C_10  and  C_19 
REMARK    5  A    between atoms: C_10  and  N_14 
REMARK    6  A    between atoms: C_19  and  C_25 
REMARK    7  A    between atoms: N_21  and  C_28 
REMARK       I    between atoms: N_21  and  C_22 
REMARK    8  A    between atoms: C_22  and  C_23 
REMARK    9  A    between atoms: C_23  and  C_24 
REMARK   10  A    between atoms: C_24  and  C_25 
REMARK   11  A    between atoms: C_26  and  C_28 
ROOT
HETATM    1  O           1     -23.538  -6.116  -4.879  0.00  0.00    -0.271 OA
HETATM    2  H           1     -21.868  -7.918  -6.284  0.00  0.00     0.163 HD
HETATM    3  N           1     -21.850  -6.923  -6.097  0.00  0.00    -0.344 N 
HETATM    4  C           1     -22.374  -6.436  -4.930  0.00  0.00     0.249 C 
ENDROOT
BRANCH   4   5
HETATM    5  C           1     -21.498  -6.299  -3.709  0.00  0.00     0.274 C 
BRANCH   5   6
HETATM    6  N           1     -22.332  -5.854  -2.544  0.00  0.00    -0.067 N 
HETATM    7  H           1     -23.160  -6.485  -2.447  0.00  0.00     0.275 HD
HETATM    8  H           1     -21.759  -5.895  -1.671  0.00  0.00     0.275 HD
HETATM    9  H           1     -22.658  -4.875  -2.704  0.00  0.00     0.275 HD
ENDBRANCH   5   6
BRANCH   5  10
HETATM   10  C           1     -20.857  -7.644  -3.390  0.00  0.00     0.043 C 
BRANCH  10  11
HETATM   11  C           1     -20.605  -7.743  -1.891  0.00  0.00     0.006 C 
BRANCH  11  12
HETATM   12  C           1     -21.203  -9.039  -1.360  0.00  0.00     0.421 C 
BRANCH  12  13
HETATM   13  C           1     -21.631  -8.844   0.089  0.00  0.00     0.231 C 
BRANCH  13  14
HETATM   14  N           1     -23.129  -8.812   0.169  0.00  0.00    -0.079 N 
HETATM   15  H           1     -23.523  -8.637  -0.782  0.00  0.00     0.274 HD
HETATM   16  H           1     -23.427  -8.047   0.816  0.00  0.00     0.274 HD
HETATM   17  H           1     -23.478  -9.728   0.530  0.00  0.00     0.274 HD
ENDBRANCH  13  14
ENDBRANCH  12  13
ENDBRANCH  11  12
ENDBRANCH  10  11
ENDBRANCH   5  10
ENDBRANCH   4   5
BRANCH   3  18
HETATM   18  C           1     -21.266  -6.015  -7.065  0.00  0.00     0.191 C 
BRANCH  18  19
HETATM   19  C           1     -21.831  -4.616  -6.852  0.00  0.00     0.094 C 
BRANCH  19  20
HETATM   20  C           1     -22.573  -4.185  -8.079  0.00  0.00     0.034 A 
HETATM   21  C           1     -21.990  -3.947  -9.301  0.00  0.00     0.212 A 
HETATM   22  N           1     -23.023  -3.581 -10.121  0.00  0.00    -0.073 N 
HETATM   23  C           1     -24.167  -3.611  -9.377  0.00  0.00     0.277 A 
HETATM   24  H           1     -22.948  -3.324 -11.137  0.00  0.00     0.272 HD
HETATM   25  N           1     -23.926  -3.973  -8.138  0.00  0.00    -0.349 N 
ATOM     26  HN          1     -24.601  -4.075  -7.380  1.00  0.00     0.166 HD
ENDBRANCH  19  20
ENDBRANCH  18  19
BRANCH  18  27
HETATM   27  C           1     -19.768  -5.984  -6.886  0.00  0.00     0.197 C 
HETATM   28  O           1     -19.143  -7.045  -6.674  0.00  0.00    -0.646 OA
HETATM   29  O           1     -19.152  -4.899  -6.950  0.00  0.00    -0.646 OA
ENDBRANCH  18  27
ENDBRANCH   3  18
TORSDOF 11
ENDMDL
MODEL 8
REMARK VINA RESULT:      -5.6      4.705      9.781
REMARK  11 active torsions:
REMARK  status: ('A' for Active; 'I' for Inactive)
REMARK    1  A    between atoms: N_1  and  C_23 
REMARK    2  A    between atoms: C_6  and  C_7 
REMARK    3  A    between atoms: C_7  and  C_28 
REMARK    4  A    between atoms: C_10  and  C_19 
REMARK    5  A    between atoms: C_10  and  N_14 
REMARK    6  A    between atoms: C_19  and  C_25 
REMARK    7  A    between atoms: N_21  and  C_28 
REMARK       I    between atoms: N_21  and  C_22 
REMARK    8  A    between atoms: C_22  and  C_23 
REMARK    9  A    between atoms: C_23  and  C_24 
REMARK   10  A    between atoms: C_24  and  C_25 
REMARK   11  A    between atoms: C_26  and  C_28 
ROOT
HETATM    1  O           1     -22.020  -5.611  -2.419  0.00  0.00    -0.271 OA
HETATM    2  H           1     -20.116  -7.619  -1.826  0.00  0.00     0.163 HD
HETATM    3  N           1     -21.115  -7.607  -1.995  0.00  0.00    -0.344 N 
HETATM    4  C           1     -21.654  -6.680  -2.846  0.00  0.00     0.249 C 
ENDROOT
BRANCH   4   5
HETATM    5  C           1     -21.791  -6.994  -4.315  0.00  0.00     0.274 C 
BRANCH   5   6
HETATM    6  N           1     -22.921  -6.195  -4.893  0.00  0.00    -0.067 N 
HETATM    7  H           1     -23.057  -5.325  -4.330  0.00  0.00     0.275 HD
HETATM    8  H           1     -22.696  -5.939  -5.881  0.00  0.00     0.275 HD
HETATM    9  H           1     -23.796  -6.764  -4.870  0.00  0.00     0.275 HD
ENDBRANCH   5   6
BRANCH   5  10
HETATM   10  C           1     -20.496  -6.635  -5.034  0.00  0.00     0.043 C 
BRANCH  10  11
HETATM   11  C           1     -20.596  -5.217  -5.582  0.00  0.00     0.006 C 
BRANCH  11  12
HETATM   12  C           1     -19.794  -5.114  -6.872  0.00  0.00     0.421 C 
BRANCH  12  13
HETATM   13  C           1     -20.342  -3.974  -7.722  0.00  0.00     0.231 C 
BRANCH  13  14
HETATM   14  N           1     -21.656  -3.517  -7.159  0.00  0.00    -0.079 N 
HETATM   15  H           1     -22.390  -3.577  -7.899  0.00  0.00     0.274 HD
HETATM   16  H           1     -21.570  -2.528  -6.832  0.00  0.00     0.274 HD
HETATM   17  H           1     -21.920  -4.128  -6.353  0.00  0.00     0.274 HD
ENDBRANCH  13  14
ENDBRANCH  12  13
ENDBRANCH  11  12
ENDBRANCH  10  11
ENDBRANCH   5  10
ENDBRANCH   4   5
BRANCH   3  18
HETATM   18  C           1     -21.972  -8.573  -1.337  0.00  0.00     0.191 C 
BRANCH  18  19
HETATM   19  C           1     -21.243  -9.906  -1.226  0.00  0.00     0.094 C 
BRANCH  19  20
HETATM   20  C           1     -22.219 -10.980  -0.858  0.00  0.00     0.034 A 
HETATM   21  C           1     -22.106 -11.794   0.244  0.00  0.00     0.212 A 
HETATM   22  N           1     -23.198 -12.617   0.191  0.00  0.00    -0.073 N 
HETATM   23  C           1     -23.916 -12.274  -0.920  0.00  0.00     0.277 A 
HETATM   24  H           1     -23.440 -13.372   0.879  0.00  0.00     0.272 HD
HETATM   25  N           1     -23.347 -11.288  -1.574  0.00  0.00    -0.349 N 
ATOM     26  HN          1     -23.675 -10.844  -2.432  1.00  0.00     0.166 HD
ENDBRANCH  19  20
ENDBRANCH  18  19
BRANCH  18  27
HETATM   27  C           1     -22.323  -8.076   0.044  0.00  0.00     0.197 C 
HETATM   28  O           1     -21.480  -8.144   0.964  0.00  0.00    -0.646 OA
HETATM   29  O           1     -23.455  -7.596   0.268  0.00  0.00    -0.646 OA
ENDBRANCH  18  27
ENDBRANCH   3  18
TORSDOF 11
ENDMDL
MODEL 9
REMARK VINA RESULT:      -5.6      4.493      8.912
REMARK  11 active torsions:
REMARK  status: ('A' for Active; 'I' for Inactive)
REMARK    1  A    between atoms: N_1  and  C_23 
REMARK    2  A    between atoms: C_6  and  C_7 
REMARK    3  A    between atoms: C_7  and  C_28 
REMARK    4  A    between atoms: C_10  and  C_19 
REMARK    5  A    between atoms: C_10  and  N_14 
REMARK    6  A    between atoms: C_19  and  C_25 
REMARK    7  A    between atoms: N_21  and  C_28 
REMARK       I    between atoms: N_21  and  C_22 
REMARK    8  A    between atoms: C_22  and  C_23 
REMARK    9  A    between atoms: C_23  and  C_24 
REMARK   10  A    between atoms: C_24  and  C_25 
REMARK   11  A    between atoms: C_26  and  C_28 
ROOT
HETATM    1  O           1     -22.437  -5.815  -2.532  0.00  0.00    -0.271 OA
HETATM    2  H           1     -20.354  -7.070  -1.084  0.00  0.00     0.163 HD
HETATM    3  N           1     -21.159  -7.394  -1.605  0.00  0.00    -0.344 N 
HETATM    4  C           1     -21.609  -6.681  -2.684  0.00  0.00     0.249 C 
ENDROOT
BRANCH   4   5
HETATM    5  C           1     -21.071  -6.978  -4.062  0.00  0.00     0.274 C 
BRANCH   5   6
HETATM    6  N           1     -22.048  -7.841  -4.804  0.00  0.00    -0.067 N 
HETATM    7  H           1     -23.013  -7.460  -4.681  0.00  0.00     0.275 HD
HETATM    8  H           1     -21.804  -7.847  -5.821  0.00  0.00     0.275 HD
HETATM    9  H           1     -22.007  -8.815  -4.429  0.00  0.00     0.275 HD
ENDBRANCH   5   6
BRANCH   5  10
HETATM   10  C           1     -20.868  -5.673  -4.821  0.00  0.00     0.043 C 
BRANCH  10  11
HETATM   11  C           1     -21.766  -5.657  -6.052  0.00  0.00     0.006 C 
BRANCH  11  12
HETATM   12  C           1     -21.473  -4.411  -6.877  0.00  0.00     0.421 C 
BRANCH  12  13
HETATM   13  C           1     -22.280  -4.456  -8.169  0.00  0.00     0.231 C 
BRANCH  13  14
HETATM   14  N           1     -23.704  -4.080  -7.883  0.00  0.00    -0.079 N 
HETATM   15  H           1     -24.090  -4.718  -7.152  0.00  0.00     0.274 HD
HETATM   16  H           1     -24.269  -4.168  -8.757  0.00  0.00     0.274 HD
HETATM   17  H           1     -23.741  -3.093  -7.542  0.00  0.00     0.274 HD
ENDBRANCH  13  14
ENDBRANCH  12  13
ENDBRANCH  11  12
ENDBRANCH  10  11
ENDBRANCH   5  10
ENDBRANCH   4   5
BRANCH   3  18
HETATM   18  C           1     -21.835  -8.614  -1.209  0.00  0.00     0.191 C 
BRANCH  18  19
HETATM   19  C           1     -20.907  -9.802  -1.430  0.00  0.00     0.094 C 
BRANCH  19  20
HETATM   20  C           1     -21.323 -10.537  -2.666  0.00  0.00     0.034 A 
HETATM   21  C           1     -22.601 -10.973  -2.924  0.00  0.00     0.212 A 
HETATM   22  N           1     -22.528 -11.585  -4.145  0.00  0.00    -0.073 N 
HETATM   23  C           1     -21.233 -11.498  -4.570  0.00  0.00     0.277 A 
HETATM   24  H           1     -23.322 -12.039  -4.661  0.00  0.00     0.272 HD
HETATM   25  N           1     -20.482 -10.870  -3.696  0.00  0.00    -0.349 N 
ATOM     26  HN          1     -19.483 -10.670  -3.768  1.00  0.00     0.166 HD
ENDBRANCH  19  20
ENDBRANCH  18  19
BRANCH  18  27
HETATM   27  C           1     -22.207  -8.532   0.251  0.00  0.00     0.197 C 
HETATM   28  O           1     -23.343  -8.129   0.584  0.00  0.00    -0.646 OA
HETATM   29  O           1     -21.381  -8.865   1.127  0.00  0.00    -0.646 OA
ENDBRANCH  18  27
ENDBRANCH   3  18
TORSDOF 11
ENDMDL
