MODEL 1
REMARK VINA RESULT:      -7.4      0.000      0.000
REMARK  8 active torsions:
REMARK  status: ('A' for Active; 'I' for Inactive)
REMARK    1  A    between atoms: C_4  and  C_20 
REMARK    2  A    between atoms: C_4  and  C_16 
REMARK    3  A    between atoms: C_4  and  N_14 
REMARK    4  A    between atoms: O_6  and  C_19 
REMARK    5  A    between atoms: C_8  and  C_16 
REMARK    6  A    between atoms: C_9  and  C_13 
REMARK    7  A    between atoms: C_13  and  C_19 
REMARK    8  A    between atoms: C_13  and  N_17 
REMARK       I    between atoms: N_17  and  C_20 
ROOT
HETATM    1  C           1     -35.889  -0.725 -11.263  0.00  0.00     0.278 C 
ENDROOT
BRANCH   1   2
HETATM    2  C           1     -36.708  -0.547 -12.518  0.00  0.00     0.249 C 
HETATM    3  N           1     -36.087  -0.479 -13.736  0.00  0.00    -0.343 N 
HETATM    4  H           1     -35.080  -0.548 -13.795  0.00  0.00     0.163 HD
HETATM    5  O           1     -37.911  -0.465 -12.446  0.00  0.00    -0.271 OA
BRANCH   3   6
HETATM    6  C           1     -36.875  -0.307 -14.941  0.00  0.00     0.214 C 
BRANCH   6   7
HETATM    7  C           1     -36.178  -0.984 -16.097  0.00  0.00     0.199 C 
HETATM    8  O           1     -36.645  -0.887 -17.252  0.00  0.00    -0.646 OA
HETATM    9  O           1     -35.135  -1.642 -15.898  0.00  0.00    -0.646 OA
ENDBRANCH   6   7
BRANCH   6  10
HETATM   10  C           1     -37.030   1.177 -15.242  0.00  0.00     0.147 C 
HETATM   11  C           1     -35.701   1.738 -15.731  0.00  0.00     0.042 C 
BRANCH  10  12
HETATM   12  O           1     -38.004   1.353 -16.235  0.00  0.00    -0.393 OA
HETATM   13  H           1     -38.794   1.621 -15.798  0.00  0.00     0.210 HD
ENDBRANCH  10  12
ENDBRANCH   6  10
ENDBRANCH   3   6
ENDBRANCH   1   2
BRANCH   1  14
HETATM   14  C           1     -36.207  -2.076 -10.636  0.00  0.00     0.081 C 
BRANCH  14  15
HETATM   15  C           1     -35.101  -3.039 -10.935  0.00  0.00    -0.056 A 
HETATM   16  C           1     -33.831  -2.565 -11.261  0.00  0.00     0.007 A 
HETATM   17  C           1     -32.801  -3.463 -11.540  0.00  0.00     0.001 A 
HETATM   18  C           1     -33.041  -4.837 -11.491  0.00  0.00     0.000 A 
HETATM   19  C           1     -34.311  -5.311 -11.163  0.00  0.00     0.001 A 
HETATM   20  C           1     -35.341  -4.413 -10.885  0.00  0.00     0.007 A 
ENDBRANCH  14  15
ENDBRANCH   1  14
BRANCH   1  21
HETATM   21  N           1     -36.221   0.368 -10.290  0.00  0.00    -0.066 N 
HETATM   22  H           1     -35.562   1.167 -10.426  0.00  0.00     0.275 HD
HETATM   23  H           1     -36.133   0.003  -9.315  0.00  0.00     0.275 HD
HETATM   24  H           1     -37.201   0.693 -10.453  0.00  0.00     0.275 HD
ENDBRANCH   1  21
TORSDOF 8
ENDMDL
MODEL 2
REMARK VINA RESULT:      -7.3     13.476     15.678
REMARK  8 active torsions:
REMARK  status: ('A' for Active; 'I' for Inactive)
REMARK    1  A    between atoms: C_4  and  C_20 
REMARK    2  A    between atoms: C_4  and  C_16 
REMARK    3  A    between atoms: C_4  and  N_14 
REMARK    4  A    between atoms: O_6  and  C_19 
REMARK    5  A    between atoms: C_8  and  C_16 
REMARK    6  A    between atoms: C_9  and  C_13 
REMARK    7  A    between atoms: C_13  and  C_19 
REMARK    8  A    between atoms: C_13  and  N_17 
REMARK       I    between atoms: N_17  and  C_20 
ROOT
HETATM    1  C           1     -21.058  -5.674  -6.918  0.00  0.00     0.278 C 
ENDROOT
BRANCH   1   2
HETATM    2  C           1     -21.648  -4.528  -7.702  0.00  0.00     0.249 C 
HETATM    3  N           1     -22.162  -4.748  -8.952  0.00  0.00    -0.343 N 
HETATM    4  H           1     -22.147  -5.678  -9.349  0.00  0.00     0.163 HD
HETATM    5  O           1     -21.665  -3.418  -7.228  0.00  0.00    -0.271 OA
BRANCH   3   6
HETATM    6  C           1     -22.728  -3.646  -9.706  0.00  0.00     0.214 C 
BRANCH   6   7
HETATM    7  C           1     -24.229  -3.799  -9.767  0.00  0.00     0.199 C 
HETATM    8  O           1     -24.735  -4.923  -9.971  0.00  0.00    -0.646 OA
HETATM    9  O           1     -24.965  -2.801  -9.614  0.00  0.00    -0.646 OA
ENDBRANCH   6   7
BRANCH   6  10
HETATM   10  C           1     -22.161  -3.651 -11.118  0.00  0.00     0.147 C 
HETATM   11  C           1     -20.640  -3.702 -11.055  0.00  0.00     0.042 C 
BRANCH  10  12
HETATM   12  O           1     -22.637  -4.775 -11.809  0.00  0.00    -0.393 OA
HETATM   13  H           1     -22.834  -4.493 -12.686  0.00  0.00     0.210 HD
ENDBRANCH  10  12
ENDBRANCH   6  10
ENDBRANCH   3   6
ENDBRANCH   1   2
BRANCH   1  14
HETATM   14  C           1     -20.786  -5.225  -5.488  0.00  0.00     0.081 C 
BRANCH  14  15
HETATM   15  C           1     -21.100  -6.344  -4.544  0.00  0.00    -0.056 A 
HETATM   16  C           1     -21.264  -6.084  -3.183  0.00  0.00     0.007 A 
HETATM   17  C           1     -21.557  -7.126  -2.304  0.00  0.00     0.001 A 
HETATM   18  C           1     -21.684  -8.430  -2.786  0.00  0.00     0.000 A 
HETATM   19  C           1     -21.520  -8.689  -4.146  0.00  0.00     0.001 A 
HETATM   20  C           1     -21.228  -7.647  -5.025  0.00  0.00     0.007 A 
ENDBRANCH  14  15
ENDBRANCH   1  14
BRANCH   1  21
HETATM   21  N           1     -19.772  -6.108  -7.557  0.00  0.00    -0.066 N 
HETATM   22  H           1     -19.771  -7.147  -7.667  0.00  0.00     0.275 HD
HETATM   23  H           1     -18.969  -5.818  -6.953  0.00  0.00     0.275 HD
HETATM   24  H           1     -19.681  -5.658  -8.496  0.00  0.00     0.275 HD
ENDBRANCH   1  21
TORSDOF 8
ENDMDL
MODEL 3
REMARK VINA RESULT:      -7.0      2.950      5.485
REMARK  8 active torsions:
REMARK  status: ('A' for Active; 'I' for Inactive)
REMARK    1  A    between atoms: C_4  and  C_20 
REMARK    2  A    between atoms: C_4  and  C_16 
REMARK    3  A    between atoms: C_4  and  N_14 
REMARK    4  A    between atoms: O_6  and  C_19 
REMARK    5  A    between atoms: C_8  and  C_16 
REMARK    6  A    between atoms: C_9  and  C_13 
REMARK    7  A    between atoms: C_13  and  C_19 
REMARK    8  A    between atoms: C_13  and  N_17 
REMARK       I    between atoms: N_17  and  C_20 
ROOT
HETATM    1  C           1     -36.619  -0.276 -12.146  0.00  0.00     0.278 C 
ENDROOT
BRANCH   1   2
HETATM    2  C           1     -35.419  -1.013 -12.691  0.00  0.00     0.249 C 
HETATM    3  N           1     -35.099  -2.251 -12.205  0.00  0.00    -0.343 N 
HETATM    4  H           1     -35.665  -2.674 -11.481  0.00  0.00     0.163 HD
HETATM    5  O           1     -34.744  -0.508 -13.556  0.00  0.00    -0.271 OA
BRANCH   3   6
HETATM    6  C           1     -33.946  -2.959 -12.729  0.00  0.00     0.214 C 
BRANCH   6   7
HETATM    7  C           1     -34.409  -4.039 -13.677  0.00  0.00     0.199 C 
HETATM    8  O           1     -34.107  -3.979 -14.888  0.00  0.00    -0.646 OA
HETATM    9  O           1     -35.094  -4.993 -13.250  0.00  0.00    -0.646 OA
ENDBRANCH   6   7
BRANCH   6  10
HETATM   10  C           1     -33.170  -3.590 -11.581  0.00  0.00     0.147 C 
HETATM   11  C           1     -34.122  -3.894 -10.432  0.00  0.00     0.042 C 
BRANCH  10  12
HETATM   12  O           1     -32.574  -4.780 -12.021  0.00  0.00    -0.393 OA
HETATM   13  H           1     -31.762  -4.869 -11.551  0.00  0.00     0.210 HD
ENDBRANCH  10  12
ENDBRANCH   6  10
ENDBRANCH   3   6
ENDBRANCH   1   2
BRANCH   1  14
HETATM   14  C           1     -37.158  -1.016 -10.928  0.00  0.00     0.081 C 
BRANCH  14  15
HETATM   15  C           1     -37.182  -0.091  -9.751  0.00  0.00    -0.056 A 
HETATM   16  C           1     -38.053   0.999  -9.737  0.00  0.00     0.007 A 
HETATM   17  C           1     -38.075   1.859  -8.640  0.00  0.00     0.001 A 
HETATM   18  C           1     -37.226   1.631  -7.556  0.00  0.00     0.000 A 
HETATM   19  C           1     -36.356   0.540  -7.571  0.00  0.00     0.001 A 
HETATM   20  C           1     -36.334  -0.320  -8.668  0.00  0.00     0.007 A 
ENDBRANCH  14  15
ENDBRANCH   1  14
BRANCH   1  21
HETATM   21  N           1     -37.684  -0.207 -13.200  0.00  0.00    -0.066 N 
HETATM   22  H           1     -37.876   0.793 -13.435  0.00  0.00     0.275 HD
HETATM   23  H           1     -38.557  -0.657 -12.842  0.00  0.00     0.275 HD
HETATM   24  H           1     -37.359  -0.711 -14.057  0.00  0.00     0.275 HD
ENDBRANCH   1  21
TORSDOF 8
ENDMDL
MODEL 4
REMARK VINA RESULT:      -6.9     15.070     17.516
REMARK  8 active torsions:
REMARK  status: ('A' for Active; 'I' for Inactive)
REMARK    1  A    between atoms: C_4  and  C_20 
REMARK    2  A    between atoms: C_4  and  C_16 
REMARK    3  A    between atoms: C_4  and  N_14 
REMARK    4  A    between atoms: O_6  and  C_19 
REMARK    5  A    between atoms: C_8  and  C_16 
REMARK    6  A    between atoms: C_9  and  C_13 
REMARK    7  A    between atoms: C_13  and  C_19 
REMARK    8  A    between atoms: C_13  and  N_17 
REMARK       I    between atoms: N_17  and  C_20 
ROOT
HETATM    1  C           1     -22.325  -5.116  -6.802  0.00  0.00     0.278 C 
ENDROOT
BRANCH   1   2
HETATM    2  C           1     -21.495  -5.642  -5.657  0.00  0.00     0.249 C 
HETATM    3  N           1     -22.080  -6.406  -4.683  0.00  0.00    -0.343 N 
HETATM    4  H           1     -23.068  -6.617  -4.731  0.00  0.00     0.163 HD
HETATM    5  O           1     -20.315  -5.390  -5.602  0.00  0.00    -0.271 OA
BRANCH   3   6
HETATM    6  C           1     -21.281  -6.911  -3.583  0.00  0.00     0.214 C 
BRANCH   6   7
HETATM    7  C           1     -20.808  -8.308  -3.907  0.00  0.00     0.199 C 
HETATM    8  O           1     -19.585  -8.557  -3.956  0.00  0.00    -0.646 OA
HETATM    9  O           1     -21.640  -9.214  -4.126  0.00  0.00    -0.646 OA
ENDBRANCH   6   7
BRANCH   6  10
HETATM   10  C           1     -22.124  -6.943  -2.315  0.00  0.00     0.147 C 
HETATM   11  C           1     -21.315  -7.563  -1.183  0.00  0.00     0.042 C 
BRANCH  10  12
HETATM   12  O           1     -22.489  -5.635  -1.965  0.00  0.00    -0.393 OA
HETATM   13  H           1     -22.058  -5.440  -1.150  0.00  0.00     0.210 HD
ENDBRANCH  10  12
ENDBRANCH   6  10
ENDBRANCH   3   6
ENDBRANCH   1   2
BRANCH   1  14
HETATM   14  C           1     -21.688  -3.846  -7.350  0.00  0.00     0.081 C 
BRANCH  14  15
HETATM   15  C           1     -21.617  -3.925  -8.843  0.00  0.00    -0.056 A 
HETATM   16  C           1     -22.756  -3.682  -9.611  0.00  0.00     0.007 A 
HETATM   17  C           1     -22.688  -3.756 -11.002  0.00  0.00     0.001 A 
HETATM   18  C           1     -21.481  -4.073 -11.626  0.00  0.00     0.000 A 
HETATM   19  C           1     -20.342  -4.316 -10.858  0.00  0.00     0.001 A 
HETATM   20  C           1     -20.410  -4.242  -9.467  0.00  0.00     0.007 A 
ENDBRANCH  14  15
ENDBRANCH   1  14
BRANCH   1  21
HETATM   21  N           1     -23.711  -4.810  -6.315  0.00  0.00    -0.066 N 
HETATM   22  H           1     -23.682  -3.975  -5.687  0.00  0.00     0.275 HD
HETATM   23  H           1     -24.083  -5.632  -5.788  0.00  0.00     0.275 HD
HETATM   24  H           1     -24.331  -4.610  -7.132  0.00  0.00     0.275 HD
ENDBRANCH   1  21
TORSDOF 8
ENDMDL
MODEL 5
REMARK VINA RESULT:      -6.8      2.086      3.450
REMARK  8 active torsions:
REMARK  status: ('A' for Active; 'I' for Inactive)
REMARK    1  A    between atoms: C_4  and  C_20 
REMARK    2  A    between atoms: C_4  and  C_16 
REMARK    3  A    between atoms: C_4  and  N_14 
REMARK    4  A    between atoms: O_6  and  C_19 
REMARK    5  A    between atoms: C_8  and  C_16 
REMARK    6  A    between atoms: C_9  and  C_13 
REMARK    7  A    between atoms: C_13  and  C_19 
REMARK    8  A    between atoms: C_13  and  N_17 
REMARK       I    between atoms: N_17  and  C_20 
ROOT
HETATM    1  C           1     -34.200  -3.856 -12.806  0.00  0.00     0.278 C 
ENDROOT
BRANCH   1   2
HETATM    2  C           1     -34.587  -2.404 -12.668  0.00  0.00     0.249 C 
HETATM    3  N           1     -35.129  -1.737 -13.733  0.00  0.00    -0.343 N 
HETATM    4  H           1     -35.270  -2.216 -14.612  0.00  0.00     0.163 HD
HETATM    5  O           1     -34.418  -1.832 -11.618  0.00  0.00    -0.271 OA
BRANCH   3   6
HETATM    6  C           1     -35.500  -0.341 -13.600  0.00  0.00     0.214 C 
BRANCH   6   7
HETATM    7  C           1     -36.930  -0.246 -13.125  0.00  0.00     0.199 C 
HETATM    8  O           1     -37.846  -0.780 -13.787  0.00  0.00    -0.646 OA
HETATM    9  O           1     -37.198   0.369 -12.071  0.00  0.00    -0.646 OA
ENDBRANCH   6   7
BRANCH   6  10
HETATM   10  C           1     -35.367   0.352 -14.950  0.00  0.00     0.147 C 
HETATM   11  C           1     -35.437  -0.685 -16.063  0.00  0.00     0.042 C 
BRANCH  10  12
HETATM   12  O           1     -36.413   1.274 -15.105  0.00  0.00    -0.393 OA
HETATM   13  H           1     -36.731   1.180 -15.987  0.00  0.00     0.210 HD
ENDBRANCH  10  12
ENDBRANCH   6  10
ENDBRANCH   3   6
ENDBRANCH   1   2
BRANCH   1  14
HETATM   14  C           1     -33.207  -4.224 -11.711  0.00  0.00     0.081 C 
BRANCH  14  15
HETATM   15  C           1     -33.671  -5.462 -11.010  0.00  0.00    -0.056 A 
HETATM   16  C           1     -32.887  -6.615 -11.036  0.00  0.00     0.007 A 
HETATM   17  C           1     -33.320  -7.768 -10.382  0.00  0.00     0.001 A 
HETATM   18  C           1     -34.538  -7.769  -9.702  0.00  0.00     0.000 A 
HETATM   19  C           1     -35.322  -6.616  -9.675  0.00  0.00     0.001 A 
HETATM   20  C           1     -34.889  -5.463 -10.329  0.00  0.00     0.007 A 
ENDBRANCH  14  15
ENDBRANCH   1  14
BRANCH   1  21
HETATM   21  N           1     -33.568  -4.079 -14.148  0.00  0.00    -0.066 N 
HETATM   22  H           1     -33.858  -5.011 -14.519  0.00  0.00     0.275 HD
HETATM   23  H           1     -32.527  -4.049 -14.051  0.00  0.00     0.275 HD
HETATM   24  H           1     -33.877  -3.329 -14.808  0.00  0.00     0.275 HD
ENDBRANCH   1  21
TORSDOF 8
ENDMDL
MODEL 6
REMARK VINA RESULT:      -6.4     15.319     17.681
REMARK  8 active torsions:
REMARK  status: ('A' for Active; 'I' for Inactive)
REMARK    1  A    between atoms: C_4  and  C_20 
REMARK    2  A    between atoms: C_4  and  C_16 
REMARK    3  A    between atoms: C_4  and  N_14 
REMARK    4  A    between atoms: O_6  and  C_19 
REMARK    5  A    between atoms: C_8  and  C_16 
REMARK    6  A    between atoms: C_9  and  C_13 
REMARK    7  A    between atoms: C_13  and  C_19 
REMARK    8  A    between atoms: C_13  and  N_17 
REMARK       I    between atoms: N_17  and  C_20 
ROOT
HETATM    1  C           1     -21.439  -8.017  -4.412  0.00  0.00     0.278 C 
ENDROOT
BRANCH   1   2
HETATM    2  C           1     -21.412  -6.578  -4.866  0.00  0.00     0.249 C 
HETATM    3  N           1     -21.332  -6.284  -6.201  0.00  0.00    -0.343 N 
HETATM    4  H           1     -21.292  -7.031  -6.882  0.00  0.00     0.163 HD
HETATM    5  O           1     -21.461  -5.687  -4.053  0.00  0.00    -0.271 OA
BRANCH   3   6
HETATM    6  C           1     -21.307  -4.902  -6.638  0.00  0.00     0.214 C 
BRANCH   6   7
HETATM    7  C           1     -22.636  -4.547  -7.259  0.00  0.00     0.199 C 
HETATM    8  O           1     -22.688  -4.165  -8.448  0.00  0.00    -0.646 OA
HETATM    9  O           1     -23.684  -4.634  -6.584  0.00  0.00    -0.646 OA
ENDBRANCH   6   7
BRANCH   6  10
HETATM   10  C           1     -20.200  -4.713  -7.666  0.00  0.00     0.147 C 
HETATM   11  C           1     -18.863  -4.560  -6.952  0.00  0.00     0.042 C 
BRANCH  10  12
HETATM   12  O           1     -20.152  -5.832  -8.511  0.00  0.00    -0.393 OA
HETATM   13  H           1     -20.737  -5.657  -9.229  0.00  0.00     0.210 HD
ENDBRANCH  10  12
ENDBRANCH   6  10
ENDBRANCH   3   6
ENDBRANCH   1   2
BRANCH   1  14
HETATM   14  C           1     -20.609  -8.164  -3.143  0.00  0.00     0.081 C 
BRANCH  14  15
HETATM   15  C           1     -21.508  -8.489  -1.991  0.00  0.00    -0.056 A 
HETATM   16  C           1     -21.820  -7.508  -1.050  0.00  0.00     0.007 A 
HETATM   17  C           1     -22.659  -7.812   0.022  0.00  0.00     0.001 A 
HETATM   18  C           1     -23.185  -9.097   0.154  0.00  0.00     0.000 A 
HETATM   19  C           1     -22.874 -10.078  -0.788  0.00  0.00     0.001 A 
HETATM   20  C           1     -22.036  -9.774  -1.860  0.00  0.00     0.007 A 
ENDBRANCH  14  15
ENDBRANCH   1  14
BRANCH   1  21
HETATM   21  N           1     -20.866  -8.891  -5.487  0.00  0.00    -0.066 N 
HETATM   22  H           1     -21.209  -9.869  -5.361  0.00  0.00     0.275 HD
HETATM   23  H           1     -19.822  -8.876  -5.428  0.00  0.00     0.275 HD
HETATM   24  H           1     -21.166  -8.534  -6.423  0.00  0.00     0.275 HD
ENDBRANCH   1  21
TORSDOF 8
ENDMDL
MODEL 7
REMARK VINA RESULT:      -6.4     17.335     19.328
REMARK  8 active torsions:
REMARK  status: ('A' for Active; 'I' for Inactive)
REMARK    1  A    between atoms: C_4  and  C_20 
REMARK    2  A    between atoms: C_4  and  C_16 
REMARK    3  A    between atoms: C_4  and  N_14 
REMARK    4  A    between atoms: O_6  and  C_19 
REMARK    5  A    between atoms: C_8  and  C_16 
REMARK    6  A    between atoms: C_9  and  C_13 
REMARK    7  A    between atoms: C_13  and  C_19 
REMARK    8  A    between atoms: C_13  and  N_17 
REMARK       I    between atoms: N_17  and  C_20 
ROOT
HETATM    1  C           1     -20.399  -8.295  -4.944  0.00  0.00     0.278 C 
ENDROOT
BRANCH   1   2
HETATM    2  C           1     -20.316  -8.529  -3.455  0.00  0.00     0.249 C 
HETATM    3  N           1     -21.427  -8.361  -2.674  0.00  0.00    -0.343 N 
HETATM    4  H           1     -22.304  -8.082  -3.094  0.00  0.00     0.163 HD
HETATM    5  O           1     -19.269  -8.862  -2.955  0.00  0.00    -0.271 OA
BRANCH   3   6
HETATM    6  C           1     -21.347  -8.585  -1.243  0.00  0.00     0.214 C 
BRANCH   6   7
HETATM    7  C           1     -22.060  -9.869  -0.895  0.00  0.00     0.199 C 
HETATM    8  O           1     -22.928 -10.331  -1.666  0.00  0.00    -0.646 OA
HETATM    9  O           1     -21.783 -10.470   0.165  0.00  0.00    -0.646 OA
ENDBRANCH   6   7
BRANCH   6  10
HETATM   10  C           1     -22.004  -7.425  -0.508  0.00  0.00     0.147 C 
HETATM   11  C           1     -22.325  -6.313  -1.498  0.00  0.00     0.042 C 
BRANCH  10  12
HETATM   12  O           1     -23.189  -7.868   0.097  0.00  0.00    -0.393 OA
HETATM   13  H           1     -23.416  -7.230   0.753  0.00  0.00     0.210 HD
ENDBRANCH  10  12
ENDBRANCH   6  10
ENDBRANCH   3   6
ENDBRANCH   1   2
BRANCH   1  14
HETATM   14  C           1     -21.579  -7.381  -5.250  0.00  0.00     0.081 C 
BRANCH  14  15
HETATM   15  C           1     -21.105  -6.202  -6.041  0.00  0.00    -0.056 A 
HETATM   16  C           1     -19.766  -6.106  -6.418  0.00  0.00     0.007 A 
HETATM   17  C           1     -19.326  -5.007  -7.155  0.00  0.00     0.001 A 
HETATM   18  C           1     -20.226  -4.003  -7.515  0.00  0.00     0.000 A 
HETATM   19  C           1     -21.565  -4.099  -7.138  0.00  0.00     0.001 A 
HETATM   20  C           1     -22.005  -5.198  -6.401  0.00  0.00     0.007 A 
ENDBRANCH  14  15
ENDBRANCH   1  14
BRANCH   1  21
HETATM   21  N           1     -20.591  -9.608  -5.645  0.00  0.00    -0.066 N 
HETATM   22  H           1     -21.589  -9.704  -5.938  0.00  0.00     0.275 HD
HETATM   23  H           1     -20.340 -10.388  -4.996  0.00  0.00     0.275 HD
HETATM   24  H           1     -19.975  -9.646  -6.488  0.00  0.00     0.275 HD
ENDBRANCH   1  21
TORSDOF 8
ENDMDL
MODEL 8
REMARK VINA RESULT:      -6.2      4.899      6.959
REMARK  8 active torsions:
REMARK  status: ('A' for Active; 'I' for Inactive)
REMARK    1  A    between atoms: C_4  and  C_20 
REMARK    2  A    between atoms: C_4  and  C_16 
REMARK    3  A    between atoms: C_4  and  N_14 
REMARK    4  A    between atoms: O_6  and  C_19 
REMARK    5  A    between atoms: C_8  and  C_16 
REMARK    6  A    between atoms: C_9  and  C_13 
REMARK    7  A    between atoms: C_13  and  C_19 
REMARK    8  A    between atoms: C_13  and  N_17 
REMARK       I    between atoms: N_17  and  C_20 
ROOT
HETATM    1  C           1     -33.185  -4.469 -16.555  0.00  0.00     0.278 C 
ENDROOT
BRANCH   1   2
HETATM    2  C           1     -34.011  -4.581 -15.296  0.00  0.00     0.249 C 
HETATM    3  N           1     -33.547  -4.046 -14.125  0.00  0.00    -0.343 N 
HETATM    4  H           1     -32.651  -3.577 -14.102  0.00  0.00     0.163 HD
HETATM    5  O           1     -35.080  -5.141 -15.324  0.00  0.00    -0.271 OA
BRANCH   3   6
HETATM    6  C           1     -34.340  -4.154 -12.916  0.00  0.00     0.214 C 
BRANCH   6   7
HETATM    7  C           1     -34.910  -2.800 -12.567  0.00  0.00     0.199 C 
HETATM    8  O           1     -35.893  -2.715 -11.800  0.00  0.00    -0.646 OA
HETATM    9  O           1     -34.400  -1.766 -13.047  0.00  0.00    -0.646 OA
ENDBRANCH   6   7
BRANCH   6  10
HETATM   10  C           1     -33.462  -4.644 -11.772  0.00  0.00     0.147 C 
HETATM   11  C           1     -32.007  -4.666 -12.222  0.00  0.00     0.042 C 
BRANCH  10  12
HETATM   12  O           1     -33.598  -3.779 -10.676  0.00  0.00    -0.393 OA
HETATM   13  H           1     -33.221  -4.218  -9.933  0.00  0.00     0.210 HD
ENDBRANCH  10  12
ENDBRANCH   6  10
ENDBRANCH   3   6
ENDBRANCH   1   2
BRANCH   1  14
HETATM   14  C           1     -31.707  -4.424 -16.191  0.00  0.00     0.081 C 
BRANCH  14  15
HETATM   15  C           1     -31.016  -5.628 -16.753  0.00  0.00    -0.056 A 
HETATM   16  C           1     -31.663  -6.427 -17.695  0.00  0.00     0.007 A 
HETATM   17  C           1     -31.019  -7.548 -18.218  0.00  0.00     0.001 A 
HETATM   18  C           1     -29.727  -7.869 -17.800  0.00  0.00     0.000 A 
HETATM   19  C           1     -29.080  -7.069 -16.858  0.00  0.00     0.001 A 
HETATM   20  C           1     -29.725  -5.948 -16.335  0.00  0.00     0.007 A 
ENDBRANCH  14  15
ENDBRANCH   1  14
BRANCH   1  21
HETATM   21  N           1     -33.557  -3.213 -17.286  0.00  0.00    -0.066 N 
HETATM   22  H           1     -33.971  -3.460 -18.213  0.00  0.00     0.275 HD
HETATM   23  H           1     -32.703  -2.628 -17.428  0.00  0.00     0.275 HD
HETATM   24  H           1     -34.257  -2.677 -16.724  0.00  0.00     0.275 HD
ENDBRANCH   1  21
TORSDOF 8
ENDMDL
MODEL 9
REMARK VINA RESULT:      -6.1     14.956     17.696
REMARK  8 active torsions:
REMARK  status: ('A' for Active; 'I' for Inactive)
REMARK    1  A    between atoms: C_4  and  C_20 
REMARK    2  A    between atoms: C_4  and  C_16 
REMARK    3  A    between atoms: C_4  and  N_14 
REMARK    4  A    between atoms: O_6  and  C_19 
REMARK    5  A    between atoms: C_8  and  C_16 
REMARK    6  A    between atoms: C_9  and  C_13 
REMARK    7  A    between atoms: C_13  and  C_19 
REMARK    8  A    between atoms: C_13  and  N_17 
REMARK       I    between atoms: N_17  and  C_20 
ROOT
HETATM    1  C           1     -20.443  -4.990  -6.709  0.00  0.00     0.278 C 
ENDROOT
BRANCH   1   2
HETATM    2  C           1     -21.308  -5.818  -5.789  0.00  0.00     0.249 C 
HETATM    3  N           1     -20.741  -6.793  -5.014  0.00  0.00    -0.343 N 
HETATM    4  H           1     -19.745  -6.960  -5.057  0.00  0.00     0.163 HD
HETATM    5  O           1     -22.498  -5.618  -5.738  0.00  0.00    -0.271 OA
BRANCH   3   6
HETATM    6  C           1     -21.573  -7.589  -4.130  0.00  0.00     0.214 C 
BRANCH   6   7
HETATM    7  C           1     -21.521  -7.010  -2.737  0.00  0.00     0.199 C 
HETATM    8  O           1     -20.681  -7.433  -1.915  0.00  0.00    -0.646 OA
HETATM    9  O           1     -22.320  -6.108  -2.406  0.00  0.00    -0.646 OA
ENDBRANCH   6   7
BRANCH   6  10
HETATM   10  C           1     -21.060  -9.022  -4.103  0.00  0.00     0.147 C 
HETATM   11  C           1     -22.185  -9.956  -3.675  0.00  0.00     0.042 C 
BRANCH  10  12
HETATM   12  O           1     -20.615  -9.383  -5.383  0.00  0.00    -0.393 OA
HETATM   13  H           1     -21.292  -9.914  -5.767  0.00  0.00     0.210 HD
ENDBRANCH  10  12
ENDBRANCH   6  10
ENDBRANCH   3   6
ENDBRANCH   1   2
BRANCH   1  14
HETATM   14  C           1     -21.258  -3.828  -7.263  0.00  0.00     0.081 C 
BRANCH  14  15
HETATM   15  C           1     -21.484  -4.030  -8.729  0.00  0.00    -0.056 A 
HETATM   16  C           1     -20.453  -3.781  -9.635  0.00  0.00     0.007 A 
HETATM   17  C           1     -20.665  -3.969 -11.001  0.00  0.00     0.001 A 
HETATM   18  C           1     -21.907  -4.407 -11.461  0.00  0.00     0.000 A 
HETATM   19  C           1     -22.937  -4.657 -10.554  0.00  0.00     0.001 A 
HETATM   20  C           1     -22.726  -4.469  -9.189  0.00  0.00     0.007 A 
ENDBRANCH  14  15
ENDBRANCH   1  14
BRANCH   1  21
HETATM   21  N           1     -19.958  -5.845  -7.842  0.00  0.00    -0.066 N 
HETATM   22  H           1     -20.628  -5.776  -8.641  0.00  0.00     0.275 HD
HETATM   23  H           1     -19.894  -6.839  -7.524  0.00  0.00     0.275 HD
HETATM   24  H           1     -19.015  -5.516  -8.148  0.00  0.00     0.275 HD
ENDBRANCH   1  21
TORSDOF 8
ENDMDL
