MODEL 1
REMARK VINA RESULT:      -6.7      0.000      0.000
REMARK  3 active torsions:
REMARK  status: ('A' for Active; 'I' for Inactive)
REMARK       I    between atoms: C_8  and  N_14 
REMARK    1  A    between atoms: C_8  and  C_20 
REMARK    2  A    between atoms: C_12  and  C_19 
REMARK    3  A    between atoms: N_14  and  C_19 
ROOT
HETATM    1  H           1     -21.596  -3.770 -11.362  0.00  0.00     0.275 HD
HETATM    2  H           1     -21.768  -4.597 -12.846  0.00  0.00     0.275 HD
HETATM    3  H           1     -21.512  -5.474 -11.405  0.00  0.00     0.275 HD
HETATM    4  C           1     -21.030  -4.656  -9.055  0.00  0.00     0.229 C 
HETATM    5  H           1     -20.008  -2.920  -9.628  0.00  0.00     0.274 HD
HETATM    6  H           1     -21.087  -3.514 -10.809  0.00  0.00     0.274 HD
HETATM    7  H           1     -19.597  -4.301 -10.542  0.00  0.00     0.274 HD
HETATM    8  N           1     -20.382  -3.781 -10.087  0.00  0.00    -0.079 N 
HETATM    9  N           1     -21.970  -4.632 -11.821  0.00  0.00    -0.067 N 
HETATM   10  C           1     -23.201  -3.507  -9.444  0.00  0.00     0.004 C 
HETATM   11  C           1     -22.172  -3.898  -8.391  0.00  0.00     0.027 C 
HETATM   12  C           1     -23.453  -4.710 -11.606  0.00  0.00     0.274 C 
HETATM   13  C           1     -23.747  -4.762 -10.113  0.00  0.00     0.042 C 
ENDROOT
BRANCH  12  14
HETATM   14  C           1     -24.112  -3.493 -12.207  0.00  0.00     0.248 C 
HETATM   15  O           1     -25.163  -3.094 -11.764  0.00  0.00    -0.271 OA
HETATM   16  N           1     -23.520  -2.840 -13.255  0.00  0.00    -0.349 N 
HETATM   17  H           1     -22.639  -3.175 -13.626  0.00  0.00     0.163 HD
BRANCH  16  18
HETATM   18  C           1     -24.153  -1.671 -13.833  0.00  0.00     0.235 C 
BRANCH  18  19
HETATM   19  C           1     -23.394  -1.245 -15.065  0.00  0.00     0.191 C 
HETATM   20  O           1     -23.586  -0.112 -15.557  0.00  0.00    -0.647 OA
HETATM   21  O           1     -22.572  -2.025 -15.594  0.00  0.00    -0.647 OA
ENDBRANCH  18  19
ENDBRANCH  16  18
ENDBRANCH  12  14
TORSDOF 3
ENDMDL
MODEL 2
REMARK VINA RESULT:      -6.4      3.081      4.762
REMARK  3 active torsions:
REMARK  status: ('A' for Active; 'I' for Inactive)
REMARK       I    between atoms: C_8  and  N_14 
REMARK    1  A    between atoms: C_8  and  C_20 
REMARK    2  A    between atoms: C_12  and  C_19 
REMARK    3  A    between atoms: N_14  and  C_19 
ROOT
HETATM    1  H           1     -22.641  -5.016  -6.603  0.00  0.00     0.275 HD
HETATM    2  H           1     -23.208  -3.417  -6.797  0.00  0.00     0.275 HD
HETATM    3  H           1     -22.085  -3.780  -5.565  0.00  0.00     0.275 HD
HETATM    4  C           1     -21.138  -6.010  -4.818  0.00  0.00     0.229 C 
HETATM    5  H           1     -22.830  -7.144  -5.305  0.00  0.00     0.274 HD
HETATM    6  H           1     -22.697  -5.684  -6.178  0.00  0.00     0.274 HD
HETATM    7  H           1     -23.186  -5.660  -4.544  0.00  0.00     0.274 HD
HETATM    8  N           1     -22.571  -6.134  -5.244  0.00  0.00    -0.079 N 
HETATM    9  N           1     -22.382  -4.004  -6.541  0.00  0.00    -0.067 N 
HETATM   10  C           1     -20.427  -6.047  -7.202  0.00  0.00     0.004 C 
HETATM   11  C           1     -20.243  -6.702  -5.838  0.00  0.00     0.027 C 
HETATM   12  C           1     -21.253  -3.718  -7.487  0.00  0.00     0.274 C 
HETATM   13  C           1     -20.050  -4.574  -7.113  0.00  0.00     0.042 C 
ENDROOT
BRANCH  12  14
HETATM   14  C           1     -21.684  -4.043  -8.896  0.00  0.00     0.248 C 
HETATM   15  O           1     -20.878  -4.014  -9.796  0.00  0.00    -0.271 OA
HETATM   16  N           1     -22.988  -4.372  -9.155  0.00  0.00    -0.349 N 
HETATM   17  H           1     -23.662  -4.397  -8.401  0.00  0.00     0.163 HD
BRANCH  16  18
HETATM   18  C           1     -23.402  -4.684 -10.509  0.00  0.00     0.235 C 
BRANCH  18  19
HETATM   19  C           1     -24.138  -3.505 -11.095  0.00  0.00     0.191 C 
HETATM   20  O           1     -25.275  -3.204 -10.671  0.00  0.00    -0.647 OA
HETATM   21  O           1     -23.611  -2.828 -12.004  0.00  0.00    -0.647 OA
ENDBRANCH  18  19
ENDBRANCH  16  18
ENDBRANCH  12  14
TORSDOF 3
ENDMDL
MODEL 3
REMARK VINA RESULT:      -6.2      1.877      2.124
REMARK  3 active torsions:
REMARK  status: ('A' for Active; 'I' for Inactive)
REMARK       I    between atoms: C_8  and  N_14 
REMARK    1  A    between atoms: C_8  and  C_20 
REMARK    2  A    between atoms: C_12  and  C_19 
REMARK    3  A    between atoms: N_14  and  C_19 
ROOT
HETATM    1  H           1     -19.993  -3.905  -9.569  0.00  0.00     0.275 HD
HETATM    2  H           1     -19.392  -4.718 -10.945  0.00  0.00     0.275 HD
HETATM    3  H           1     -19.945  -5.611  -9.599  0.00  0.00     0.275 HD
HETATM    4  C           1     -20.728  -4.820  -7.322  0.00  0.00     0.229 C 
HETATM    5  H           1     -19.510  -3.119  -7.245  0.00  0.00     0.274 HD
HETATM    6  H           1     -19.837  -3.669  -8.827  0.00  0.00     0.274 HD
HETATM    7  H           1     -18.723  -4.508  -7.844  0.00  0.00     0.274 HD
HETATM    8  N           1     -19.616  -3.964  -7.850  0.00  0.00    -0.079 N 
HETATM    9  N           1     -20.097  -4.751 -10.174  0.00  0.00    -0.067 N 
HETATM   10  C           1     -22.351  -3.595  -8.754  0.00  0.00     0.004 C 
HETATM   11  C           1     -22.028  -4.027  -7.329  0.00  0.00     0.027 C 
HETATM   12  C           1     -21.478  -4.779 -10.760  0.00  0.00     0.274 C 
HETATM   13  C           1     -22.505  -4.828  -9.636  0.00  0.00     0.042 C 
ENDROOT
BRANCH  12  14
HETATM   14  C           1     -21.697  -3.537 -11.589  0.00  0.00     0.248 C 
HETATM   15  O           1     -20.891  -2.638 -11.555  0.00  0.00    -0.271 OA
HETATM   16  N           1     -22.810  -3.429 -12.379  0.00  0.00    -0.349 N 
HETATM   17  H           1     -23.485  -4.183 -12.408  0.00  0.00     0.163 HD
BRANCH  16  18
HETATM   18  C           1     -23.021  -2.236 -13.176  0.00  0.00     0.235 C 
BRANCH  18  19
HETATM   19  C           1     -23.142  -2.617 -14.631  0.00  0.00     0.191 C 
HETATM   20  O           1     -22.548  -1.949 -15.504  0.00  0.00    -0.647 OA
HETATM   21  O           1     -23.837  -3.602 -14.963  0.00  0.00    -0.647 OA
ENDBRANCH  18  19
ENDBRANCH  16  18
ENDBRANCH  12  14
TORSDOF 3
ENDMDL
MODEL 4
REMARK VINA RESULT:      -6.0      5.166      8.037
REMARK  3 active torsions:
REMARK  status: ('A' for Active; 'I' for Inactive)
REMARK       I    between atoms: C_8  and  N_14 
REMARK    1  A    between atoms: C_8  and  C_20 
REMARK    2  A    between atoms: C_12  and  C_19 
REMARK    3  A    between atoms: N_14  and  C_19 
ROOT
HETATM    1  H           1     -19.936  -5.052  -9.004  0.00  0.00     0.275 HD
HETATM    2  H           1     -18.789  -4.676  -7.795  0.00  0.00     0.275 HD
HETATM    3  H           1     -19.442  -3.435  -8.767  0.00  0.00     0.275 HD
HETATM    4  C           1     -21.002  -3.567 -10.761  0.00  0.00     0.229 C 
HETATM    5  H           1     -20.335  -5.432 -11.442  0.00  0.00     0.274 HD
HETATM    6  H           1     -20.058  -5.159  -9.781  0.00  0.00     0.274 HD
HETATM    7  H           1     -19.082  -4.386 -10.947  0.00  0.00     0.274 HD
HETATM    8  N           1     -20.047  -4.724 -10.730  0.00  0.00    -0.079 N 
HETATM    9  N           1     -19.647  -4.343  -8.292  0.00  0.00    -0.067 N 
HETATM   10  C           1     -22.424  -4.696  -9.062  0.00  0.00     0.004 C 
HETATM   11  C           1     -22.408  -4.060 -10.446  0.00  0.00     0.027 C 
HETATM   12  C           1     -20.756  -4.150  -7.299  0.00  0.00     0.274 C 
HETATM   13  C           1     -22.004  -3.663  -8.023  0.00  0.00     0.042 C 
ENDROOT
BRANCH  12  14
HETATM   14  C           1     -21.050  -5.462  -6.614  0.00  0.00     0.248 C 
HETATM   15  O           1     -20.463  -6.464  -6.948  0.00  0.00    -0.271 OA
HETATM   16  N           1     -21.982  -5.517  -5.613  0.00  0.00    -0.349 N 
HETATM   17  H           1     -22.474  -4.678  -5.333  0.00  0.00     0.163 HD
BRANCH  16  18
HETATM   18  C           1     -22.265  -6.778  -4.953  0.00  0.00     0.235 C 
BRANCH  18  19
HETATM   19  C           1     -21.783  -6.718  -3.525  0.00  0.00     0.191 C 
HETATM   20  O           1     -20.814  -7.418  -3.162  0.00  0.00    -0.647 OA
HETATM   21  O           1     -22.354  -5.967  -2.704  0.00  0.00    -0.647 OA
ENDBRANCH  18  19
ENDBRANCH  16  18
ENDBRANCH  12  14
TORSDOF 3
ENDMDL
MODEL 5
REMARK VINA RESULT:      -5.6      2.477      3.598
REMARK  3 active torsions:
REMARK  status: ('A' for Active; 'I' for Inactive)
REMARK       I    between atoms: C_8  and  N_14 
REMARK    1  A    between atoms: C_8  and  C_20 
REMARK    2  A    between atoms: C_12  and  C_19 
REMARK    3  A    between atoms: N_14  and  C_19 
ROOT
HETATM    1  H           1     -21.435  -5.930  -8.174  0.00  0.00     0.275 HD
HETATM    2  H           1     -23.130  -6.008  -8.363  0.00  0.00     0.275 HD
HETATM    3  H           1     -22.459  -5.564  -6.858  0.00  0.00     0.275 HD
HETATM    4  C           1     -20.040  -5.502  -6.100  0.00  0.00     0.229 C 
HETATM    5  H           1     -19.385  -7.076  -7.316  0.00  0.00     0.274 HD
HETATM    6  H           1     -20.790  -6.294  -7.888  0.00  0.00     0.274 HD
HETATM    7  H           1     -20.888  -7.362  -6.561  0.00  0.00     0.274 HD
HETATM    8  N           1     -20.295  -6.645  -7.037  0.00  0.00    -0.079 N 
HETATM    9  N           1     -22.346  -5.499  -7.895  0.00  0.00    -0.067 N 
HETATM   10  C           1     -19.896  -3.947  -8.036  0.00  0.00     0.004 C 
HETATM   11  C           1     -19.176  -4.458  -6.795  0.00  0.00     0.027 C 
HETATM   12  C           1     -22.365  -4.058  -8.313  0.00  0.00     0.274 C 
HETATM   13  C           1     -21.223  -3.317  -7.631  0.00  0.00     0.042 C 
ENDROOT
BRANCH  12  14
HETATM   14  C           1     -22.202  -3.966  -9.810  0.00  0.00     0.248 C 
HETATM   15  O           1     -21.532  -4.783 -10.396  0.00  0.00    -0.271 OA
HETATM   16  N           1     -22.814  -2.957 -10.505  0.00  0.00    -0.349 N 
HETATM   17  H           1     -23.375  -2.273 -10.014  0.00  0.00     0.163 HD
BRANCH  16  18
HETATM   18  C           1     -22.657  -2.869 -11.944  0.00  0.00     0.235 C 
BRANCH  18  19
HETATM   19  C           1     -24.007  -2.995 -12.606  0.00  0.00     0.191 C 
HETATM   20  O           1     -24.089  -3.073 -13.851  0.00  0.00    -0.647 OA
HETATM   21  O           1     -25.044  -3.023 -11.908  0.00  0.00    -0.647 OA
ENDBRANCH  18  19
ENDBRANCH  16  18
ENDBRANCH  12  14
TORSDOF 3
ENDMDL
MODEL 6
REMARK VINA RESULT:      -5.4      9.331     10.405
REMARK  3 active torsions:
REMARK  status: ('A' for Active; 'I' for Inactive)
REMARK       I    between atoms: C_8  and  N_14 
REMARK    1  A    between atoms: C_8  and  C_20 
REMARK    2  A    between atoms: C_12  and  C_19 
REMARK    3  A    between atoms: N_14  and  C_19 
ROOT
HETATM    1  H           1     -29.563  -8.123 -19.184  0.00  0.00     0.275 HD
HETATM    2  H           1     -30.153  -9.172 -17.972  0.00  0.00     0.275 HD
HETATM    3  H           1     -28.472  -8.974 -18.185  0.00  0.00     0.275 HD
HETATM    4  C           1     -27.186  -7.685 -19.949  0.00  0.00     0.229 C 
HETATM    5  H           1     -28.592  -7.939 -21.480  0.00  0.00     0.274 HD
HETATM    6  H           1     -29.243  -8.073 -19.908  0.00  0.00     0.274 HD
HETATM    7  H           1     -28.310  -9.346 -20.556  0.00  0.00     0.274 HD
HETATM    8  N           1     -28.427  -8.308 -20.516  0.00  0.00    -0.079 N 
HETATM    9  N           1     -29.398  -8.493 -18.220  0.00  0.00    -0.067 N 
HETATM   10  C           1     -28.548  -5.830 -19.006  0.00  0.00     0.004 C 
HETATM   11  C           1     -27.357  -6.173 -19.891  0.00  0.00     0.027 C 
HETATM   12  C           1     -29.409  -7.356 -17.240  0.00  0.00     0.274 C 
HETATM   13  C           1     -28.308  -6.367 -17.600  0.00  0.00     0.042 C 
ENDROOT
BRANCH  12  14
HETATM   14  C           1     -30.747  -6.661 -17.291  0.00  0.00     0.248 C 
HETATM   15  O           1     -31.627  -7.096 -17.995  0.00  0.00    -0.271 OA
HETATM   16  N           1     -30.964  -5.536 -16.540  0.00  0.00    -0.349 N 
HETATM   17  H           1     -30.226  -5.172 -15.951  0.00  0.00     0.163 HD
BRANCH  16  18
HETATM   18  C           1     -32.250  -4.868 -16.589  0.00  0.00     0.235 C 
BRANCH  18  19
HETATM   19  C           1     -32.127  -3.597 -17.393  0.00  0.00     0.191 C 
HETATM   20  O           1     -33.134  -2.887 -17.599  0.00  0.00    -0.647 OA
HETATM   21  O           1     -31.016  -3.255 -17.853  0.00  0.00    -0.647 OA
ENDBRANCH  18  19
ENDBRANCH  16  18
ENDBRANCH  12  14
TORSDOF 3
ENDMDL
MODEL 7
REMARK VINA RESULT:      -5.3      7.222     10.249
REMARK  3 active torsions:
REMARK  status: ('A' for Active; 'I' for Inactive)
REMARK       I    between atoms: C_8  and  N_14 
REMARK    1  A    between atoms: C_8  and  C_20 
REMARK    2  A    between atoms: C_12  and  C_19 
REMARK    3  A    between atoms: N_14  and  C_19 
ROOT
HETATM    1  H           1     -22.226  -4.799  -5.597  0.00  0.00     0.275 HD
HETATM    2  H           1     -23.687  -5.524  -5.092  0.00  0.00     0.275 HD
HETATM    3  H           1     -23.143  -5.730  -6.696  0.00  0.00     0.275 HD
HETATM    4  C           1     -21.163  -4.697  -7.897  0.00  0.00     0.229 C 
HETATM    5  H           1     -21.168  -2.897  -6.827  0.00  0.00     0.274 HD
HETATM    6  H           1     -21.897  -4.199  -6.000  0.00  0.00     0.274 HD
HETATM    7  H           1     -22.720  -3.435  -7.285  0.00  0.00     0.274 HD
HETATM    8  N           1     -21.784  -3.734  -6.929  0.00  0.00    -0.079 N 
HETATM    9  N           1     -22.844  -5.636  -5.699  0.00  0.00    -0.067 N 
HETATM   10  C           1     -19.963  -5.808  -6.023  0.00  0.00     0.004 C 
HETATM   11  C           1     -19.799  -5.131  -7.378  0.00  0.00     0.027 C 
HETATM   12  C           1     -22.090  -6.866  -5.285  0.00  0.00     0.274 C 
HETATM   13  C           1     -20.862  -7.030  -6.170  0.00  0.00     0.042 C 
ENDROOT
BRANCH  12  14
HETATM   14  C           1     -21.658  -6.730  -3.846  0.00  0.00     0.248 C 
HETATM   15  O           1     -21.630  -5.641  -3.324  0.00  0.00    -0.271 OA
HETATM   16  N           1     -21.300  -7.841  -3.130  0.00  0.00    -0.349 N 
HETATM   17  H           1     -21.324  -8.754  -3.568  0.00  0.00     0.163 HD
BRANCH  16  18
HETATM   18  C           1     -20.885  -7.711  -1.747  0.00  0.00     0.235 C 
BRANCH  18  19
HETATM   19  C           1     -22.065  -7.967  -0.842  0.00  0.00     0.191 C 
HETATM   20  O           1     -22.804  -7.021  -0.494  0.00  0.00    -0.647 OA
HETATM   21  O           1     -22.303  -9.127  -0.440  0.00  0.00    -0.647 OA
ENDBRANCH  18  19
ENDBRANCH  16  18
ENDBRANCH  12  14
TORSDOF 3
ENDMDL
MODEL 8
REMARK VINA RESULT:      -5.2      5.397      7.091
REMARK  3 active torsions:
REMARK  status: ('A' for Active; 'I' for Inactive)
REMARK       I    between atoms: C_8  and  N_14 
REMARK    1  A    between atoms: C_8  and  C_20 
REMARK    2  A    between atoms: C_12  and  C_19 
REMARK    3  A    between atoms: N_14  and  C_19 
ROOT
HETATM    1  H           1     -20.018  -8.033  -4.851  0.00  0.00     0.275 HD
HETATM    2  H           1     -20.319  -8.870  -6.309  0.00  0.00     0.275 HD
HETATM    3  H           1     -21.305  -9.150  -4.945  0.00  0.00     0.275 HD
HETATM    4  C           1     -21.103  -8.278  -2.573  0.00  0.00     0.229 C 
HETATM    5  H           1     -19.014  -8.137  -2.564  0.00  0.00     0.274 HD
HETATM    6  H           1     -19.708  -8.077  -4.122  0.00  0.00     0.274 HD
HETATM    7  H           1     -19.610  -9.562  -3.288  0.00  0.00     0.274 HD
HETATM    8  N           1     -19.757  -8.533  -3.183  0.00  0.00    -0.079 N 
HETATM    9  N           1     -20.762  -8.429  -5.471  0.00  0.00    -0.067 N 
HETATM   10  C           1     -21.245  -6.113  -3.787  0.00  0.00     0.004 C 
HETATM   11  C           1     -21.317  -6.778  -2.419  0.00  0.00     0.027 C 
HETATM   12  C           1     -21.683  -7.330  -5.912  0.00  0.00     0.274 C 
HETATM   13  C           1     -22.328  -6.689  -4.691  0.00  0.00     0.042 C 
ENDROOT
BRANCH  12  14
HETATM   14  C           1     -20.897  -6.289  -6.671  0.00  0.00     0.248 C 
HETATM   15  O           1     -19.726  -6.470  -6.908  0.00  0.00    -0.271 OA
HETATM   16  N           1     -21.511  -5.140  -7.091  0.00  0.00    -0.349 N 
HETATM   17  H           1     -22.491  -4.988  -6.893  0.00  0.00     0.163 HD
BRANCH  16  18
HETATM   18  C           1     -20.755  -4.139  -7.821  0.00  0.00     0.235 C 
BRANCH  18  19
HETATM   19  C           1     -21.125  -4.196  -9.282  0.00  0.00     0.191 C 
HETATM   20  O           1     -22.235  -4.656  -9.629  0.00  0.00    -0.647 OA
HETATM   21  O           1     -20.322  -3.784 -10.147  0.00  0.00    -0.647 OA
ENDBRANCH  18  19
ENDBRANCH  16  18
ENDBRANCH  12  14
TORSDOF 3
ENDMDL
MODEL 9
REMARK VINA RESULT:      -5.1      8.451     10.511
REMARK  3 active torsions:
REMARK  status: ('A' for Active; 'I' for Inactive)
REMARK       I    between atoms: C_8  and  N_14 
REMARK    1  A    between atoms: C_8  and  C_20 
REMARK    2  A    between atoms: C_12  and  C_19 
REMARK    3  A    between atoms: N_14  and  C_19 
ROOT
HETATM    1  H           1     -22.754  -8.005  -0.744  0.00  0.00     0.275 HD
HETATM    2  H           1     -21.997  -6.578  -0.193  0.00  0.00     0.275 HD
HETATM    3  H           1     -21.431  -8.100   0.330  0.00  0.00     0.275 HD
HETATM    4  C           1     -22.360 -10.422  -0.086  0.00  0.00     0.229 C 
HETATM    5  H           1     -24.367  -9.840  -0.213  0.00  0.00     0.274 HD
HETATM    6  H           1     -23.258  -8.592  -0.564  0.00  0.00     0.274 HD
HETATM    7  H           1     -23.504  -9.085   1.050  0.00  0.00     0.274 HD
HETATM    8  N           1     -23.455  -9.408   0.058  0.00  0.00    -0.079 N 
HETATM    9  N           1     -21.842  -7.573  -0.473  0.00  0.00    -0.067 N 
HETATM   10  C           1     -22.002  -9.703  -2.440  0.00  0.00     0.004 C 
HETATM   11  C           1     -22.288 -10.892  -1.533  0.00  0.00     0.027 C 
HETATM   12  C           1     -20.899  -7.622  -1.640  0.00  0.00     0.274 C 
HETATM   13  C           1     -20.672  -9.072  -2.047  0.00  0.00     0.042 C 
ENDROOT
BRANCH  12  14
HETATM   14  C           1     -21.493  -6.860  -2.799  0.00  0.00     0.248 C 
HETATM   15  O           1     -22.416  -6.103  -2.614  0.00  0.00    -0.271 OA
HETATM   16  N           1     -20.987  -7.028  -4.060  0.00  0.00    -0.349 N 
HETATM   17  H           1     -20.214  -7.662  -4.214  0.00  0.00     0.163 HD
BRANCH  16  18
HETATM   18  C           1     -21.558  -6.296  -5.174  0.00  0.00     0.235 C 
BRANCH  18  19
HETATM   19  C           1     -20.449  -5.754  -6.041  0.00  0.00     0.191 C 
HETATM   20  O           1     -19.976  -4.619  -5.816  0.00  0.00    -0.647 OA
HETATM   21  O           1     -20.002  -6.440  -6.986  0.00  0.00    -0.647 OA
ENDBRANCH  18  19
ENDBRANCH  16  18
ENDBRANCH  12  14
TORSDOF 3
ENDMDL
