MODEL 1
REMARK VINA RESULT:      -8.4      0.000      0.000
REMARK  14 active torsions:
REMARK  status: ('A' for Active; 'I' for Inactive)
REMARK    1  A    between atoms: C_2  and  C_4 
REMARK    2  A    between atoms: C_4  and  C_5 
REMARK    3  A    between atoms: C_4  and  N_17 
REMARK    4  A    between atoms: C_5  and  C_6 
REMARK    5  A    between atoms: C_9  and  O_10 
REMARK    6  A    between atoms: O_10  and  P_11 
REMARK    7  A    between atoms: P_11  and  O_13 
REMARK       I    between atoms: N_17  and  C_18 
REMARK    8  A    between atoms: C_18  and  C_19 
REMARK    9  A    between atoms: C_19  and  C_20 
REMARK   10  A    between atoms: C_19  and  N_32 
REMARK   11  A    between atoms: C_20  and  C_21 
REMARK   12  A    between atoms: C_24  and  O_25 
REMARK   13  A    between atoms: O_25  and  P_26 
REMARK   14  A    between atoms: P_26  and  O_27 
ROOT
HETATM    1  N           1     -21.402  -7.163  -6.600  0.00  0.00    -0.344 N 
HETATM    2  C           1     -20.340  -6.312  -6.750  0.00  0.00     0.249 C 
HETATM    3  O           1     -19.232  -6.756  -6.944  0.00  0.00    -0.271 OA
HETATM    4  H           1     -21.935  -7.454  -7.409  0.00  0.00     0.163 HD
ENDROOT
BRANCH   2   5
HETATM    5  C           1     -20.552  -4.819  -6.676  0.00  0.00     0.278 C 
BRANCH   5   6
HETATM    6  C           1     -19.921  -4.156  -7.892  0.00  0.00     0.081 C 
BRANCH   6   7
HETATM    7  C           1     -20.860  -4.249  -9.055  0.00  0.00    -0.056 A 
HETATM    8  C           1     -22.237  -4.186  -8.845  0.00  0.00     0.010 A 
HETATM    9  C           1     -23.112  -4.272  -9.928  0.00  0.00     0.038 A 
HETATM   10  C           1     -22.610  -4.424 -11.220  0.00  0.00     0.081 A 
HETATM   11  C           1     -21.232  -4.486 -11.430  0.00  0.00     0.038 A 
HETATM   12  C           1     -20.357  -4.400 -10.347  0.00  0.00     0.010 A 
BRANCH  10  13
HETATM   13  O           1     -23.460  -4.508 -12.272  0.00  0.00    -0.247 OA
BRANCH  13  14
HETATM   14  P           1     -23.941  -3.134 -12.971  0.00  0.00     0.411 P 
HETATM   15  O           1     -23.803  -3.254 -14.439  0.00  0.00    -0.624 OA
HETATM   16  O           1     -25.356  -2.875 -12.626  0.00  0.00    -0.624 OA
BRANCH  14  17
HETATM   17  O           1     -23.026  -1.912 -12.444  0.00  0.00    -0.300 OA
HETATM   18  H           1     -22.780  -2.151 -11.568  0.00  0.00     0.223 HD
ENDBRANCH  14  17
ENDBRANCH  13  14
ENDBRANCH  10  13
ENDBRANCH   6   7
ENDBRANCH   5   6
BRANCH   5  19
HETATM   19  N           1     -19.912  -4.287  -5.428  0.00  0.00    -0.066 N 
HETATM   20  H           1     -19.189  -4.962  -5.092  0.00  0.00     0.275 HD
HETATM   21  H           1     -19.462  -3.367  -5.633  0.00  0.00     0.275 HD
HETATM   22  H           1     -20.641  -4.163  -4.688  0.00  0.00     0.275 HD
ENDBRANCH   5  19
ENDBRANCH   2   5
BRANCH   1  23
HETATM   23  C           1     -21.762  -7.647  -5.281  0.00  0.00     0.189 C 
BRANCH  23  24
HETATM   24  C           1     -22.431  -6.539  -4.506  0.00  0.00     0.197 C 
HETATM   25  O           1     -21.840  -6.006  -3.542  0.00  0.00    -0.646 OA
HETATM   26  O           1     -23.576  -6.154  -4.826  0.00  0.00    -0.646 OA
ENDBRANCH  23  24
BRANCH  23  27
HETATM   27  C           1     -20.506  -8.097  -4.546  0.00  0.00     0.074 C 
BRANCH  27  28
HETATM   28  C           1     -20.861  -9.168  -3.562  0.00  0.00    -0.056 A 
HETATM   29  C           1     -21.615 -10.268  -3.971  0.00  0.00     0.010 A 
HETATM   30  C           1     -21.945 -11.267  -3.054  0.00  0.00     0.038 A 
HETATM   31  C           1     -21.522 -11.164  -1.729  0.00  0.00     0.081 A 
HETATM   32  C           1     -20.769 -10.063  -1.321  0.00  0.00     0.038 A 
HETATM   33  C           1     -20.439  -9.065  -2.237  0.00  0.00     0.010 A 
BRANCH  31  34
HETATM   34  O           1     -21.844 -12.134  -0.838  0.00  0.00    -0.247 OA
BRANCH  34  35
HETATM   35  P           1     -23.338 -12.134  -0.224  0.00  0.00     0.411 P 
HETATM   36  O           1     -23.310 -12.700   1.142  0.00  0.00    -0.624 OA
HETATM   37  O           1     -24.223 -12.954  -1.081  0.00  0.00    -0.624 OA
BRANCH  35  38
HETATM   38  O           1     -23.895 -10.618  -0.167  0.00  0.00    -0.300 OA
HETATM   39  H           1     -24.177 -10.496   0.722  0.00  0.00     0.223 HD
ENDBRANCH  35  38
ENDBRANCH  34  35
ENDBRANCH  31  34
ENDBRANCH  27  28
ENDBRANCH  23  27
ENDBRANCH   1  23
TORSDOF 14
ENDMDL
MODEL 2
REMARK VINA RESULT:      -8.4      3.925      5.015
REMARK  14 active torsions:
REMARK  status: ('A' for Active; 'I' for Inactive)
REMARK    1  A    between atoms: C_2  and  C_4 
REMARK    2  A    between atoms: C_4  and  C_5 
REMARK    3  A    between atoms: C_4  and  N_17 
REMARK    4  A    between atoms: C_5  and  C_6 
REMARK    5  A    between atoms: C_9  and  O_10 
REMARK    6  A    between atoms: O_10  and  P_11 
REMARK    7  A    between atoms: P_11  and  O_13 
REMARK       I    between atoms: N_17  and  C_18 
REMARK    8  A    between atoms: C_18  and  C_19 
REMARK    9  A    between atoms: C_19  and  C_20 
REMARK   10  A    between atoms: C_19  and  N_32 
REMARK   11  A    between atoms: C_20  and  C_21 
REMARK   12  A    between atoms: C_24  and  O_25 
REMARK   13  A    between atoms: O_25  and  P_26 
REMARK   14  A    between atoms: P_26  and  O_27 
ROOT
HETATM    1  N           1     -20.800  -6.932  -4.078  0.00  0.00    -0.344 N 
HETATM    2  C           1     -21.614  -6.237  -4.932  0.00  0.00     0.249 C 
HETATM    3  O           1     -22.801  -6.465  -4.955  0.00  0.00    -0.271 OA
HETATM    4  H           1     -20.629  -6.582  -3.144  0.00  0.00     0.163 HD
ENDROOT
BRANCH   2   5
HETATM    5  C           1     -21.030  -5.184  -5.842  0.00  0.00     0.278 C 
BRANCH   5   6
HETATM    6  C           1     -20.618  -5.826  -7.161  0.00  0.00     0.081 C 
BRANCH   6   7
HETATM    7  C           1     -21.138  -5.003  -8.299  0.00  0.00    -0.056 A 
HETATM    8  C           1     -20.330  -4.760  -9.410  0.00  0.00     0.010 A 
HETATM    9  C           1     -20.813  -3.995 -10.470  0.00  0.00     0.038 A 
HETATM   10  C           1     -22.105  -3.471 -10.420  0.00  0.00     0.081 A 
HETATM   11  C           1     -22.913  -3.714  -9.310  0.00  0.00     0.038 A 
HETATM   12  C           1     -22.429  -4.480  -8.249  0.00  0.00     0.010 A 
BRANCH  10  13
HETATM   13  O           1     -22.575  -2.726 -11.450  0.00  0.00    -0.247 OA
BRANCH  13  14
HETATM   14  P           1     -23.672  -3.393 -12.429  0.00  0.00     0.411 P 
HETATM   15  O           1     -25.029  -3.000 -11.989  0.00  0.00    -0.624 OA
HETATM   16  O           1     -23.447  -2.925 -13.815  0.00  0.00    -0.624 OA
BRANCH  14  17
HETATM   17  O           1     -23.536  -5.002 -12.376  0.00  0.00    -0.300 OA
HETATM   18  H           1     -24.413  -5.317 -12.244  0.00  0.00     0.223 HD
ENDBRANCH  14  17
ENDBRANCH  13  14
ENDBRANCH  10  13
ENDBRANCH   6   7
ENDBRANCH   5   6
BRANCH   5  19
HETATM   19  N           1     -19.827  -4.571  -5.188  0.00  0.00    -0.066 N 
HETATM   20  H           1     -19.545  -5.150  -4.365  0.00  0.00     0.275 HD
HETATM   21  H           1     -19.040  -4.533  -5.873  0.00  0.00     0.275 HD
HETATM   22  H           1     -20.060  -3.603  -4.868  0.00  0.00     0.275 HD
ENDBRANCH   5  19
ENDBRANCH   2   5
BRANCH   1  23
HETATM   23  C           1     -20.183  -8.171  -4.513  0.00  0.00     0.189 C 
BRANCH  23  24
HETATM   24  C           1     -21.255  -9.144  -4.936  0.00  0.00     0.197 C 
HETATM   25  O           1     -22.043  -9.615  -4.086  0.00  0.00    -0.646 OA
HETATM   26  O           1     -21.356  -9.481  -6.135  0.00  0.00    -0.646 OA
ENDBRANCH  23  24
BRANCH  23  27
HETATM   27  C           1     -19.378  -8.767  -3.366  0.00  0.00     0.074 C 
BRANCH  27  28
HETATM   28  C           1     -18.100  -9.338  -3.896  0.00  0.00    -0.056 A 
HETATM   29  C           1     -17.949  -9.556  -5.265  0.00  0.00     0.010 A 
HETATM   30  C           1     -16.758 -10.089  -5.760  0.00  0.00     0.038 A 
HETATM   31  C           1     -15.718 -10.402  -4.884  0.00  0.00     0.081 A 
HETATM   32  C           1     -15.870 -10.184  -3.515  0.00  0.00     0.038 A 
HETATM   33  C           1     -17.061  -9.652  -3.021  0.00  0.00     0.010 A 
BRANCH  31  34
HETATM   34  O           1     -14.561 -10.920  -5.364  0.00  0.00    -0.247 OA
BRANCH  34  35
HETATM   35  P           1     -14.269 -12.488  -5.109  0.00  0.00     0.411 P 
HETATM   36  O           1     -13.421 -13.016  -6.200  0.00  0.00    -0.624 OA
HETATM   37  O           1     -15.550 -13.229  -5.077  0.00  0.00    -0.624 OA
BRANCH  35  38
HETATM   38  O           1     -13.505 -12.669  -3.698  0.00  0.00    -0.300 OA
HETATM   39  H           1     -13.277 -13.582  -3.659  0.00  0.00     0.223 HD
ENDBRANCH  35  38
ENDBRANCH  34  35
ENDBRANCH  31  34
ENDBRANCH  27  28
ENDBRANCH  23  27
ENDBRANCH   1  23
TORSDOF 14
ENDMDL
MODEL 3
REMARK VINA RESULT:      -8.3      1.282     11.249
REMARK  14 active torsions:
REMARK  status: ('A' for Active; 'I' for Inactive)
REMARK    1  A    between atoms: C_2  and  C_4 
REMARK    2  A    between atoms: C_4  and  C_5 
REMARK    3  A    between atoms: C_4  and  N_17 
REMARK    4  A    between atoms: C_5  and  C_6 
REMARK    5  A    between atoms: C_9  and  O_10 
REMARK    6  A    between atoms: O_10  and  P_11 
REMARK    7  A    between atoms: P_11  and  O_13 
REMARK       I    between atoms: N_17  and  C_18 
REMARK    8  A    between atoms: C_18  and  C_19 
REMARK    9  A    between atoms: C_19  and  C_20 
REMARK   10  A    between atoms: C_19  and  N_32 
REMARK   11  A    between atoms: C_20  and  C_21 
REMARK   12  A    between atoms: C_24  and  O_25 
REMARK   13  A    between atoms: O_25  and  P_26 
REMARK   14  A    between atoms: P_26  and  O_27 
ROOT
HETATM    1  N           1     -22.334  -5.845  -5.499  0.00  0.00    -0.344 N 
HETATM    2  C           1     -21.741  -6.518  -4.465  0.00  0.00     0.249 C 
HETATM    3  O           1     -21.192  -5.905  -3.580  0.00  0.00    -0.271 OA
HETATM    4  H           1     -23.305  -5.569  -5.433  0.00  0.00     0.163 HD
ENDROOT
BRANCH   2   5
HETATM    5  C           1     -21.775  -8.027  -4.429  0.00  0.00     0.278 C 
BRANCH   5   6
HETATM    6  C           1     -20.853  -8.529  -3.326  0.00  0.00     0.081 C 
BRANCH   6   7
HETATM    7  C           1     -21.633  -9.385  -2.376  0.00  0.00    -0.056 A 
HETATM    8  C           1     -21.779  -8.995  -1.045  0.00  0.00     0.010 A 
HETATM    9  C           1     -22.505  -9.791  -0.160  0.00  0.00     0.038 A 
HETATM   10  C           1     -23.085 -10.979  -0.606  0.00  0.00     0.081 A 
HETATM   11  C           1     -22.940 -11.369  -1.938  0.00  0.00     0.038 A 
HETATM   12  C           1     -22.213 -10.572  -2.822  0.00  0.00     0.010 A 
BRANCH  10  13
HETATM   13  O           1     -23.791 -11.753   0.253  0.00  0.00    -0.247 OA
BRANCH  13  14
HETATM   14  P           1     -23.114 -13.125   0.770  0.00  0.00     0.411 P 
HETATM   15  O           1     -21.649 -12.946   0.866  0.00  0.00    -0.624 OA
HETATM   16  O           1     -23.659 -13.474   2.101  0.00  0.00    -0.624 OA
BRANCH  14  17
HETATM   17  O           1     -23.442 -14.314  -0.273  0.00  0.00    -0.300 OA
HETATM   18  H           1     -22.963 -15.058   0.047  0.00  0.00     0.223 HD
ENDBRANCH  14  17
ENDBRANCH  13  14
ENDBRANCH  10  13
ENDBRANCH   6   7
ENDBRANCH   5   6
BRANCH   5  19
HETATM   19  N           1     -21.313  -8.567  -5.750  0.00  0.00    -0.066 N 
HETATM   20  H           1     -22.138  -8.706  -6.377  0.00  0.00     0.275 HD
HETATM   21  H           1     -20.651  -7.891  -6.191  0.00  0.00     0.275 HD
HETATM   22  H           1     -20.831  -9.484  -5.603  0.00  0.00     0.275 HD
ENDBRANCH   5  19
ENDBRANCH   2   5
BRANCH   1  23
HETATM   23  C           1     -21.569  -5.528  -6.690  0.00  0.00     0.189 C 
BRANCH  23  24
HETATM   24  C           1     -20.095  -5.591  -6.372  0.00  0.00     0.197 C 
HETATM   25  O           1     -19.530  -4.617  -5.830  0.00  0.00    -0.646 OA
HETATM   26  O           1     -19.439  -6.618  -6.651  0.00  0.00    -0.646 OA
ENDBRANCH  23  24
BRANCH  23  27
HETATM   27  C           1     -21.926  -4.126  -7.165  0.00  0.00     0.074 C 
BRANCH  27  28
HETATM   28  C           1     -22.400  -4.185  -8.584  0.00  0.00    -0.056 A 
HETATM   29  C           1     -23.757  -4.042  -8.872  0.00  0.00     0.010 A 
HETATM   30  C           1     -24.198  -4.097 -10.195  0.00  0.00     0.038 A 
HETATM   31  C           1     -23.282  -4.295 -11.228  0.00  0.00     0.081 A 
HETATM   32  C           1     -21.925  -4.438 -10.938  0.00  0.00     0.038 A 
HETATM   33  C           1     -21.484  -4.383  -9.616  0.00  0.00     0.010 A 
BRANCH  31  34
HETATM   34  O           1     -23.710  -4.349 -12.512  0.00  0.00    -0.247 OA
BRANCH  34  35
HETATM   35  P           1     -23.971  -2.955 -13.284  0.00  0.00     0.411 P 
HETATM   36  O           1     -25.377  -2.536 -13.086  0.00  0.00    -0.624 OA
HETATM   37  O           1     -23.709  -3.135 -14.730  0.00  0.00    -0.624 OA
BRANCH  35  38
HETATM   38  O           1     -22.984  -1.821 -12.694  0.00  0.00    -0.300 OA
HETATM   39  H           1     -22.626  -2.195 -11.907  0.00  0.00     0.223 HD
ENDBRANCH  35  38
ENDBRANCH  34  35
ENDBRANCH  31  34
ENDBRANCH  27  28
ENDBRANCH  23  27
ENDBRANCH   1  23
TORSDOF 14
ENDMDL
MODEL 4
REMARK VINA RESULT:      -8.2      3.010      4.080
REMARK  14 active torsions:
REMARK  status: ('A' for Active; 'I' for Inactive)
REMARK    1  A    between atoms: C_2  and  C_4 
REMARK    2  A    between atoms: C_4  and  C_5 
REMARK    3  A    between atoms: C_4  and  N_17 
REMARK    4  A    between atoms: C_5  and  C_6 
REMARK    5  A    between atoms: C_9  and  O_10 
REMARK    6  A    between atoms: O_10  and  P_11 
REMARK    7  A    between atoms: P_11  and  O_13 
REMARK       I    between atoms: N_17  and  C_18 
REMARK    8  A    between atoms: C_18  and  C_19 
REMARK    9  A    between atoms: C_19  and  C_20 
REMARK   10  A    between atoms: C_19  and  N_32 
REMARK   11  A    between atoms: C_20  and  C_21 
REMARK   12  A    between atoms: C_24  and  O_25 
REMARK   13  A    between atoms: O_25  and  P_26 
REMARK   14  A    between atoms: P_26  and  O_27 
ROOT
HETATM    1  N           1     -21.289  -6.341  -3.088  0.00  0.00    -0.344 N 
HETATM    2  C           1     -21.628  -6.276  -4.413  0.00  0.00     0.249 C 
HETATM    3  O           1     -22.784  -6.132  -4.734  0.00  0.00    -0.271 OA
HETATM    4  H           1     -21.060  -5.495  -2.582  0.00  0.00     0.163 HD
ENDROOT
BRANCH   2   5
HETATM    5  C           1     -20.558  -6.382  -5.472  0.00  0.00     0.278 C 
BRANCH   5   6
HETATM    6  C           1     -20.065  -4.989  -5.837  0.00  0.00     0.081 C 
BRANCH   6   7
HETATM    7  C           1     -20.660  -4.577  -7.149  0.00  0.00    -0.056 A 
HETATM    8  C           1     -21.907  -3.954  -7.183  0.00  0.00     0.010 A 
HETATM    9  C           1     -22.461  -3.570  -8.404  0.00  0.00     0.038 A 
HETATM   10  C           1     -21.769  -3.810  -9.590  0.00  0.00     0.081 A 
HETATM   11  C           1     -20.521  -4.433  -9.556  0.00  0.00     0.038 A 
HETATM   12  C           1     -19.967  -4.817  -8.334  0.00  0.00     0.010 A 
BRANCH  10  13
HETATM   13  O           1     -22.307  -3.438 -10.777  0.00  0.00    -0.247 OA
BRANCH  13  14
HETATM   14  P           1     -23.678  -4.150 -11.245  0.00  0.00     0.411 P 
HETATM   15  O           1     -23.871  -5.400 -10.478  0.00  0.00    -0.624 OA
HETATM   16  O           1     -24.817  -3.237 -10.999  0.00  0.00    -0.624 OA
BRANCH  14  17
HETATM   17  O           1     -23.597  -4.494 -12.821  0.00  0.00    -0.300 OA
HETATM   18  H           1     -22.730  -4.237 -13.082  0.00  0.00     0.223 HD
ENDBRANCH  14  17
ENDBRANCH  13  14
ENDBRANCH  10  13
ENDBRANCH   6   7
ENDBRANCH   5   6
BRANCH   5  19
HETATM   19  N           1     -21.127  -7.047  -6.690  0.00  0.00    -0.066 N 
HETATM   20  H           1     -20.663  -6.664  -7.545  0.00  0.00     0.275 HD
HETATM   21  H           1     -20.960  -8.076  -6.636  0.00  0.00     0.275 HD
HETATM   22  H           1     -22.155  -6.861  -6.740  0.00  0.00     0.275 HD
ENDBRANCH   5  19
ENDBRANCH   2   5
BRANCH   1  23
HETATM   23  C           1     -21.256  -7.623  -2.410  0.00  0.00     0.189 C 
BRANCH  23  24
HETATM   24  C           1     -21.875  -7.482  -1.041  0.00  0.00     0.197 C 
HETATM   25  O           1     -21.468  -8.192  -0.096  0.00  0.00    -0.646 OA
HETATM   26  O           1     -22.793  -6.657  -0.851  0.00  0.00    -0.646 OA
ENDBRANCH  23  24
BRANCH  23  27
HETATM   27  C           1     -19.812  -8.087  -2.271  0.00  0.00     0.074 C 
BRANCH  27  28
HETATM   28  C           1     -19.574  -9.255  -3.177  0.00  0.00    -0.056 A 
HETATM   29  C           1     -20.267 -10.448  -2.974  0.00  0.00     0.010 A 
HETATM   30  C           1     -20.045 -11.536  -3.819  0.00  0.00     0.038 A 
HETATM   31  C           1     -19.129 -11.430  -4.866  0.00  0.00     0.081 A 
HETATM   32  C           1     -18.436 -10.236  -5.068  0.00  0.00     0.038 A 
HETATM   33  C           1     -18.658  -9.149  -4.224  0.00  0.00     0.010 A 
BRANCH  31  34
HETATM   34  O           1     -18.913 -12.487  -5.686  0.00  0.00    -0.247 OA
BRANCH  34  35
HETATM   35  P           1     -19.651 -12.496  -7.122  0.00  0.00     0.411 P 
HETATM   36  O           1     -19.896 -13.894  -7.543  0.00  0.00    -0.624 OA
HETATM   37  O           1     -18.792 -11.823  -8.123  0.00  0.00    -0.624 OA
BRANCH  35  38
HETATM   38  O           1     -21.060 -11.714  -7.007  0.00  0.00    -0.300 OA
HETATM   39  H           1     -20.990 -10.996  -7.612  0.00  0.00     0.223 HD
ENDBRANCH  35  38
ENDBRANCH  34  35
ENDBRANCH  31  34
ENDBRANCH  27  28
ENDBRANCH  23  27
ENDBRANCH   1  23
TORSDOF 14
ENDMDL
MODEL 5
REMARK VINA RESULT:      -8.1      1.562      2.362
REMARK  14 active torsions:
REMARK  status: ('A' for Active; 'I' for Inactive)
REMARK    1  A    between atoms: C_2  and  C_4 
REMARK    2  A    between atoms: C_4  and  C_5 
REMARK    3  A    between atoms: C_4  and  N_17 
REMARK    4  A    between atoms: C_5  and  C_6 
REMARK    5  A    between atoms: C_9  and  O_10 
REMARK    6  A    between atoms: O_10  and  P_11 
REMARK    7  A    between atoms: P_11  and  O_13 
REMARK       I    between atoms: N_17  and  C_18 
REMARK    8  A    between atoms: C_18  and  C_19 
REMARK    9  A    between atoms: C_19  and  C_20 
REMARK   10  A    between atoms: C_19  and  N_32 
REMARK   11  A    between atoms: C_20  and  C_21 
REMARK   12  A    between atoms: C_24  and  O_25 
REMARK   13  A    between atoms: O_25  and  P_26 
REMARK   14  A    between atoms: P_26  and  O_27 
ROOT
HETATM    1  N           1     -19.788  -7.057  -6.061  0.00  0.00    -0.344 N 
HETATM    2  C           1     -20.365  -5.822  -5.930  0.00  0.00     0.249 C 
HETATM    3  O           1     -19.755  -4.923  -5.400  0.00  0.00    -0.271 OA
HETATM    4  H           1     -19.246  -7.277  -6.887  0.00  0.00     0.163 HD
ENDROOT
BRANCH   2   5
HETATM    5  C           1     -21.762  -5.583  -6.448  0.00  0.00     0.278 C 
BRANCH   5   6
HETATM    6  C           1     -21.854  -4.179  -7.030  0.00  0.00     0.081 C 
BRANCH   6   7
HETATM    7  C           1     -22.324  -4.257  -8.450  0.00  0.00    -0.056 A 
HETATM    8  C           1     -23.686  -4.180  -8.739  0.00  0.00     0.010 A 
HETATM    9  C           1     -24.125  -4.252 -10.061  0.00  0.00     0.038 A 
HETATM   10  C           1     -23.200  -4.403 -11.094  0.00  0.00     0.081 A 
HETATM   11  C           1     -21.837  -4.479 -10.806  0.00  0.00     0.038 A 
HETATM   12  C           1     -21.400  -4.407  -9.483  0.00  0.00     0.010 A 
BRANCH  10  13
HETATM   13  O           1     -23.625  -4.473 -12.379  0.00  0.00    -0.247 OA
BRANCH  13  14
HETATM   14  P           1     -24.040  -3.099 -13.117  0.00  0.00     0.411 P 
HETATM   15  O           1     -23.822  -3.237 -14.574  0.00  0.00    -0.624 OA
HETATM   16  O           1     -25.468  -2.810 -12.856  0.00  0.00    -0.624 OA
BRANCH  14  17
HETATM   17  O           1     -23.134  -1.887 -12.551  0.00  0.00    -0.300 OA
HETATM   18  H           1     -23.193  -1.956 -11.614  0.00  0.00     0.223 HD
ENDBRANCH  14  17
ENDBRANCH  13  14
ENDBRANCH  10  13
ENDBRANCH   6   7
ENDBRANCH   5   6
BRANCH   5  19
HETATM   19  N           1     -22.742  -5.722  -5.321  0.00  0.00    -0.066 N 
HETATM   20  H           1     -22.443  -5.118  -4.523  0.00  0.00     0.275 HD
HETATM   21  H           1     -23.690  -5.426  -5.646  0.00  0.00     0.275 HD
HETATM   22  H           1     -22.775  -6.720  -5.009  0.00  0.00     0.275 HD
ENDBRANCH   5  19
ENDBRANCH   2   5
BRANCH   1  23
HETATM   23  C           1     -19.954  -8.049  -5.017  0.00  0.00     0.189 C 
BRANCH  23  24
HETATM   24  C           1     -18.818  -9.040  -5.080  0.00  0.00     0.197 C 
HETATM   25  O           1     -18.164  -9.307  -4.049  0.00  0.00    -0.646 OA
HETATM   26  O           1     -18.530  -9.593  -6.163  0.00  0.00    -0.646 OA
ENDBRANCH  23  24
BRANCH  23  27
HETATM   27  C           1     -21.276  -8.778  -5.214  0.00  0.00     0.074 C 
BRANCH  27  28
HETATM   28  C           1     -21.648  -9.489  -3.951  0.00  0.00    -0.056 A 
HETATM   29  C           1     -21.539  -8.835  -2.724  0.00  0.00     0.010 A 
HETATM   30  C           1     -21.886  -9.499  -1.546  0.00  0.00     0.038 A 
HETATM   31  C           1     -22.342 -10.816  -1.597  0.00  0.00     0.081 A 
HETATM   32  C           1     -22.449 -11.470  -2.824  0.00  0.00     0.038 A 
HETATM   33  C           1     -22.103 -10.807  -4.001  0.00  0.00     0.010 A 
BRANCH  31  34
HETATM   34  O           1     -22.677 -11.461  -0.453  0.00  0.00    -0.247 OA
BRANCH  34  35
HETATM   35  P           1     -21.691 -12.623   0.080  0.00  0.00     0.411 P 
HETATM   36  O           1     -20.293 -12.138   0.046  0.00  0.00    -0.624 OA
HETATM   37  O           1     -21.820 -13.816  -0.786  0.00  0.00    -0.624 OA
BRANCH  35  38
HETATM   38  O           1     -22.088 -13.011   1.597  0.00  0.00    -0.300 OA
HETATM   39  H           1     -21.443 -13.642   1.864  0.00  0.00     0.223 HD
ENDBRANCH  35  38
ENDBRANCH  34  35
ENDBRANCH  31  34
ENDBRANCH  27  28
ENDBRANCH  23  27
ENDBRANCH   1  23
TORSDOF 14
ENDMDL
MODEL 6
REMARK VINA RESULT:      -8.1      3.585      5.049
REMARK  14 active torsions:
REMARK  status: ('A' for Active; 'I' for Inactive)
REMARK    1  A    between atoms: C_2  and  C_4 
REMARK    2  A    between atoms: C_4  and  C_5 
REMARK    3  A    between atoms: C_4  and  N_17 
REMARK    4  A    between atoms: C_5  and  C_6 
REMARK    5  A    between atoms: C_9  and  O_10 
REMARK    6  A    between atoms: O_10  and  P_11 
REMARK    7  A    between atoms: P_11  and  O_13 
REMARK       I    between atoms: N_17  and  C_18 
REMARK    8  A    between atoms: C_18  and  C_19 
REMARK    9  A    between atoms: C_19  and  C_20 
REMARK   10  A    between atoms: C_19  and  N_32 
REMARK   11  A    between atoms: C_20  and  C_21 
REMARK   12  A    between atoms: C_24  and  O_25 
REMARK   13  A    between atoms: O_25  and  P_26 
REMARK   14  A    between atoms: P_26  and  O_27 
ROOT
HETATM    1  N           1     -20.672  -7.064  -3.172  0.00  0.00    -0.344 N 
HETATM    2  C           1     -21.220  -6.585  -4.331  0.00  0.00     0.249 C 
HETATM    3  O           1     -22.393  -6.299  -4.373  0.00  0.00    -0.271 OA
HETATM    4  H           1     -20.280  -6.423  -2.494  0.00  0.00     0.163 HD
ENDROOT
BRANCH   2   5
HETATM    5  C           1     -20.357  -6.412  -5.558  0.00  0.00     0.278 C 
BRANCH   5   6
HETATM    6  C           1     -20.104  -4.929  -5.795  0.00  0.00     0.081 C 
BRANCH   6   7
HETATM    7  C           1     -20.695  -4.527  -7.111  0.00  0.00    -0.056 A 
HETATM    8  C           1     -19.934  -4.626  -8.276  0.00  0.00     0.010 A 
HETATM    9  C           1     -20.483  -4.252  -9.502  0.00  0.00     0.038 A 
HETATM   10  C           1     -21.794  -3.779  -9.563  0.00  0.00     0.081 A 
HETATM   11  C           1     -22.555  -3.681  -8.398  0.00  0.00     0.038 A 
HETATM   12  C           1     -22.005  -4.055  -7.172  0.00  0.00     0.010 A 
BRANCH  10  13
HETATM   13  O           1     -22.328  -3.415 -10.754  0.00  0.00    -0.247 OA
BRANCH  13  14
HETATM   14  P           1     -23.746  -4.062 -11.178  0.00  0.00     0.411 P 
HETATM   15  O           1     -23.863  -4.069 -12.653  0.00  0.00    -0.624 OA
HETATM   16  O           1     -23.829  -5.448 -10.668  0.00  0.00    -0.624 OA
BRANCH  14  17
HETATM   17  O           1     -24.948  -3.185 -10.549  0.00  0.00    -0.300 OA
HETATM   18  H           1     -25.698  -3.753 -10.564  0.00  0.00     0.223 HD
ENDBRANCH  14  17
ENDBRANCH  13  14
ENDBRANCH  10  13
ENDBRANCH   6   7
ENDBRANCH   5   6
BRANCH   5  19
HETATM   19  N           1     -21.060  -6.996  -6.748  0.00  0.00    -0.066 N 
HETATM   20  H           1     -20.544  -7.843  -7.076  0.00  0.00     0.275 HD
HETATM   21  H           1     -22.033  -7.263  -6.480  0.00  0.00     0.275 HD
HETATM   22  H           1     -21.090  -6.287  -7.517  0.00  0.00     0.275 HD
ENDBRANCH   5  19
ENDBRANCH   2   5
BRANCH   1  23
HETATM   23  C           1     -20.655  -8.492  -2.915  0.00  0.00     0.189 C 
BRANCH  23  24
HETATM   24  C           1     -21.815  -8.855  -2.021  0.00  0.00     0.197 C 
HETATM   25  O           1     -22.241  -8.031  -1.184  0.00  0.00    -0.646 OA
HETATM   26  O           1     -22.349  -9.981  -2.117  0.00  0.00    -0.646 OA
ENDBRANCH  23  24
BRANCH  23  27
HETATM   27  C           1     -19.347  -8.868  -2.230  0.00  0.00     0.074 C 
BRANCH  27  28
HETATM   28  C           1     -18.354  -9.309  -3.259  0.00  0.00    -0.056 A 
HETATM   29  C           1     -18.778  -9.620  -4.550  0.00  0.00     0.010 A 
HETATM   30  C           1     -17.851 -10.031  -5.509  0.00  0.00     0.038 A 
HETATM   31  C           1     -16.501 -10.131  -5.175  0.00  0.00     0.081 A 
HETATM   32  C           1     -16.077  -9.821  -3.883  0.00  0.00     0.038 A 
HETATM   33  C           1     -17.003  -9.410  -2.925  0.00  0.00     0.010 A 
BRANCH  31  34
HETATM   34  O           1     -15.601 -10.532  -6.106  0.00  0.00    -0.247 OA
BRANCH  34  35
HETATM   35  P           1     -15.378 -12.118  -6.312  0.00  0.00     0.411 P 
HETATM   36  O           1     -16.246 -12.600  -7.409  0.00  0.00    -0.624 OA
HETATM   37  O           1     -15.721 -12.831  -5.061  0.00  0.00    -0.624 OA
BRANCH  35  38
HETATM   38  O           1     -13.832 -12.399  -6.687  0.00  0.00    -0.300 OA
HETATM   39  H           1     -13.338 -12.037  -5.972  0.00  0.00     0.223 HD
ENDBRANCH  35  38
ENDBRANCH  34  35
ENDBRANCH  31  34
ENDBRANCH  27  28
ENDBRANCH  23  27
ENDBRANCH   1  23
TORSDOF 14
ENDMDL
MODEL 7
REMARK VINA RESULT:      -7.9      2.001     11.132
REMARK  14 active torsions:
REMARK  status: ('A' for Active; 'I' for Inactive)
REMARK    1  A    between atoms: C_2  and  C_4 
REMARK    2  A    between atoms: C_4  and  C_5 
REMARK    3  A    between atoms: C_4  and  N_17 
REMARK    4  A    between atoms: C_5  and  C_6 
REMARK    5  A    between atoms: C_9  and  O_10 
REMARK    6  A    between atoms: O_10  and  P_11 
REMARK    7  A    between atoms: P_11  and  O_13 
REMARK       I    between atoms: N_17  and  C_18 
REMARK    8  A    between atoms: C_18  and  C_19 
REMARK    9  A    between atoms: C_19  and  C_20 
REMARK   10  A    between atoms: C_19  and  N_32 
REMARK   11  A    between atoms: C_20  and  C_21 
REMARK   12  A    between atoms: C_24  and  O_25 
REMARK   13  A    between atoms: O_25  and  P_26 
REMARK   14  A    between atoms: P_26  and  O_27 
ROOT
HETATM    1  N           1     -22.391  -6.410  -4.294  0.00  0.00    -0.344 N 
HETATM    2  C           1     -21.632  -6.576  -3.167  0.00  0.00     0.249 C 
HETATM    3  O           1     -21.088  -5.623  -2.660  0.00  0.00    -0.271 OA
HETATM    4  H           1     -23.380  -6.210  -4.214  0.00  0.00     0.163 HD
ENDROOT
BRANCH   2   5
HETATM    5  C           1     -21.475  -7.948  -2.557  0.00  0.00     0.278 C 
BRANCH   5   6
HETATM    6  C           1     -21.816  -7.886  -1.075  0.00  0.00     0.081 C 
BRANCH   6   7
HETATM    7  C           1     -21.923  -9.277  -0.529  0.00  0.00    -0.056 A 
HETATM    8  C           1     -23.048 -10.052  -0.813  0.00  0.00     0.010 A 
HETATM    9  C           1     -23.148 -11.347  -0.307  0.00  0.00     0.038 A 
HETATM   10  C           1     -22.124 -11.867   0.485  0.00  0.00     0.081 A 
HETATM   11  C           1     -20.999 -11.092   0.768  0.00  0.00     0.038 A 
HETATM   12  C           1     -20.899  -9.797   0.261  0.00  0.00     0.010 A 
BRANCH  10  13
HETATM   13  O           1     -22.221 -13.126   0.978  0.00  0.00    -0.247 OA
BRANCH  13  14
HETATM   14  P           1     -21.401 -14.299   0.230  0.00  0.00     0.411 P 
HETATM   15  O           1     -20.102 -14.501   0.908  0.00  0.00    -0.624 OA
HETATM   16  O           1     -22.184 -15.554   0.275  0.00  0.00    -0.624 OA
BRANCH  14  17
HETATM   17  O           1     -21.144 -13.881  -1.309  0.00  0.00    -0.300 OA
HETATM   18  H           1     -21.427 -12.985  -1.369  0.00  0.00     0.223 HD
ENDBRANCH  14  17
ENDBRANCH  13  14
ENDBRANCH  10  13
ENDBRANCH   6   7
ENDBRANCH   5   6
BRANCH   5  19
HETATM   19  N           1     -20.057  -8.408  -2.725  0.00  0.00    -0.066 N 
HETATM   20  H           1     -19.799  -9.038  -1.933  0.00  0.00     0.275 HD
HETATM   21  H           1     -19.964  -8.927  -3.627  0.00  0.00     0.275 HD
HETATM   22  H           1     -19.419  -7.579  -2.731  0.00  0.00     0.275 HD
ENDBRANCH   5  19
ENDBRANCH   2   5
BRANCH   1  23
HETATM   23  C           1     -21.779  -6.524  -5.604  0.00  0.00     0.189 C 
BRANCH  23  24
HETATM   24  C           1     -20.917  -7.761  -5.650  0.00  0.00     0.197 C 
HETATM   25  O           1     -21.449  -8.892  -5.675  0.00  0.00    -0.646 OA
HETATM   26  O           1     -19.672  -7.656  -5.662  0.00  0.00    -0.646 OA
ENDBRANCH  23  24
BRANCH  23  27
HETATM   27  C           1     -20.919  -5.295  -5.870  0.00  0.00     0.074 C 
BRANCH  27  28
HETATM   28  C           1     -21.226  -4.756  -7.232  0.00  0.00    -0.056 A 
HETATM   29  C           1     -22.474  -4.191  -7.493  0.00  0.00     0.010 A 
HETATM   30  C           1     -22.760  -3.688  -8.764  0.00  0.00     0.038 A 
HETATM   31  C           1     -21.797  -3.752  -9.772  0.00  0.00     0.081 A 
HETATM   32  C           1     -20.550  -4.318  -9.509  0.00  0.00     0.038 A 
HETATM   33  C           1     -20.264  -4.820  -8.240  0.00  0.00     0.010 A 
BRANCH  31  34
HETATM   34  O           1     -22.075  -3.265 -11.005  0.00  0.00    -0.247 OA
BRANCH  34  35
HETATM   35  P           1     -23.395  -3.813 -11.757  0.00  0.00     0.411 P 
HETATM   36  O           1     -24.563  -2.993 -11.366  0.00  0.00    -0.624 OA
HETATM   37  O           1     -23.632  -5.223 -11.372  0.00  0.00    -0.624 OA
BRANCH  35  38
HETATM   38  O           1     -23.182  -3.718 -13.355  0.00  0.00    -0.300 OA
HETATM   39  H           1     -22.303  -4.022 -13.502  0.00  0.00     0.223 HD
ENDBRANCH  35  38
ENDBRANCH  34  35
ENDBRANCH  31  34
ENDBRANCH  27  28
ENDBRANCH  23  27
ENDBRANCH   1  23
TORSDOF 14
ENDMDL
MODEL 8
REMARK VINA RESULT:      -7.8      1.906      2.549
REMARK  14 active torsions:
REMARK  status: ('A' for Active; 'I' for Inactive)
REMARK    1  A    between atoms: C_2  and  C_4 
REMARK    2  A    between atoms: C_4  and  C_5 
REMARK    3  A    between atoms: C_4  and  N_17 
REMARK    4  A    between atoms: C_5  and  C_6 
REMARK    5  A    between atoms: C_9  and  O_10 
REMARK    6  A    between atoms: O_10  and  P_11 
REMARK    7  A    between atoms: P_11  and  O_13 
REMARK       I    between atoms: N_17  and  C_18 
REMARK    8  A    between atoms: C_18  and  C_19 
REMARK    9  A    between atoms: C_19  and  C_20 
REMARK   10  A    between atoms: C_19  and  N_32 
REMARK   11  A    between atoms: C_20  and  C_21 
REMARK   12  A    between atoms: C_24  and  O_25 
REMARK   13  A    between atoms: O_25  and  P_26 
REMARK   14  A    between atoms: P_26  and  O_27 
ROOT
HETATM    1  N           1     -21.020  -7.323  -6.291  0.00  0.00    -0.344 N 
HETATM    2  C           1     -20.320  -6.274  -6.823  0.00  0.00     0.249 C 
HETATM    3  O           1     -19.366  -6.484  -7.535  0.00  0.00    -0.271 OA
HETATM    4  H           1     -21.804  -7.717  -6.797  0.00  0.00     0.163 HD
ENDROOT
BRANCH   2   5
HETATM    5  C           1     -20.740  -4.856  -6.523  0.00  0.00     0.278 C 
BRANCH   5   6
HETATM    6  C           1     -20.253  -3.936  -7.634  0.00  0.00     0.081 C 
BRANCH   6   7
HETATM    7  C           1     -21.139  -4.088  -8.832  0.00  0.00    -0.056 A 
HETATM    8  C           1     -20.577  -4.280 -10.094  0.00  0.00     0.010 A 
HETATM    9  C           1     -21.401  -4.423 -11.210  0.00  0.00     0.038 A 
HETATM   10  C           1     -22.787  -4.372 -11.064  0.00  0.00     0.081 A 
HETATM   11  C           1     -23.349  -4.181  -9.801  0.00  0.00     0.038 A 
HETATM   12  C           1     -22.524  -4.039  -8.685  0.00  0.00     0.010 A 
BRANCH  10  13
HETATM   13  O           1     -23.589  -4.511 -12.148  0.00  0.00    -0.247 OA
BRANCH  13  14
HETATM   14  P           1     -24.010  -3.177 -12.955  0.00  0.00     0.411 P 
HETATM   15  O           1     -23.816  -3.398 -14.405  0.00  0.00    -0.624 OA
HETATM   16  O           1     -25.431  -2.866 -12.687  0.00  0.00    -0.624 OA
BRANCH  14  17
HETATM   17  O           1     -23.089  -1.941 -12.473  0.00  0.00    -0.300 OA
HETATM   18  H           1     -23.091  -1.338 -13.196  0.00  0.00     0.223 HD
ENDBRANCH  14  17
ENDBRANCH  13  14
ENDBRANCH  10  13
ENDBRANCH   6   7
ENDBRANCH   5   6
BRANCH   5  19
HETATM   19  N           1     -20.140  -4.424  -5.217  0.00  0.00    -0.066 N 
HETATM   20  H           1     -19.579  -3.555  -5.362  0.00  0.00     0.275 HD
HETATM   21  H           1     -20.903  -4.236  -4.529  0.00  0.00     0.275 HD
HETATM   22  H           1     -19.519  -5.182  -4.852  0.00  0.00     0.275 HD
ENDBRANCH   5  19
ENDBRANCH   2   5
BRANCH   1  23
HETATM   23  C           1     -20.640  -7.869  -5.003  0.00  0.00     0.189 C 
BRANCH  23  24
HETATM   24  C           1     -19.726  -9.053  -5.209  0.00  0.00     0.197 C 
HETATM   25  O           1     -18.620  -9.097  -4.628  0.00  0.00    -0.646 OA
HETATM   26  O           1     -20.075  -9.988  -5.960  0.00  0.00    -0.646 OA
ENDBRANCH  23  24
BRANCH  23  27
HETATM   27  C           1     -21.888  -8.315  -4.252  0.00  0.00     0.074 C 
BRANCH  27  28
HETATM   28  C           1     -21.494  -9.198  -3.109  0.00  0.00    -0.056 A 
HETATM   29  C           1     -21.860 -10.544  -3.109  0.00  0.00     0.010 A 
HETATM   30  C           1     -21.493 -11.367  -2.043  0.00  0.00     0.038 A 
HETATM   31  C           1     -20.759 -10.843  -0.979  0.00  0.00     0.081 A 
HETATM   32  C           1     -20.395  -9.496  -0.979  0.00  0.00     0.038 A 
HETATM   33  C           1     -20.762  -8.674  -2.044  0.00  0.00     0.010 A 
BRANCH  31  34
HETATM   34  O           1     -20.404 -11.642   0.056  0.00  0.00    -0.247 OA
BRANCH  34  35
HETATM   35  P           1     -19.019 -12.465  -0.063  0.00  0.00     0.411 P 
HETATM   36  O           1     -18.580 -12.492  -1.475  0.00  0.00    -0.624 OA
HETATM   37  O           1     -19.227 -13.850   0.416  0.00  0.00    -0.624 OA
BRANCH  35  38
HETATM   38  O           1     -17.888 -11.746   0.838  0.00  0.00    -0.300 OA
HETATM   39  H           1     -18.251 -10.907   1.062  0.00  0.00     0.223 HD
ENDBRANCH  35  38
ENDBRANCH  34  35
ENDBRANCH  31  34
ENDBRANCH  27  28
ENDBRANCH  23  27
ENDBRANCH   1  23
TORSDOF 14
ENDMDL
MODEL 9
REMARK VINA RESULT:      -7.7      3.182      4.339
REMARK  14 active torsions:
REMARK  status: ('A' for Active; 'I' for Inactive)
REMARK    1  A    between atoms: C_2  and  C_4 
REMARK    2  A    between atoms: C_4  and  C_5 
REMARK    3  A    between atoms: C_4  and  N_17 
REMARK    4  A    between atoms: C_5  and  C_6 
REMARK    5  A    between atoms: C_9  and  O_10 
REMARK    6  A    between atoms: O_10  and  P_11 
REMARK    7  A    between atoms: P_11  and  O_13 
REMARK       I    between atoms: N_17  and  C_18 
REMARK    8  A    between atoms: C_18  and  C_19 
REMARK    9  A    between atoms: C_19  and  C_20 
REMARK   10  A    between atoms: C_19  and  N_32 
REMARK   11  A    between atoms: C_20  and  C_21 
REMARK   12  A    between atoms: C_24  and  O_25 
REMARK   13  A    between atoms: O_25  and  P_26 
REMARK   14  A    between atoms: P_26  and  O_27 
ROOT
HETATM    1  N           1     -20.193  -6.685  -4.717  0.00  0.00    -0.344 N 
HETATM    2  C           1     -20.264  -5.463  -5.330  0.00  0.00     0.249 C 
HETATM    3  O           1     -20.106  -4.453  -4.686  0.00  0.00    -0.271 OA
HETATM    4  H           1     -19.305  -7.168  -4.652  0.00  0.00     0.163 HD
ENDROOT
BRANCH   2   5
HETATM    5  C           1     -20.539  -5.377  -6.812  0.00  0.00     0.278 C 
BRANCH   5   6
HETATM    6  C           1     -21.365  -4.132  -7.104  0.00  0.00     0.081 C 
BRANCH   6   7
HETATM    7  C           1     -21.942  -4.228  -8.483  0.00  0.00    -0.056 A 
HETATM    8  C           1     -21.095  -4.348  -9.585  0.00  0.00     0.010 A 
HETATM    9  C           1     -21.631  -4.438 -10.869  0.00  0.00     0.038 A 
HETATM   10  C           1     -23.014  -4.407 -11.052  0.00  0.00     0.081 A 
HETATM   11  C           1     -23.860  -4.288  -9.949  0.00  0.00     0.038 A 
HETATM   12  C           1     -23.324  -4.198  -8.665  0.00  0.00     0.010 A 
BRANCH  10  13
HETATM   13  O           1     -23.535  -4.494 -12.299  0.00  0.00    -0.247 OA
BRANCH  13  14
HETATM   14  P           1     -23.993  -3.127 -13.027  0.00  0.00     0.411 P 
HETATM   15  O           1     -23.804  -3.261 -14.489  0.00  0.00    -0.624 OA
HETATM   16  O           1     -25.420  -2.867 -12.734  0.00  0.00    -0.624 OA
BRANCH  14  17
HETATM   17  O           1     -23.099  -1.899 -12.480  0.00  0.00    -0.300 OA
HETATM   18  H           1     -22.673  -1.549 -13.243  0.00  0.00     0.223 HD
ENDBRANCH  14  17
ENDBRANCH  13  14
ENDBRANCH  10  13
ENDBRANCH   6   7
ENDBRANCH   5   6
BRANCH   5  19
HETATM   19  N           1     -21.298  -6.595  -7.249  0.00  0.00    -0.066 N 
HETATM   20  H           1     -20.941  -7.432  -6.736  0.00  0.00     0.275 HD
HETATM   21  H           1     -22.313  -6.466  -7.041  0.00  0.00     0.275 HD
HETATM   22  H           1     -21.167  -6.737  -8.277  0.00  0.00     0.275 HD
ENDBRANCH   5  19
ENDBRANCH   2   5
BRANCH   1  23
HETATM   23  C           1     -21.389  -7.288  -4.161  0.00  0.00     0.189 C 
BRANCH  23  24
HETATM   24  C           1     -21.638  -6.730  -2.781  0.00  0.00     0.197 C 
HETATM   25  O           1     -20.941  -7.113  -1.817  0.00  0.00    -0.646 OA
HETATM   26  O           1     -22.540  -5.884  -2.603  0.00  0.00    -0.646 OA
ENDBRANCH  23  24
BRANCH  23  27
HETATM   27  C           1     -21.203  -8.797  -4.073  0.00  0.00     0.074 C 
BRANCH  27  28
HETATM   28  C           1     -19.760  -9.136  -4.283  0.00  0.00    -0.056 A 
HETATM   29  C           1     -19.268  -9.324  -5.574  0.00  0.00     0.010 A 
HETATM   30  C           1     -17.923  -9.640  -5.769  0.00  0.00     0.038 A 
HETATM   31  C           1     -17.070  -9.767  -4.672  0.00  0.00     0.081 A 
HETATM   32  C           1     -17.564  -9.579  -3.380  0.00  0.00     0.038 A 
HETATM   33  C           1     -18.908  -9.263  -3.185  0.00  0.00     0.010 A 
BRANCH  31  34
HETATM   34  O           1     -15.764 -10.074  -4.861  0.00  0.00    -0.247 OA
BRANCH  34  35
HETATM   35  P           1     -15.396 -11.587  -5.288  0.00  0.00     0.411 P 
HETATM   36  O           1     -14.100 -11.970  -4.684  0.00  0.00    -0.624 OA
HETATM   37  O           1     -15.298 -11.674  -6.762  0.00  0.00    -0.624 OA
BRANCH  35  38
HETATM   38  O           1     -16.550 -12.589  -4.764  0.00  0.00    -0.300 OA
HETATM   39  H           1     -16.116 -13.415  -4.638  0.00  0.00     0.223 HD
ENDBRANCH  35  38
ENDBRANCH  34  35
ENDBRANCH  31  34
ENDBRANCH  27  28
ENDBRANCH  23  27
ENDBRANCH   1  23
TORSDOF 14
ENDMDL
