MODEL 1
REMARK VINA RESULT:      -7.1      0.000      0.000
REMARK  8 active torsions:
REMARK  status: ('A' for Active; 'I' for Inactive)
REMARK       I    between atoms: C_1  and  N_2 
REMARK       I    between atoms: C_1  and  N_3 
REMARK    1  A    between atoms: N_4  and  C_21 
REMARK    2  A    between atoms: N_5  and  C_6 
REMARK       I    between atoms: N_5  and  C_20 
REMARK    3  A    between atoms: C_6  and  C_12 
REMARK    4  A    between atoms: N_7  and  C_15 
REMARK    5  A    between atoms: C_15  and  C_19 
REMARK    6  A    between atoms: C_19  and  C_22 
REMARK    7  A    between atoms: C_20  and  C_21 
REMARK    8  A    between atoms: C_21  and  C_22 
ROOT
HETATM    1  C           1     -34.320  -1.852 -11.954  0.00  0.00     0.274 C 
ENDROOT
BRANCH   1   2
HETATM    2  N           1     -34.830  -1.700 -10.552  0.00  0.00    -0.067 N 
HETATM    3  H           1     -34.125  -1.185  -9.979  0.00  0.00     0.275 HD
HETATM    4  H           1     -35.727  -1.164 -10.564  0.00  0.00     0.275 HD
HETATM    5  H           1     -34.994  -2.645 -10.137  0.00  0.00     0.275 HD
ENDBRANCH   1   2
BRANCH   1   6
HETATM    6  C           1     -35.311  -1.245 -12.917  0.00  0.00     0.248 C 
HETATM    7  N           1     -34.867  -0.589 -14.033  0.00  0.00    -0.349 N 
HETATM    8  H           1     -33.874  -0.511 -14.212  0.00  0.00     0.163 HD
HETATM    9  O           1     -36.497  -1.339 -12.703  0.00  0.00    -0.271 OA
BRANCH   7  10
HETATM   10  C           1     -35.819  -0.005 -14.959  0.00  0.00     0.235 C 
BRANCH  10  11
HETATM   11  C           1     -35.858  -0.824 -16.224  0.00  0.00     0.191 C 
HETATM   12  O           1     -34.904  -1.581 -16.509  0.00  0.00    -0.647 OA
HETATM   13  O           1     -36.843  -0.746 -16.989  0.00  0.00    -0.647 OA
ENDBRANCH  10  11
ENDBRANCH   7  10
ENDBRANCH   1   6
BRANCH   1  14
HETATM   14  C           1     -34.144  -3.332 -12.272  0.00  0.00     0.044 C 
BRANCH  14  15
HETATM   15  C           1     -33.672  -4.067 -11.024  0.00  0.00     0.023 C 
BRANCH  15  16
HETATM   16  C           1     -34.586  -5.256 -10.758  0.00  0.00     0.138 C 
BRANCH  16  17
HETATM   17  N           1     -33.825  -6.504 -10.907  0.00  0.00    -0.227 N 
HETATM   18  C           1     -34.183  -7.543 -10.279  0.00  0.00     0.665 C 
HETATM   19  N           1     -33.528  -8.618 -10.408  0.00  0.00    -0.235 N 
HETATM   20  N           1     -35.224  -7.506  -9.502  0.00  0.00    -0.235 N 
HETATM   21  H           1     -33.825  -9.480  -9.887  0.00  0.00     0.174 HD
HETATM   22  H           1     -32.686  -8.649 -11.036  0.00  0.00     0.174 HD
HETATM   23  H           1     -35.520  -8.363  -8.984  0.00  0.00     0.174 HD
HETATM   24  H           1     -35.765  -6.618  -9.396  0.00  0.00     0.174 HD
HETATM   25  H           1     -32.984  -6.534 -11.536  0.00  0.00     0.177 HD
ENDBRANCH  16  17
ENDBRANCH  15  16
ENDBRANCH  14  15
ENDBRANCH   1  14
TORSDOF 8
ENDMDL
MODEL 2
REMARK VINA RESULT:      -6.9      2.376      3.791
REMARK  8 active torsions:
REMARK  status: ('A' for Active; 'I' for Inactive)
REMARK       I    between atoms: C_1  and  N_2 
REMARK       I    between atoms: C_1  and  N_3 
REMARK    1  A    between atoms: N_4  and  C_21 
REMARK    2  A    between atoms: N_5  and  C_6 
REMARK       I    between atoms: N_5  and  C_20 
REMARK    3  A    between atoms: C_6  and  C_12 
REMARK    4  A    between atoms: N_7  and  C_15 
REMARK    5  A    between atoms: C_15  and  C_19 
REMARK    6  A    between atoms: C_19  and  C_22 
REMARK    7  A    between atoms: C_20  and  C_21 
REMARK    8  A    between atoms: C_21  and  C_22 
ROOT
HETATM    1  C           1     -34.167  -2.011 -11.832  0.00  0.00     0.274 C 
ENDROOT
BRANCH   1   2
HETATM    2  N           1     -33.380  -1.821 -10.570  0.00  0.00    -0.067 N 
HETATM    3  H           1     -32.711  -1.028 -10.692  0.00  0.00     0.275 HD
HETATM    4  H           1     -34.033  -1.607  -9.782  0.00  0.00     0.275 HD
HETATM    5  H           1     -32.849  -2.696 -10.356  0.00  0.00     0.275 HD
ENDBRANCH   1   2
BRANCH   1   6
HETATM    6  C           1     -35.552  -1.438 -11.651  0.00  0.00     0.248 C 
HETATM    7  N           1     -35.936  -0.946 -10.433  0.00  0.00    -0.349 N 
HETATM    8  H           1     -35.291  -0.966  -9.654  0.00  0.00     0.163 HD
HETATM    9  O           1     -36.321  -1.414 -12.583  0.00  0.00    -0.271 OA
BRANCH   7  10
HETATM   10  C           1     -37.266  -0.395 -10.260  0.00  0.00     0.235 C 
BRANCH  10  11
HETATM   11  C           1     -37.195   0.824  -9.376  0.00  0.00     0.191 C 
HETATM   12  O           1     -36.258   0.950  -8.557  0.00  0.00    -0.647 OA
HETATM   13  O           1     -38.074   1.710  -9.460  0.00  0.00    -0.647 OA
ENDBRANCH  10  11
ENDBRANCH   7  10
ENDBRANCH   1   6
BRANCH   1  14
HETATM   14  C           1     -34.269  -3.498 -12.147  0.00  0.00     0.044 C 
BRANCH  14  15
HETATM   15  C           1     -33.734  -4.304 -10.971  0.00  0.00     0.023 C 
BRANCH  15  16
HETATM   16  C           1     -34.639  -5.505 -10.725  0.00  0.00     0.138 C 
BRANCH  16  17
HETATM   17  N           1     -33.863  -6.744 -10.874  0.00  0.00    -0.227 N 
HETATM   18  C           1     -34.198  -7.782 -10.231  0.00  0.00     0.665 C 
HETATM   19  N           1     -33.529  -8.849 -10.360  0.00  0.00    -0.235 N 
HETATM   20  N           1     -35.228  -7.752  -9.440  0.00  0.00    -0.235 N 
HETATM   21  H           1     -33.807  -9.710  -9.827  0.00  0.00     0.174 HD
HETATM   22  H           1     -32.696  -8.874 -10.999  0.00  0.00     0.174 HD
HETATM   23  H           1     -35.506  -8.609  -8.911  0.00  0.00     0.174 HD
HETATM   24  H           1     -35.781  -6.871  -9.335  0.00  0.00     0.174 HD
HETATM   25  H           1     -33.030  -6.768 -11.514  0.00  0.00     0.177 HD
ENDBRANCH  16  17
ENDBRANCH  15  16
ENDBRANCH  14  15
ENDBRANCH   1  14
TORSDOF 8
ENDMDL
MODEL 3
REMARK VINA RESULT:      -6.8     12.372     14.209
REMARK  8 active torsions:
REMARK  status: ('A' for Active; 'I' for Inactive)
REMARK       I    between atoms: C_1  and  N_2 
REMARK       I    between atoms: C_1  and  N_3 
REMARK    1  A    between atoms: N_4  and  C_21 
REMARK    2  A    between atoms: N_5  and  C_6 
REMARK       I    between atoms: N_5  and  C_20 
REMARK    3  A    between atoms: C_6  and  C_12 
REMARK    4  A    between atoms: N_7  and  C_15 
REMARK    5  A    between atoms: C_15  and  C_19 
REMARK    6  A    between atoms: C_19  and  C_22 
REMARK    7  A    between atoms: C_20  and  C_21 
REMARK    8  A    between atoms: C_21  and  C_22 
ROOT
HETATM    1  C           1     -23.782  -3.962  -9.975  0.00  0.00     0.274 C 
ENDROOT
BRANCH   1   2
HETATM    2  N           1     -24.850  -3.310  -9.149  0.00  0.00    -0.067 N 
HETATM    3  H           1     -24.669  -2.283  -9.092  0.00  0.00     0.275 HD
HETATM    4  H           1     -25.782  -3.475  -9.592  0.00  0.00     0.275 HD
HETATM    5  H           1     -24.844  -3.719  -8.187  0.00  0.00     0.275 HD
ENDBRANCH   1   2
BRANCH   1   6
HETATM    6  C           1     -22.563  -4.205  -9.119  0.00  0.00     0.248 C 
HETATM    7  N           1     -22.616  -3.973  -7.771  0.00  0.00    -0.349 N 
HETATM    8  H           1     -23.472  -3.638  -7.349  0.00  0.00     0.163 HD
HETATM    9  O           1     -21.541  -4.605  -9.625  0.00  0.00    -0.271 OA
BRANCH   7  10
HETATM   10  C           1     -21.444  -4.207  -6.949  0.00  0.00     0.235 C 
BRANCH  10  11
HETATM   11  C           1     -21.502  -5.600  -6.374  0.00  0.00     0.191 C 
HETATM   12  O           1     -20.819  -6.515  -6.883  0.00  0.00    -0.647 OA
HETATM   13  O           1     -22.234  -5.840  -5.390  0.00  0.00    -0.647 OA
ENDBRANCH  10  11
ENDBRANCH   7  10
ENDBRANCH   1   6
BRANCH   1  14
HETATM   14  C           1     -23.413  -3.049 -11.138  0.00  0.00     0.044 C 
BRANCH  14  15
HETATM   15  C           1     -23.538  -3.817 -12.447  0.00  0.00     0.023 C 
BRANCH  15  16
HETATM   16  C           1     -23.002  -2.964 -13.589  0.00  0.00     0.138 C 
BRANCH  16  17
HETATM   17  N           1     -23.923  -1.848 -13.843  0.00  0.00    -0.227 N 
HETATM   18  C           1     -23.764  -1.114 -14.862  0.00  0.00     0.665 C 
HETATM   19  N           1     -24.558  -0.153 -15.081  0.00  0.00    -0.235 N 
HETATM   20  N           1     -22.785  -1.348 -15.684  0.00  0.00    -0.235 N 
HETATM   21  H           1     -24.426   0.456 -15.926  0.00  0.00     0.174 HD
HETATM   22  H           1     -25.350   0.036 -14.416  0.00  0.00     0.174 HD
HETATM   23  H           1     -22.654  -0.743 -16.525  0.00  0.00     0.174 HD
HETATM   24  H           1     -22.130  -2.142 -15.504  0.00  0.00     0.174 HD
HETATM   25  H           1     -24.715  -1.659 -13.179  0.00  0.00     0.177 HD
ENDBRANCH  16  17
ENDBRANCH  15  16
ENDBRANCH  14  15
ENDBRANCH   1  14
TORSDOF 8
ENDMDL
MODEL 4
REMARK VINA RESULT:      -6.8     11.458     12.409
REMARK  8 active torsions:
REMARK  status: ('A' for Active; 'I' for Inactive)
REMARK       I    between atoms: C_1  and  N_2 
REMARK       I    between atoms: C_1  and  N_3 
REMARK    1  A    between atoms: N_4  and  C_21 
REMARK    2  A    between atoms: N_5  and  C_6 
REMARK       I    between atoms: N_5  and  C_20 
REMARK    3  A    between atoms: C_6  and  C_12 
REMARK    4  A    between atoms: N_7  and  C_15 
REMARK    5  A    between atoms: C_15  and  C_19 
REMARK    6  A    between atoms: C_19  and  C_22 
REMARK    7  A    between atoms: C_20  and  C_21 
REMARK    8  A    between atoms: C_21  and  C_22 
ROOT
HETATM    1  C           1     -20.803  -4.033 -11.364  0.00  0.00     0.274 C 
ENDROOT
BRANCH   1   2
HETATM    2  N           1     -20.181  -2.677 -11.219  0.00  0.00    -0.067 N 
HETATM    3  H           1     -19.534  -2.675 -10.399  0.00  0.00     0.275 HD
HETATM    4  H           1     -19.645  -2.445 -12.086  0.00  0.00     0.275 HD
HETATM    5  H           1     -20.931  -1.963 -11.072  0.00  0.00     0.275 HD
ENDBRANCH   1   2
BRANCH   1   6
HETATM    6  C           1     -22.167  -3.896 -11.995  0.00  0.00     0.248 C 
HETATM    7  N           1     -22.551  -2.701 -12.541  0.00  0.00    -0.349 N 
HETATM    8  H           1     -21.921  -1.910 -12.521  0.00  0.00     0.163 HD
HETATM    9  O           1     -22.919  -4.841 -12.018  0.00  0.00    -0.271 OA
BRANCH   7  10
HETATM   10  C           1     -23.862  -2.569 -13.147  0.00  0.00     0.235 C 
BRANCH  10  11
HETATM   11  C           1     -23.724  -1.958 -14.519  0.00  0.00     0.191 C 
HETATM   12  O           1     -24.519  -1.066 -14.889  0.00  0.00    -0.647 OA
HETATM   13  O           1     -22.814  -2.341 -15.285  0.00  0.00    -0.647 OA
ENDBRANCH  10  11
ENDBRANCH   7  10
ENDBRANCH   1   6
BRANCH   1  14
HETATM   14  C           1     -20.941  -4.677  -9.990  0.00  0.00     0.044 C 
BRANCH  14  15
HETATM   15  C           1     -21.440  -3.642  -8.991  0.00  0.00     0.023 C 
BRANCH  15  16
HETATM   16  C           1     -22.696  -4.164  -8.305  0.00  0.00     0.138 C 
BRANCH  16  17
HETATM   17  N           1     -23.853  -3.355  -8.717  0.00  0.00    -0.227 N 
HETATM   18  C           1     -24.783  -3.881  -9.396  0.00  0.00     0.665 C 
HETATM   19  N           1     -25.780  -3.185  -9.750  0.00  0.00    -0.235 N 
HETATM   20  N           1     -24.716  -5.135  -9.729  0.00  0.00    -0.235 N 
HETATM   21  H           1     -26.551  -3.620 -10.313  0.00  0.00     0.174 HD
HETATM   22  H           1     -25.834  -2.171  -9.481  0.00  0.00     0.174 HD
HETATM   23  H           1     -25.484  -5.569 -10.288  0.00  0.00     0.174 HD
HETATM   24  H           1     -23.894  -5.710  -9.435  0.00  0.00     0.174 HD
HETATM   25  H           1     -23.908  -2.341  -8.448  0.00  0.00     0.177 HD
ENDBRANCH  16  17
ENDBRANCH  15  16
ENDBRANCH  14  15
ENDBRANCH   1  14
TORSDOF 8
ENDMDL
MODEL 5
REMARK VINA RESULT:      -6.7     11.960     12.807
REMARK  8 active torsions:
REMARK  status: ('A' for Active; 'I' for Inactive)
REMARK       I    between atoms: C_1  and  N_2 
REMARK       I    between atoms: C_1  and  N_3 
REMARK    1  A    between atoms: N_4  and  C_21 
REMARK    2  A    between atoms: N_5  and  C_6 
REMARK       I    between atoms: N_5  and  C_20 
REMARK    3  A    between atoms: C_6  and  C_12 
REMARK    4  A    between atoms: N_7  and  C_15 
REMARK    5  A    between atoms: C_15  and  C_19 
REMARK    6  A    between atoms: C_19  and  C_22 
REMARK    7  A    between atoms: C_20  and  C_21 
REMARK    8  A    between atoms: C_21  and  C_22 
ROOT
HETATM    1  C           1     -23.153  -3.604  -9.208  0.00  0.00     0.274 C 
ENDROOT
BRANCH   1   2
HETATM    2  N           1     -23.948  -4.079  -8.028  0.00  0.00    -0.067 N 
HETATM    3  H           1     -23.320  -4.587  -7.366  0.00  0.00     0.275 HD
HETATM    4  H           1     -24.374  -3.257  -7.542  0.00  0.00     0.275 HD
HETATM    5  H           1     -24.705  -4.722  -8.354  0.00  0.00     0.275 HD
ENDBRANCH   1   2
BRANCH   1   6
HETATM    6  C           1     -24.086  -3.319 -10.360  0.00  0.00     0.248 C 
HETATM    7  N           1     -23.587  -3.180 -11.627  0.00  0.00    -0.349 N 
HETATM    8  H           1     -22.592  -3.268 -11.791  0.00  0.00     0.163 HD
HETATM    9  O           1     -25.274  -3.215 -10.163  0.00  0.00    -0.271 OA
BRANCH   7  10
HETATM   10  C           1     -24.483  -2.906 -12.734  0.00  0.00     0.235 C 
BRANCH  10  11
HETATM   11  C           1     -23.689  -2.406 -13.913  0.00  0.00     0.191 C 
HETATM   12  O           1     -22.577  -2.914 -14.180  0.00  0.00    -0.647 OA
HETATM   13  O           1     -24.141  -1.483 -14.625  0.00  0.00    -0.647 OA
ENDBRANCH  10  11
ENDBRANCH   7  10
ENDBRANCH   1   6
BRANCH   1  14
HETATM   14  C           1     -22.157  -4.683  -9.615  0.00  0.00     0.044 C 
BRANCH  14  15
HETATM   15  C           1     -20.739  -4.179  -9.380  0.00  0.00     0.023 C 
BRANCH  15  16
HETATM   16  C           1     -20.326  -4.478  -7.945  0.00  0.00     0.138 C 
BRANCH  16  17
HETATM   17  N           1     -20.621  -5.883  -7.630  0.00  0.00    -0.227 N 
HETATM   18  C           1     -20.799  -6.239  -6.429  0.00  0.00     0.665 C 
HETATM   19  N           1     -21.054  -7.450  -6.159  0.00  0.00    -0.235 N 
HETATM   20  N           1     -20.721  -5.363  -5.473  0.00  0.00    -0.235 N 
HETATM   21  H           1     -21.202  -7.745  -5.163  0.00  0.00     0.174 HD
HETATM   22  H           1     -21.117  -8.158  -6.932  0.00  0.00     0.174 HD
HETATM   23  H           1     -20.869  -5.657  -4.481  0.00  0.00     0.174 HD
HETATM   24  H           1     -20.512  -4.364  -5.696  0.00  0.00     0.174 HD
HETATM   25  H           1     -20.685  -6.591  -8.404  0.00  0.00     0.177 HD
ENDBRANCH  16  17
ENDBRANCH  15  16
ENDBRANCH  14  15
ENDBRANCH   1  14
TORSDOF 8
ENDMDL
MODEL 6
REMARK VINA RESULT:      -6.3     12.518     13.363
REMARK  8 active torsions:
REMARK  status: ('A' for Active; 'I' for Inactive)
REMARK       I    between atoms: C_1  and  N_2 
REMARK       I    between atoms: C_1  and  N_3 
REMARK    1  A    between atoms: N_4  and  C_21 
REMARK    2  A    between atoms: N_5  and  C_6 
REMARK       I    between atoms: N_5  and  C_20 
REMARK    3  A    between atoms: C_6  and  C_12 
REMARK    4  A    between atoms: N_7  and  C_15 
REMARK    5  A    between atoms: C_15  and  C_19 
REMARK    6  A    between atoms: C_19  and  C_22 
REMARK    7  A    between atoms: C_20  and  C_21 
REMARK    8  A    between atoms: C_21  and  C_22 
ROOT
HETATM    1  C           1     -21.388  -4.383 -10.910  0.00  0.00     0.274 C 
ENDROOT
BRANCH   1   2
HETATM    2  N           1     -20.167  -3.596 -11.283  0.00  0.00    -0.067 N 
HETATM    3  H           1     -19.698  -3.249 -10.417  0.00  0.00     0.275 HD
HETATM    4  H           1     -19.508  -4.207 -11.815  0.00  0.00     0.275 HD
HETATM    5  H           1     -20.446  -2.782 -11.878  0.00  0.00     0.275 HD
ENDBRANCH   1   2
BRANCH   1   6
HETATM    6  C           1     -22.615  -3.699 -11.463  0.00  0.00     0.248 C 
HETATM    7  N           1     -22.678  -3.376 -12.791  0.00  0.00    -0.349 N 
HETATM    8  H           1     -21.903  -3.596 -13.403  0.00  0.00     0.163 HD
HETATM    9  O           1     -23.540  -3.436 -10.731  0.00  0.00    -0.271 OA
BRANCH   7  10
HETATM   10  C           1     -23.858  -2.718 -13.322  0.00  0.00     0.235 C 
BRANCH  10  11
HETATM   11  C           1     -23.521  -2.069 -14.641  0.00  0.00     0.191 C 
HETATM   12  O           1     -24.142  -1.050 -15.012  0.00  0.00    -0.647 OA
HETATM   13  O           1     -22.621  -2.550 -15.363  0.00  0.00    -0.647 OA
ENDBRANCH  10  11
ENDBRANCH   7  10
ENDBRANCH   1   6
BRANCH   1  14
HETATM   14  C           1     -21.493  -4.467  -9.393  0.00  0.00     0.044 C 
BRANCH  14  15
HETATM   15  C           1     -20.139  -4.153  -8.771  0.00  0.00     0.023 C 
BRANCH  15  16
HETATM   16  C           1     -19.882  -5.102  -7.607  0.00  0.00     0.138 C 
BRANCH  16  17
HETATM   17  N           1     -20.982  -4.998  -6.638  0.00  0.00    -0.227 N 
HETATM   18  C           1     -21.436  -6.040  -6.081  0.00  0.00     0.665 C 
HETATM   19  N           1     -22.382  -5.950  -5.245  0.00  0.00    -0.235 N 
HETATM   20  N           1     -20.929  -7.203  -6.367  0.00  0.00    -0.235 N 
HETATM   21  H           1     -22.759  -6.815  -4.784  0.00  0.00     0.174 HD
HETATM   22  H           1     -22.792  -5.011  -5.014  0.00  0.00     0.174 HD
HETATM   23  H           1     -21.303  -8.063  -5.907  0.00  0.00     0.174 HD
HETATM   24  H           1     -20.147  -7.276  -7.056  0.00  0.00     0.174 HD
HETATM   25  H           1     -21.391  -4.058  -6.406  0.00  0.00     0.177 HD
ENDBRANCH  16  17
ENDBRANCH  15  16
ENDBRANCH  14  15
ENDBRANCH   1  14
TORSDOF 8
ENDMDL
MODEL 7
REMARK VINA RESULT:      -6.3      2.959      3.635
REMARK  8 active torsions:
REMARK  status: ('A' for Active; 'I' for Inactive)
REMARK       I    between atoms: C_1  and  N_2 
REMARK       I    between atoms: C_1  and  N_3 
REMARK    1  A    between atoms: N_4  and  C_21 
REMARK    2  A    between atoms: N_5  and  C_6 
REMARK       I    between atoms: N_5  and  C_20 
REMARK    3  A    between atoms: C_6  and  C_12 
REMARK    4  A    between atoms: N_7  and  C_15 
REMARK    5  A    between atoms: C_15  and  C_19 
REMARK    6  A    between atoms: C_19  and  C_22 
REMARK    7  A    between atoms: C_20  and  C_21 
REMARK    8  A    between atoms: C_21  and  C_22 
ROOT
HETATM    1  C           1     -33.761  -2.136 -10.977  0.00  0.00     0.274 C 
ENDROOT
BRANCH   1   2
HETATM    2  N           1     -33.726  -1.689  -9.547  0.00  0.00    -0.067 N 
HETATM    3  H           1     -34.653  -1.285  -9.284  0.00  0.00     0.275 HD
HETATM    4  H           1     -33.516  -2.507  -8.931  0.00  0.00     0.275 HD
HETATM    5  H           1     -32.983  -0.962  -9.427  0.00  0.00     0.275 HD
ENDBRANCH   1   2
BRANCH   1   6
HETATM    6  C           1     -34.960  -1.528 -11.664  0.00  0.00     0.248 C 
HETATM    7  N           1     -34.823  -0.374 -12.387  0.00  0.00    -0.349 N 
HETATM    8  H           1     -33.917   0.072 -12.460  0.00  0.00     0.163 HD
HETATM    9  O           1     -36.040  -2.062 -11.576  0.00  0.00    -0.271 OA
BRANCH   7  10
HETATM   10  C           1     -35.975   0.209 -13.047  0.00  0.00     0.235 C 
BRANCH  10  11
HETATM   11  C           1     -35.867  -0.009 -14.535  0.00  0.00     0.191 C 
HETATM   12  O           1     -34.925  -0.686 -15.001  0.00  0.00    -0.647 OA
HETATM   13  O           1     -36.719   0.488 -15.303  0.00  0.00    -0.647 OA
ENDBRANCH  10  11
ENDBRANCH   7  10
ENDBRANCH   1   6
BRANCH   1  14
HETATM   14  C           1     -33.859  -3.655 -11.032  0.00  0.00     0.044 C 
BRANCH  14  15
HETATM   15  C           1     -33.175  -4.164 -12.293  0.00  0.00     0.023 C 
BRANCH  15  16
HETATM   16  C           1     -34.228  -4.498 -13.342  0.00  0.00     0.138 C 
BRANCH  16  17
HETATM   17  N           1     -34.057  -3.619 -14.508  0.00  0.00    -0.227 N 
HETATM   18  C           1     -34.203  -4.081 -15.676  0.00  0.00     0.665 C 
HETATM   19  N           1     -34.058  -3.322 -16.680  0.00  0.00    -0.235 N 
HETATM   20  N           1     -34.504  -5.333 -15.847  0.00  0.00    -0.235 N 
HETATM   21  H           1     -34.178  -3.706 -17.649  0.00  0.00     0.174 HD
HETATM   22  H           1     -33.815  -2.310 -16.542  0.00  0.00     0.174 HD
HETATM   23  H           1     -34.625  -5.715 -16.812  0.00  0.00     0.174 HD
HETATM   24  H           1     -34.625  -5.959 -15.019  0.00  0.00     0.174 HD
HETATM   25  H           1     -33.815  -2.606 -14.369  0.00  0.00     0.177 HD
ENDBRANCH  16  17
ENDBRANCH  15  16
ENDBRANCH  14  15
ENDBRANCH   1  14
TORSDOF 8
ENDMDL
MODEL 8
REMARK VINA RESULT:      -6.2     12.966     14.009
REMARK  8 active torsions:
REMARK  status: ('A' for Active; 'I' for Inactive)
REMARK       I    between atoms: C_1  and  N_2 
REMARK       I    between atoms: C_1  and  N_3 
REMARK    1  A    between atoms: N_4  and  C_21 
REMARK    2  A    between atoms: N_5  and  C_6 
REMARK       I    between atoms: N_5  and  C_20 
REMARK    3  A    between atoms: C_6  and  C_12 
REMARK    4  A    between atoms: N_7  and  C_15 
REMARK    5  A    between atoms: C_15  and  C_19 
REMARK    6  A    between atoms: C_19  and  C_22 
REMARK    7  A    between atoms: C_20  and  C_21 
REMARK    8  A    between atoms: C_21  and  C_22 
ROOT
HETATM    1  C           1     -21.787  -3.911  -7.338  0.00  0.00     0.274 C 
ENDROOT
BRANCH   1   2
HETATM    2  N           1     -23.109  -4.430  -6.858  0.00  0.00    -0.067 N 
HETATM    3  H           1     -22.963  -5.038  -6.021  0.00  0.00     0.275 HD
HETATM    4  H           1     -23.726  -3.627  -6.601  0.00  0.00     0.275 HD
HETATM    5  H           1     -23.561  -4.988  -7.619  0.00  0.00     0.275 HD
ENDBRANCH   1   2
BRANCH   1   6
HETATM    6  C           1     -21.765  -3.909  -8.847  0.00  0.00     0.248 C 
HETATM    7  N           1     -22.926  -3.730  -9.548  0.00  0.00    -0.349 N 
HETATM    8  H           1     -23.800  -3.599  -9.054  0.00  0.00     0.163 HD
HETATM    9  O           1     -20.721  -4.066  -9.435  0.00  0.00    -0.271 OA
BRANCH   7  10
HETATM   10  C           1     -22.905  -3.728 -10.998  0.00  0.00     0.235 C 
BRANCH  10  11
HETATM   11  C           1     -24.230  -3.231 -11.520  0.00  0.00     0.191 C 
HETATM   12  O           1     -24.333  -2.858 -12.709  0.00  0.00    -0.647 OA
HETATM   13  O           1     -25.225  -3.193 -10.765  0.00  0.00    -0.647 OA
ENDBRANCH  10  11
ENDBRANCH   7  10
ENDBRANCH   1   6
BRANCH   1  14
HETATM   14  C           1     -20.671  -4.806  -6.814  0.00  0.00     0.044 C 
BRANCH  14  15
HETATM   15  C           1     -21.237  -6.178  -6.474  0.00  0.00     0.023 C 
BRANCH  15  16
HETATM   16  C           1     -20.758  -6.596  -5.089  0.00  0.00     0.138 C 
BRANCH  16  17
HETATM   17  N           1     -21.592  -5.951  -4.065  0.00  0.00    -0.227 N 
HETATM   18  C           1     -21.620  -6.414  -2.888  0.00  0.00     0.665 C 
HETATM   19  N           1     -22.338  -5.858  -2.006  0.00  0.00    -0.235 N 
HETATM   20  N           1     -20.911  -7.460  -2.584  0.00  0.00    -0.235 N 
HETATM   21  H           1     -22.361  -6.242  -1.029  0.00  0.00     0.174 HD
HETATM   22  H           1     -22.911  -5.013  -2.251  0.00  0.00     0.174 HD
HETATM   23  H           1     -20.933  -7.842  -1.611  0.00  0.00     0.174 HD
HETATM   24  H           1     -20.318  -7.918  -3.311  0.00  0.00     0.174 HD
HETATM   25  H           1     -22.164  -5.105  -4.311  0.00  0.00     0.177 HD
ENDBRANCH  16  17
ENDBRANCH  15  16
ENDBRANCH  14  15
ENDBRANCH   1  14
TORSDOF 8
ENDMDL
MODEL 9
REMARK VINA RESULT:      -6.2     13.715     15.606
REMARK  8 active torsions:
REMARK  status: ('A' for Active; 'I' for Inactive)
REMARK       I    between atoms: C_1  and  N_2 
REMARK       I    between atoms: C_1  and  N_3 
REMARK    1  A    between atoms: N_4  and  C_21 
REMARK    2  A    between atoms: N_5  and  C_6 
REMARK       I    between atoms: N_5  and  C_20 
REMARK    3  A    between atoms: C_6  and  C_12 
REMARK    4  A    between atoms: N_7  and  C_15 
REMARK    5  A    between atoms: C_15  and  C_19 
REMARK    6  A    between atoms: C_19  and  C_22 
REMARK    7  A    between atoms: C_20  and  C_21 
REMARK    8  A    between atoms: C_21  and  C_22 
ROOT
HETATM    1  C           1     -21.233  -4.098  -7.409  0.00  0.00     0.274 C 
ENDROOT
BRANCH   1   2
HETATM    2  N           1     -19.913  -3.965  -8.108  0.00  0.00    -0.067 N 
HETATM    3  H           1     -19.150  -4.309  -7.482  0.00  0.00     0.275 HD
HETATM    4  H           1     -19.925  -4.532  -8.985  0.00  0.00     0.275 HD
HETATM    5  H           1     -19.743  -2.961  -8.344  0.00  0.00     0.275 HD
ENDBRANCH   1   2
BRANCH   1   6
HETATM    6  C           1     -21.312  -5.447  -6.737  0.00  0.00     0.248 C 
HETATM    7  N           1     -22.052  -5.601  -5.596  0.00  0.00    -0.349 N 
HETATM    8  H           1     -22.546  -4.810  -5.203  0.00  0.00     0.163 HD
HETATM    9  O           1     -20.721  -6.391  -7.207  0.00  0.00    -0.271 OA
BRANCH   7  10
HETATM   10  C           1     -22.127  -6.898  -4.950  0.00  0.00     0.235 C 
BRANCH  10  11
HETATM   11  C           1     -21.753  -6.758  -3.496  0.00  0.00     0.191 C 
HETATM   12  O           1     -22.373  -5.955  -2.765  0.00  0.00    -0.647 OA
HETATM   13  O           1     -20.824  -7.445  -3.021  0.00  0.00    -0.647 OA
ENDBRANCH  10  11
ENDBRANCH   7  10
ENDBRANCH   1   6
BRANCH   1  14
HETATM   14  C           1     -22.360  -3.970  -8.426  0.00  0.00     0.044 C 
BRANCH  14  15
HETATM   15  C           1     -21.812  -4.214  -9.825  0.00  0.00     0.023 C 
BRANCH  15  16
HETATM   16  C           1     -22.956  -4.182 -10.831  0.00  0.00     0.138 C 
BRANCH  16  17
HETATM   17  N           1     -22.411  -4.063 -12.191  0.00  0.00    -0.227 N 
HETATM   18  C           1     -22.894  -3.212 -12.994  0.00  0.00     0.665 C 
HETATM   19  N           1     -22.424  -3.109 -14.165  0.00  0.00    -0.235 N 
HETATM   20  N           1     -23.871  -2.443 -12.617  0.00  0.00    -0.235 N 
HETATM   21  H           1     -22.824  -2.403 -14.831  0.00  0.00     0.174 HD
HETATM   22  H           1     -21.633  -3.730 -14.471  0.00  0.00     0.174 HD
HETATM   23  H           1     -24.269  -1.740 -13.279  0.00  0.00     0.174 HD
HETATM   24  H           1     -24.258  -2.528 -11.650  0.00  0.00     0.174 HD
HETATM   25  H           1     -21.620  -4.684 -12.496  0.00  0.00     0.177 HD
ENDBRANCH  16  17
ENDBRANCH  15  16
ENDBRANCH  14  15
ENDBRANCH   1  14
TORSDOF 8
ENDMDL
