MODEL 1
REMARK VINA RESULT:      -5.6      0.000      0.000
REMARK  8 active torsions:
REMARK  status: ('A' for Active; 'I' for Inactive)
REMARK    1  A    between atoms: Se_1  and  C_20 
REMARK    2  A    between atoms: N_2  and  C_19 
REMARK    3  A    between atoms: C_5  and  O_6 
REMARK    4  A    between atoms: C_5  and  C_7 
REMARK    5  A    between atoms: C_7  and  C_8 
REMARK    6  A    between atoms: C_7  and  N_11 
REMARK       I    between atoms: N_11  and  C_18 
REMARK    7  A    between atoms: C_18  and  C_19 
REMARK    8  A    between atoms: C_19  and  C_20 
ROOT
HETATM    1  O           1     -36.472  -1.570 -12.297  0.00  0.00    -0.271 OA
HETATM    2  N           1     -35.054  -1.242 -13.990  0.00  0.00    -0.343 N 
HETATM    3  H           1     -34.123  -1.373 -14.368  0.00  0.00     0.163 HD
HETATM    4  C           1     -35.363  -1.726 -12.748  0.00  0.00     0.249 C 
ENDROOT
BRANCH   2   5
HETATM    5  C           1     -36.059  -0.542 -14.767  0.00  0.00     0.214 C 
BRANCH   5   6
HETATM    6  C           1     -35.867   0.960 -14.608  0.00  0.00     0.147 C 
HETATM    7  C           1     -34.488   1.236 -14.024  0.00  0.00     0.042 C 
BRANCH   6   8
HETATM    8  O           1     -35.977   1.581 -15.861  0.00  0.00    -0.393 OA
HETATM    9  H           1     -35.390   1.129 -16.442  0.00  0.00     0.210 HD
ENDBRANCH   6   8
ENDBRANCH   5   6
BRANCH   5  10
HETATM   10  C           1     -35.919  -0.916 -16.222  0.00  0.00     0.199 C 
HETATM   11  O           1     -36.886  -0.774 -17.000  0.00  0.00    -0.646 OA
HETATM   12  O           1     -34.834  -1.368 -16.649  0.00  0.00    -0.646 OA
ENDBRANCH   5  10
ENDBRANCH   2   5
BRANCH   4  13
HETATM   13  C           1     -34.317  -2.455 -11.940  0.00  0.00     0.274 C 
BRANCH  13  14
HETATM   14  N           1     -33.828  -1.564 -10.836  0.00  0.00    -0.067 N 
HETATM   15  H           1     -34.607  -0.946 -10.516  0.00  0.00     0.275 HD
HETATM   16  H           1     -33.498  -2.151 -10.036  0.00  0.00     0.275 HD
HETATM   17  H           1     -33.039  -0.976 -11.186  0.00  0.00     0.275 HD
ENDBRANCH  13  14
BRANCH  13  18
HETATM   18  C           1     -34.925  -3.716 -11.341  0.00  0.00     0.045 C 
BRANCH  18  19
HETATM   19 Se           1     -33.569  -5.112 -11.245  0.00  0.00     0.000 Se
HETATM   20  H           1     -34.069  -5.841 -12.422  0.00  0.00     0.000 HD
ENDBRANCH  18  19
ENDBRANCH  13  18
ENDBRANCH   4  13
TORSDOF 8
ENDMDL
MODEL 2
REMARK VINA RESULT:      -5.5     13.425     14.614
REMARK  8 active torsions:
REMARK  status: ('A' for Active; 'I' for Inactive)
REMARK    1  A    between atoms: Se_1  and  C_20 
REMARK    2  A    between atoms: N_2  and  C_19 
REMARK    3  A    between atoms: C_5  and  O_6 
REMARK    4  A    between atoms: C_5  and  C_7 
REMARK    5  A    between atoms: C_7  and  C_8 
REMARK    6  A    between atoms: C_7  and  N_11 
REMARK       I    between atoms: N_11  and  C_18 
REMARK    7  A    between atoms: C_18  and  C_19 
REMARK    8  A    between atoms: C_19  and  C_20 
ROOT
HETATM    1  O           1     -21.689  -3.408  -7.357  0.00  0.00    -0.271 OA
HETATM    2  N           1     -22.137  -4.785  -9.057  0.00  0.00    -0.343 N 
HETATM    3  H           1     -22.143  -5.732  -9.417  0.00  0.00     0.163 HD
HETATM    4  C           1     -21.696  -4.538  -7.786  0.00  0.00     0.249 C 
ENDROOT
BRANCH   2   5
HETATM    5  C           1     -22.600  -3.692  -9.891  0.00  0.00     0.214 C 
BRANCH   5   6
HETATM    6  C           1     -21.825  -3.690 -11.201  0.00  0.00     0.147 C 
HETATM    7  C           1     -20.415  -4.212 -10.956  0.00  0.00     0.042 C 
BRANCH   6   8
HETATM    8  O           1     -22.475  -4.516 -12.129  0.00  0.00    -0.393 OA
HETATM    9  H           1     -23.036  -3.961 -12.644  0.00  0.00     0.210 HD
ENDBRANCH   6   8
ENDBRANCH   5   6
BRANCH   5  10
HETATM   10  C           1     -24.071  -3.866 -10.175  0.00  0.00     0.199 C 
HETATM   11  O           1     -24.644  -4.935  -9.877  0.00  0.00    -0.646 OA
HETATM   12  O           1     -24.718  -2.938 -10.710  0.00  0.00    -0.646 OA
ENDBRANCH   5  10
ENDBRANCH   2   5
BRANCH   4  13
HETATM   13  C           1     -21.215  -5.676  -6.919  0.00  0.00     0.274 C 
BRANCH  13  14
HETATM   14  N           1     -19.968  -6.262  -7.511  0.00  0.00    -0.067 N 
HETATM   15  H           1     -20.225  -7.001  -8.205  0.00  0.00     0.275 HD
HETATM   16  H           1     -19.423  -5.510  -7.990  0.00  0.00     0.275 HD
HETATM   17  H           1     -19.387  -6.685  -6.753  0.00  0.00     0.275 HD
ENDBRANCH  13  14
BRANCH  13  18
HETATM   18  C           1     -20.915  -5.156  -5.519  0.00  0.00     0.045 C 
BRANCH  18  19
HETATM   19 Se           1     -21.531  -6.450  -4.198  0.00  0.00     0.000 Se
HETATM   20  H           1     -20.678  -7.541  -4.698  0.00  0.00     0.000 HD
ENDBRANCH  18  19
ENDBRANCH  13  18
ENDBRANCH   4  13
TORSDOF 8
ENDMDL
MODEL 3
REMARK VINA RESULT:      -5.2     10.079     11.196
REMARK  8 active torsions:
REMARK  status: ('A' for Active; 'I' for Inactive)
REMARK    1  A    between atoms: Se_1  and  C_20 
REMARK    2  A    between atoms: N_2  and  C_19 
REMARK    3  A    between atoms: C_5  and  O_6 
REMARK    4  A    between atoms: C_5  and  C_7 
REMARK    5  A    between atoms: C_7  and  C_8 
REMARK    6  A    between atoms: C_7  and  N_11 
REMARK       I    between atoms: N_11  and  C_18 
REMARK    7  A    between atoms: C_18  and  C_19 
REMARK    8  A    between atoms: C_19  and  C_20 
ROOT
HETATM    1  O           1     -28.093  -5.408 -19.355  0.00  0.00    -0.271 OA
HETATM    2  N           1     -27.578  -6.810 -17.695  0.00  0.00    -0.343 N 
HETATM    3  H           1     -26.912  -7.460 -17.296  0.00  0.00     0.163 HD
HETATM    4  C           1     -27.298  -6.183 -18.879  0.00  0.00     0.249 C 
ENDROOT
BRANCH   2   5
HETATM    5  C           1     -28.829  -6.543 -17.010  0.00  0.00     0.214 C 
BRANCH   5   6
HETATM    6  C           1     -29.837  -7.632 -17.351  0.00  0.00     0.147 C 
HETATM    7  C           1     -31.210  -7.006 -17.552  0.00  0.00     0.042 C 
BRANCH   6   8
HETATM    8  O           1     -29.442  -8.281 -18.530  0.00  0.00    -0.393 OA
HETATM    9  H           1     -29.989  -7.949 -19.222  0.00  0.00     0.210 HD
ENDBRANCH   6   8
ENDBRANCH   5   6
BRANCH   5  10
HETATM   10  C           1     -28.591  -6.525 -15.520  0.00  0.00     0.199 C 
HETATM   11  O           1     -29.063  -5.603 -14.822  0.00  0.00    -0.646 OA
HETATM   12  O           1     -27.921  -7.435 -14.984  0.00  0.00    -0.646 OA
ENDBRANCH   5  10
ENDBRANCH   2   5
BRANCH   4  13
HETATM   13  C           1     -25.997  -6.461 -19.590  0.00  0.00     0.274 C 
BRANCH  13  14
HETATM   14  N           1     -25.007  -7.031 -18.617  0.00  0.00    -0.067 N 
HETATM   15  H           1     -24.930  -6.400 -17.788  0.00  0.00     0.275 HD
HETATM   16  H           1     -25.330  -7.976 -18.306  0.00  0.00     0.275 HD
HETATM   17  H           1     -24.074  -7.116 -19.078  0.00  0.00     0.275 HD
ENDBRANCH  13  14
BRANCH  13  18
HETATM   18  C           1     -26.235  -7.461 -20.714  0.00  0.00     0.045 C 
BRANCH  18  19
HETATM   19 Se           1     -24.543  -7.878 -21.585  0.00  0.00     0.000 Se
HETATM   20  H           1     -24.360  -9.156 -20.876  0.00  0.00     0.000 HD
ENDBRANCH  18  19
ENDBRANCH  13  18
ENDBRANCH   4  13
TORSDOF 8
ENDMDL
MODEL 4
REMARK VINA RESULT:      -4.7     13.170     14.314
REMARK  8 active torsions:
REMARK  status: ('A' for Active; 'I' for Inactive)
REMARK    1  A    between atoms: Se_1  and  C_20 
REMARK    2  A    between atoms: N_2  and  C_19 
REMARK    3  A    between atoms: C_5  and  O_6 
REMARK    4  A    between atoms: C_5  and  C_7 
REMARK    5  A    between atoms: C_7  and  C_8 
REMARK    6  A    between atoms: C_7  and  N_11 
REMARK       I    between atoms: N_11  and  C_18 
REMARK    7  A    between atoms: C_18  and  C_19 
REMARK    8  A    between atoms: C_19  and  C_20 
ROOT
HETATM    1  O           1     -20.266  -4.968 -10.085  0.00  0.00    -0.271 OA
HETATM    2  N           1     -22.096  -3.764  -9.653  0.00  0.00    -0.343 N 
HETATM    3  H           1     -22.603  -3.175  -9.004  0.00  0.00     0.163 HD
HETATM    4  C           1     -20.870  -4.265  -9.310  0.00  0.00     0.249 C 
ENDROOT
BRANCH   2   5
HETATM    5  C           1     -22.671  -4.075 -10.948  0.00  0.00     0.214 C 
BRANCH   5   6
HETATM    6  C           1     -24.183  -3.911 -10.885  0.00  0.00     0.147 C 
HETATM    7  C           1     -24.590  -3.510  -9.473  0.00  0.00     0.042 C 
BRANCH   6   8
HETATM    8  O           1     -24.583  -2.915 -11.788  0.00  0.00    -0.393 OA
HETATM    9  H           1     -24.396  -3.239 -12.653  0.00  0.00     0.210 HD
ENDBRANCH   6   8
ENDBRANCH   5   6
BRANCH   5  10
HETATM   10  C           1     -22.105  -3.137 -11.986  0.00  0.00     0.199 C 
HETATM   11  O           1     -22.310  -3.349 -13.200  0.00  0.00    -0.646 OA
HETATM   12  O           1     -21.432  -2.145 -11.630  0.00  0.00    -0.646 OA
ENDBRANCH   5  10
ENDBRANCH   2   5
BRANCH   4  13
HETATM   13  C           1     -20.272  -3.941  -7.963  0.00  0.00     0.274 C 
BRANCH  13  14
HETATM   14  N           1     -21.342  -3.404  -7.058  0.00  0.00    -0.067 N 
HETATM   15  H           1     -21.247  -3.835  -6.111  0.00  0.00     0.275 HD
HETATM   16  H           1     -21.242  -2.366  -6.980  0.00  0.00     0.275 HD
HETATM   17  H           1     -22.281  -3.635  -7.454  0.00  0.00     0.275 HD
ENDBRANCH  13  14
BRANCH  13  18
HETATM   18  C           1     -19.681  -5.204  -7.352  0.00  0.00     0.045 C 
BRANCH  18  19
HETATM   19 Se           1     -20.926  -5.941  -6.046  0.00  0.00     0.000 Se
HETATM   20  H           1     -19.986  -6.961  -5.553  0.00  0.00     0.000 HD
ENDBRANCH  18  19
ENDBRANCH  13  18
ENDBRANCH   4  13
TORSDOF 8
ENDMDL
MODEL 5
REMARK VINA RESULT:      -4.6     13.642     15.284
REMARK  8 active torsions:
REMARK  status: ('A' for Active; 'I' for Inactive)
REMARK    1  A    between atoms: Se_1  and  C_20 
REMARK    2  A    between atoms: N_2  and  C_19 
REMARK    3  A    between atoms: C_5  and  O_6 
REMARK    4  A    between atoms: C_5  and  C_7 
REMARK    5  A    between atoms: C_7  and  C_8 
REMARK    6  A    between atoms: C_7  and  N_11 
REMARK       I    between atoms: N_11  and  C_18 
REMARK    7  A    between atoms: C_18  and  C_19 
REMARK    8  A    between atoms: C_19  and  C_20 
ROOT
HETATM    1  O           1     -21.682  -4.782 -10.229  0.00  0.00    -0.271 OA
HETATM    2  N           1     -22.573  -4.747  -8.182  0.00  0.00    -0.343 N 
HETATM    3  H           1     -23.376  -4.548  -7.599  0.00  0.00     0.163 HD
HETATM    4  C           1     -22.640  -4.544  -9.534  0.00  0.00     0.249 C 
ENDROOT
BRANCH   2   5
HETATM    5  C           1     -21.351  -5.250  -7.584  0.00  0.00     0.214 C 
BRANCH   5   6
HETATM    6  C           1     -20.532  -4.084  -7.047  0.00  0.00     0.147 C 
HETATM    7  C           1     -19.391  -3.781  -8.009  0.00  0.00     0.042 C 
BRANCH   6   8
HETATM    8  O           1     -21.353  -2.954  -6.924  0.00  0.00    -0.393 OA
HETATM    9  H           1     -20.828  -2.275  -6.536  0.00  0.00     0.210 HD
ENDBRANCH   6   8
ENDBRANCH   5   6
BRANCH   5  10
HETATM   10  C           1     -21.695  -6.187  -6.452  0.00  0.00     0.199 C 
HETATM   11  O           1     -22.428  -5.798  -5.519  0.00  0.00    -0.646 OA
HETATM   12  O           1     -21.247  -7.355  -6.450  0.00  0.00    -0.646 OA
ENDBRANCH   5  10
ENDBRANCH   2   5
BRANCH   4  13
HETATM   13  C           1     -23.912  -4.022 -10.156  0.00  0.00     0.274 C 
BRANCH  13  14
HETATM   14  N           1     -24.768  -3.397  -9.093  0.00  0.00    -0.067 N 
HETATM   15  H           1     -25.426  -4.113  -8.710  0.00  0.00     0.275 HD
HETATM   16  H           1     -24.159  -3.037  -8.324  0.00  0.00     0.275 HD
HETATM   17  H           1     -25.314  -2.608  -9.505  0.00  0.00     0.275 HD
ENDBRANCH  13  14
BRANCH  13  18
HETATM   18  C           1     -23.570  -2.977 -11.210  0.00  0.00     0.045 C 
BRANCH  18  19
HETATM   19 Se           1     -24.047  -3.651 -12.975  0.00  0.00     0.000 Se
HETATM   20  H           1     -25.140  -2.685 -13.177  0.00  0.00     0.000 HD
ENDBRANCH  18  19
ENDBRANCH  13  18
ENDBRANCH   4  13
TORSDOF 8
ENDMDL
MODEL 6
REMARK VINA RESULT:      -4.6     15.007     16.347
REMARK  8 active torsions:
REMARK  status: ('A' for Active; 'I' for Inactive)
REMARK    1  A    between atoms: Se_1  and  C_20 
REMARK    2  A    between atoms: N_2  and  C_19 
REMARK    3  A    between atoms: C_5  and  O_6 
REMARK    4  A    between atoms: C_5  and  C_7 
REMARK    5  A    between atoms: C_7  and  C_8 
REMARK    6  A    between atoms: C_7  and  N_11 
REMARK       I    between atoms: N_11  and  C_18 
REMARK    7  A    between atoms: C_18  and  C_19 
REMARK    8  A    between atoms: C_19  and  C_20 
ROOT
HETATM    1  O           1     -21.089  -7.355  -6.669  0.00  0.00    -0.271 OA
HETATM    2  N           1     -21.417  -5.148  -6.604  0.00  0.00    -0.343 N 
HETATM    3  H           1     -21.495  -4.307  -6.044  0.00  0.00     0.163 HD
HETATM    4  C           1     -21.182  -6.354  -6.001  0.00  0.00     0.249 C 
ENDROOT
BRANCH   2   5
HETATM    5  C           1     -21.552  -5.072  -8.046  0.00  0.00     0.214 C 
BRANCH   5   6
HETATM    6  C           1     -22.707  -4.145  -8.399  0.00  0.00     0.147 C 
HETATM    7  C           1     -23.305  -4.567  -9.735  0.00  0.00     0.042 C 
BRANCH   6   8
HETATM    8  O           1     -23.690  -4.223  -7.402  0.00  0.00    -0.393 OA
HETATM    9  H           1     -24.072  -5.082  -7.460  0.00  0.00     0.210 HD
ENDBRANCH   6   8
ENDBRANCH   5   6
BRANCH   5  10
HETATM   10  C           1     -20.274  -4.533  -8.642  0.00  0.00     0.199 C 
HETATM   11  O           1     -19.507  -3.833  -7.948  0.00  0.00    -0.646 OA
HETATM   12  O           1     -19.983  -4.790  -9.831  0.00  0.00    -0.646 OA
ENDBRANCH   5  10
ENDBRANCH   2   5
BRANCH   4  13
HETATM   13  C           1     -21.041  -6.432  -4.501  0.00  0.00     0.274 C 
BRANCH  13  14
HETATM   14  N           1     -22.365  -6.140  -3.858  0.00  0.00    -0.067 N 
HETATM   15  H           1     -22.675  -5.177  -4.119  0.00  0.00     0.275 HD
HETATM   16  H           1     -23.073  -6.834  -4.190  0.00  0.00     0.275 HD
HETATM   17  H           1     -22.271  -6.206  -2.820  0.00  0.00     0.275 HD
ENDBRANCH  13  14
BRANCH  13  18
HETATM   18  C           1     -20.584  -7.830  -4.105  0.00  0.00     0.045 C 
BRANCH  18  19
HETATM   19 Se           1     -20.667  -8.019  -2.168  0.00  0.00     0.000 Se
HETATM   20  H           1     -21.512  -6.830  -1.971  0.00  0.00     0.000 HD
ENDBRANCH  18  19
ENDBRANCH  13  18
ENDBRANCH   4  13
TORSDOF 8
ENDMDL
MODEL 7
REMARK VINA RESULT:      -4.4      9.471     10.276
REMARK  8 active torsions:
REMARK  status: ('A' for Active; 'I' for Inactive)
REMARK    1  A    between atoms: Se_1  and  C_20 
REMARK    2  A    between atoms: N_2  and  C_19 
REMARK    3  A    between atoms: C_5  and  O_6 
REMARK    4  A    between atoms: C_5  and  C_7 
REMARK    5  A    between atoms: C_7  and  C_8 
REMARK    6  A    between atoms: C_7  and  N_11 
REMARK       I    between atoms: N_11  and  C_18 
REMARK    7  A    between atoms: C_18  and  C_19 
REMARK    8  A    between atoms: C_19  and  C_20 
ROOT
HETATM    1  O           1     -27.192  -7.660 -15.369  0.00  0.00    -0.271 OA
HETATM    2  N           1     -27.892  -6.682 -17.250  0.00  0.00    -0.343 N 
HETATM    3  H           1     -27.674  -6.088 -18.041  0.00  0.00     0.163 HD
HETATM    4  C           1     -26.932  -6.952 -16.312  0.00  0.00     0.249 C 
ENDROOT
BRANCH   2   5
HETATM    5  C           1     -29.220  -7.249 -17.113  0.00  0.00     0.214 C 
BRANCH   5   6
HETATM    6  C           1     -30.191  -6.162 -16.672  0.00  0.00     0.147 C 
HETATM    7  C           1     -29.728  -5.578 -15.344  0.00  0.00     0.042 C 
BRANCH   6   8
HETATM    8  O           1     -30.230  -5.149 -17.641  0.00  0.00    -0.393 OA
HETATM    9  H           1     -29.341  -4.996 -17.912  0.00  0.00     0.210 HD
ENDBRANCH   6   8
ENDBRANCH   5   6
BRANCH   5  10
HETATM   10  C           1     -29.664  -7.813 -18.441  0.00  0.00     0.199 C 
HETATM   11  O           1     -28.823  -8.039 -19.337  0.00  0.00    -0.646 OA
HETATM   12  O           1     -30.874  -8.055 -18.643  0.00  0.00    -0.646 OA
ENDBRANCH   5  10
ENDBRANCH   2   5
BRANCH   4  13
HETATM   13  C           1     -25.550  -6.363 -16.455  0.00  0.00     0.274 C 
BRANCH  13  14
HETATM   14  N           1     -24.997  -6.050 -15.096  0.00  0.00    -0.067 N 
HETATM   15  H           1     -24.789  -5.028 -15.030  0.00  0.00     0.275 HD
HETATM   16  H           1     -25.700  -6.309 -14.366  0.00  0.00     0.275 HD
HETATM   17  H           1     -24.119  -6.595 -14.943  0.00  0.00     0.275 HD
ENDBRANCH  13  14
BRANCH  13  18
HETATM   18  C           1     -24.641  -7.366 -17.153  0.00  0.00     0.045 C 
BRANCH  18  19
HETATM   19 Se           1     -24.572  -6.967 -19.059  0.00  0.00     0.000 Se
HETATM   20  H           1     -23.207  -6.415 -19.013  0.00  0.00     0.000 HD
ENDBRANCH  18  19
ENDBRANCH  13  18
ENDBRANCH   4  13
TORSDOF 8
ENDMDL
MODEL 8
REMARK VINA RESULT:      -4.3     15.847     17.573
REMARK  8 active torsions:
REMARK  status: ('A' for Active; 'I' for Inactive)
REMARK    1  A    between atoms: Se_1  and  C_20 
REMARK    2  A    between atoms: N_2  and  C_19 
REMARK    3  A    between atoms: C_5  and  O_6 
REMARK    4  A    between atoms: C_5  and  C_7 
REMARK    5  A    between atoms: C_7  and  C_8 
REMARK    6  A    between atoms: C_7  and  N_11 
REMARK       I    between atoms: N_11  and  C_18 
REMARK    7  A    between atoms: C_18  and  C_19 
REMARK    8  A    between atoms: C_19  and  C_20 
ROOT
HETATM    1  O           1     -20.241  -4.527  -6.201  0.00  0.00    -0.271 OA
HETATM    2  N           1     -21.160  -6.545  -6.466  0.00  0.00    -0.343 N 
HETATM    3  H           1     -21.692  -7.176  -7.053  0.00  0.00     0.163 HD
HETATM    4  C           1     -20.874  -5.280  -6.902  0.00  0.00     0.249 C 
ENDROOT
BRANCH   2   5
HETATM    5  C           1     -20.701  -6.984  -5.162  0.00  0.00     0.214 C 
BRANCH   5   6
HETATM    6  C           1     -21.848  -6.896  -4.164  0.00  0.00     0.147 C 
HETATM    7  C           1     -21.393  -6.118  -2.937  0.00  0.00     0.042 C 
BRANCH   6   8
HETATM    8  O           1     -22.935  -6.238  -4.759  0.00  0.00    -0.393 OA
HETATM    9  H           1     -22.595  -5.457  -5.161  0.00  0.00     0.210 HD
ENDBRANCH   6   8
ENDBRANCH   5   6
BRANCH   5  10
HETATM   10  C           1     -20.222  -8.411  -5.253  0.00  0.00     0.199 C 
HETATM   11  O           1     -20.949  -9.283  -5.775  0.00  0.00    -0.646 OA
HETATM   12  O           1     -19.095  -8.722  -4.808  0.00  0.00    -0.646 OA
ENDBRANCH   5  10
ENDBRANCH   2   5
BRANCH   4  13
HETATM   13  C           1     -21.351  -4.824  -8.259  0.00  0.00     0.274 C 
BRANCH  13  14
HETATM   14  N           1     -22.263  -3.643  -8.098  0.00  0.00    -0.067 N 
HETATM   15  H           1     -23.090  -3.917  -7.521  0.00  0.00     0.275 HD
HETATM   16  H           1     -21.748  -2.869  -7.620  0.00  0.00     0.275 HD
HETATM   17  H           1     -22.585  -3.320  -9.037  0.00  0.00     0.275 HD
ENDBRANCH  13  14
BRANCH  13  18
HETATM   18  C           1     -20.153  -4.425  -9.112  0.00  0.00     0.045 C 
BRANCH  18  19
HETATM   19 Se           1     -20.739  -4.083 -10.939  0.00  0.00     0.000 Se
HETATM   20  H           1     -19.375  -4.048 -11.493  0.00  0.00     0.000 HD
ENDBRANCH  18  19
ENDBRANCH  13  18
ENDBRANCH   4  13
TORSDOF 8
ENDMDL
MODEL 9
REMARK VINA RESULT:      -4.3     14.446     16.048
REMARK  8 active torsions:
REMARK  status: ('A' for Active; 'I' for Inactive)
REMARK    1  A    between atoms: Se_1  and  C_20 
REMARK    2  A    between atoms: N_2  and  C_19 
REMARK    3  A    between atoms: C_5  and  O_6 
REMARK    4  A    between atoms: C_5  and  C_7 
REMARK    5  A    between atoms: C_7  and  C_8 
REMARK    6  A    between atoms: C_7  and  N_11 
REMARK       I    between atoms: N_11  and  C_18 
REMARK    7  A    between atoms: C_18  and  C_19 
REMARK    8  A    between atoms: C_19  and  C_20 
ROOT
HETATM    1  O           1     -19.962  -4.608 -10.367  0.00  0.00    -0.271 OA
HETATM    2  N           1     -21.547  -4.447  -8.802  0.00  0.00    -0.343 N 
HETATM    3  H           1     -22.463  -4.103  -8.540  0.00  0.00     0.163 HD
HETATM    4  C           1     -21.055  -4.199 -10.055  0.00  0.00     0.249 C 
ENDROOT
BRANCH   2   5
HETATM    5  C           1     -20.758  -5.204  -7.849  0.00  0.00     0.214 C 
BRANCH   5   6
HETATM    6  C           1     -19.827  -4.260  -7.100  0.00  0.00     0.147 C 
HETATM    7  C           1     -19.829  -4.617  -5.619  0.00  0.00     0.042 C 
BRANCH   6   8
HETATM    8  O           1     -18.526  -4.386  -7.609  0.00  0.00    -0.393 OA
HETATM    9  H           1     -17.937  -4.118  -6.924  0.00  0.00     0.210 HD
ENDBRANCH   6   8
ENDBRANCH   5   6
BRANCH   5  10
HETATM   10  C           1     -21.677  -5.889  -6.868  0.00  0.00     0.199 C 
HETATM   11  O           1     -21.479  -7.081  -6.552  0.00  0.00    -0.646 OA
HETATM   12  O           1     -22.638  -5.262  -6.371  0.00  0.00    -0.646 OA
ENDBRANCH   5  10
ENDBRANCH   2   5
BRANCH   4  13
HETATM   13  C           1     -21.877  -3.412 -11.046  0.00  0.00     0.274 C 
BRANCH  13  14
HETATM   14  N           1     -21.537  -3.855 -12.440  0.00  0.00    -0.067 N 
HETATM   15  H           1     -22.148  -4.658 -12.710  0.00  0.00     0.275 HD
HETATM   16  H           1     -21.691  -3.062 -13.103  0.00  0.00     0.275 HD
HETATM   17  H           1     -20.536  -4.151 -12.476  0.00  0.00     0.275 HD
ENDBRANCH  13  14
BRANCH  13  18
HETATM   18  C           1     -23.357  -3.656 -10.786  0.00  0.00     0.045 C 
BRANCH  18  19
HETATM   19 Se           1     -24.389  -3.142 -12.357  0.00  0.00     0.000 Se
HETATM   20  H           1     -24.793  -4.519 -12.685  0.00  0.00     0.000 HD
ENDBRANCH  18  19
ENDBRANCH  13  18
ENDBRANCH   4  13
TORSDOF 8
ENDMDL
