MODEL 1
REMARK VINA RESULT:      -6.8      0.000      0.000
REMARK  8 active torsions:
REMARK  status: ('A' for Active; 'I' for Inactive)
REMARK    1  A    between atoms: C_2  and  C_10 
REMARK    2  A    between atoms: C_2  and  C_14 
REMARK    3  A    between atoms: C_2  and  N_16 
REMARK    4  A    between atoms: C_7  and  C_19 
REMARK       I    between atoms: C_10  and  N_11 
REMARK    5  A    between atoms: N_11  and  C_18 
REMARK       I    between atoms: N_12  and  C_13 
REMARK    6  A    between atoms: C_13  and  C_14 
REMARK    7  A    between atoms: C_18  and  C_19 
REMARK    8  A    between atoms: C_18  and  C_23 
ROOT
HETATM    1  H           1     -34.349   0.076 -11.774  0.00  0.00     0.163 HD
HETATM    2  C           1     -35.978  -0.410 -12.954  0.00  0.00     0.249 C 
HETATM    3  N           1     -35.165  -0.517 -11.858  0.00  0.00    -0.345 N 
HETATM    4  O           1     -36.953  -1.117 -13.055  0.00  0.00    -0.271 OA
ENDROOT
BRANCH   2   5
HETATM    5  C           1     -35.658   0.592 -14.037  0.00  0.00     0.283 C 
BRANCH   5   6
HETATM    6  C           1     -35.507  -0.130 -15.369  0.00  0.00     0.145 C 
BRANCH   6   7
HETATM    7  C           1     -36.806  -0.056 -16.133  0.00  0.00     0.217 C 
HETATM    8  N           1     -37.772   0.838 -15.756  0.00  0.00    -0.370 N 
HETATM    9  H           1     -37.615   1.448 -14.964  0.00  0.00     0.159 HD
HETATM   10  H           1     -38.643   0.888 -16.269  0.00  0.00     0.159 HD
HETATM   11  O           1     -36.993  -0.783 -17.080  0.00  0.00    -0.274 OA
ENDBRANCH   6   7
ENDBRANCH   5   6
BRANCH   5  12
HETATM   12  N           1     -34.376   1.294 -13.702  0.00  0.00    -0.066 N 
HETATM   13  H           1     -34.303   1.411 -12.666  0.00  0.00     0.275 HD
HETATM   14  H           1     -33.569   0.726 -14.045  0.00  0.00     0.275 HD
HETATM   15  H           1     -34.362   2.232 -14.161  0.00  0.00     0.275 HD
ENDBRANCH   5  12
ENDBRANCH   2   5
BRANCH   3  16
HETATM   16  C           1     -35.473  -1.478 -10.818  0.00  0.00     0.185 C 
BRANCH  16  17
HETATM   17  C           1     -34.178  -1.999 -10.208  0.00  0.00     0.040 C 
BRANCH  17  18
HETATM   18  C           1     -33.998  -3.466 -10.573  0.00  0.00    -0.020 C 
HETATM   19  C           1     -35.315  -4.022 -11.099  0.00  0.00     0.009 C 
HETATM   20  C           1     -32.927  -3.593 -11.649  0.00  0.00     0.009 C 
ENDBRANCH  17  18
ENDBRANCH  16  17
BRANCH  16  21
HETATM   21  C           1     -36.303  -0.813  -9.748  0.00  0.00     0.196 C 
HETATM   22  O           1     -35.743  -0.254  -8.780  0.00  0.00    -0.646 OA
HETATM   23  O           1     -37.551  -0.820  -9.829  0.00  0.00    -0.646 OA
ENDBRANCH  16  21
ENDBRANCH   3  16
TORSDOF 8
ENDMDL
MODEL 2
REMARK VINA RESULT:      -6.5      2.876      5.528
REMARK  8 active torsions:
REMARK  status: ('A' for Active; 'I' for Inactive)
REMARK    1  A    between atoms: C_2  and  C_10 
REMARK    2  A    between atoms: C_2  and  C_14 
REMARK    3  A    between atoms: C_2  and  N_16 
REMARK    4  A    between atoms: C_7  and  C_19 
REMARK       I    between atoms: C_10  and  N_11 
REMARK    5  A    between atoms: N_11  and  C_18 
REMARK       I    between atoms: N_12  and  C_13 
REMARK    6  A    between atoms: C_13  and  C_14 
REMARK    7  A    between atoms: C_18  and  C_19 
REMARK    8  A    between atoms: C_18  and  C_23 
ROOT
HETATM    1  H           1     -35.945  -2.847 -12.760  0.00  0.00     0.163 HD
HETATM    2  C           1     -34.222  -2.694 -11.623  0.00  0.00     0.249 C 
HETATM    3  N           1     -35.362  -2.223 -12.217  0.00  0.00    -0.345 N 
HETATM    4  O           1     -33.526  -1.949 -10.974  0.00  0.00    -0.271 OA
ENDROOT
BRANCH   2   5
HETATM    5  C           1     -33.835  -4.144 -11.778  0.00  0.00     0.283 C 
BRANCH   5   6
HETATM    6  C           1     -34.036  -4.869 -10.453  0.00  0.00     0.145 C 
BRANCH   6   7
HETATM    7  C           1     -34.580  -6.252 -10.712  0.00  0.00     0.217 C 
HETATM    8  N           1     -34.899  -6.634 -11.988  0.00  0.00    -0.370 N 
HETATM    9  H           1     -34.770  -5.989 -12.756  0.00  0.00     0.159 HD
HETATM   10  H           1     -35.263  -7.562 -12.162  0.00  0.00     0.159 HD
HETATM   11  O           1     -34.733  -7.023  -9.795  0.00  0.00    -0.274 OA
ENDBRANCH   6   7
ENDBRANCH   5   6
BRANCH   5  12
HETATM   12  N           1     -32.393  -4.235 -12.181  0.00  0.00    -0.066 N 
HETATM   13  H           1     -32.110  -5.239 -12.243  0.00  0.00     0.275 HD
HETATM   14  H           1     -32.264  -3.780 -13.113  0.00  0.00     0.275 HD
HETATM   15  H           1     -31.800  -3.749 -11.471  0.00  0.00     0.275 HD
ENDBRANCH   5  12
ENDBRANCH   2   5
BRANCH   3  16
HETATM   16  C           1     -35.735  -0.830 -12.067  0.00  0.00     0.185 C 
BRANCH  16  17
HETATM   17  C           1     -36.431  -0.351 -13.335  0.00  0.00     0.040 C 
BRANCH  17  18
HETATM   18  C           1     -35.387   0.101 -14.347  0.00  0.00    -0.020 C 
HETATM   19  C           1     -36.087   0.669 -15.575  0.00  0.00     0.009 C 
HETATM   20  C           1     -34.506   1.175 -13.723  0.00  0.00     0.009 C 
ENDBRANCH  17  18
ENDBRANCH  16  17
BRANCH  16  21
HETATM   21  C           1     -36.670  -0.683 -10.893  0.00  0.00     0.196 C 
HETATM   22  O           1     -36.246  -0.230  -9.808  0.00  0.00    -0.646 OA
HETATM   23  O           1     -37.871  -1.015 -11.005  0.00  0.00    -0.646 OA
ENDBRANCH  16  21
ENDBRANCH   3  16
TORSDOF 8
ENDMDL
MODEL 3
REMARK VINA RESULT:      -6.3     12.654     15.411
REMARK  8 active torsions:
REMARK  status: ('A' for Active; 'I' for Inactive)
REMARK    1  A    between atoms: C_2  and  C_10 
REMARK    2  A    between atoms: C_2  and  C_14 
REMARK    3  A    between atoms: C_2  and  N_16 
REMARK    4  A    between atoms: C_7  and  C_19 
REMARK       I    between atoms: C_10  and  N_11 
REMARK    5  A    between atoms: N_11  and  C_18 
REMARK       I    between atoms: N_12  and  C_13 
REMARK    6  A    between atoms: C_13  and  C_14 
REMARK    7  A    between atoms: C_18  and  C_19 
REMARK    8  A    between atoms: C_18  and  C_23 
ROOT
HETATM    1  H           1     -23.963  -5.075  -8.544  0.00  0.00     0.163 HD
HETATM    2  C           1     -22.311  -4.118  -7.744  0.00  0.00     0.249 C 
HETATM    3  N           1     -23.234  -4.393  -8.716  0.00  0.00    -0.345 N 
HETATM    4  O           1     -21.442  -3.304  -7.949  0.00  0.00    -0.271 OA
ENDROOT
BRANCH   2   5
HETATM    5  C           1     -22.378  -4.831  -6.415  0.00  0.00     0.283 C 
BRANCH   5   6
HETATM    6  C           1     -21.446  -6.035  -6.436  0.00  0.00     0.145 C 
BRANCH   6   7
HETATM    7  C           1     -21.212  -6.515  -5.025  0.00  0.00     0.217 C 
HETATM    8  N           1     -20.391  -7.587  -4.794  0.00  0.00    -0.370 N 
HETATM    9  H           1     -19.942  -8.056  -5.569  0.00  0.00     0.159 HD
HETATM   10  H           1     -20.233  -7.908  -3.847  0.00  0.00     0.159 HD
HETATM   11  O           1     -21.746  -5.953  -4.098  0.00  0.00    -0.274 OA
ENDBRANCH   6   7
ENDBRANCH   5   6
BRANCH   5  12
HETATM   12  N           1     -23.784  -5.294  -6.169  0.00  0.00    -0.066 N 
HETATM   13  H           1     -24.327  -5.250  -7.061  0.00  0.00     0.275 HD
HETATM   14  H           1     -23.769  -6.279  -5.820  0.00  0.00     0.275 HD
HETATM   15  H           1     -24.234  -4.678  -5.456  0.00  0.00     0.275 HD
ENDBRANCH   5  12
ENDBRANCH   2   5
BRANCH   3  16
HETATM   16  C           1     -23.171  -3.708  -9.992  0.00  0.00     0.185 C 
BRANCH  16  17
HETATM   17  C           1     -22.639  -4.660 -11.054  0.00  0.00     0.040 C 
BRANCH  17  18
HETATM   18  C           1     -21.299  -4.152 -11.568  0.00  0.00    -0.020 C 
HETATM   19  C           1     -21.274  -2.631 -11.496  0.00  0.00     0.009 C 
HETATM   20  C           1     -20.177  -4.720 -10.709  0.00  0.00     0.009 C 
ENDBRANCH  17  18
ENDBRANCH  16  17
BRANCH  16  21
HETATM   21  C           1     -24.551  -3.239 -10.380  0.00  0.00     0.196 C 
HETATM   22  O           1     -25.366  -2.897  -9.497  0.00  0.00    -0.646 OA
HETATM   23  O           1     -24.879  -3.194 -11.586  0.00  0.00    -0.646 OA
ENDBRANCH  16  21
ENDBRANCH   3  16
TORSDOF 8
ENDMDL
MODEL 4
REMARK VINA RESULT:      -6.1     12.730     14.640
REMARK  8 active torsions:
REMARK  status: ('A' for Active; 'I' for Inactive)
REMARK    1  A    between atoms: C_2  and  C_10 
REMARK    2  A    between atoms: C_2  and  C_14 
REMARK    3  A    between atoms: C_2  and  N_16 
REMARK    4  A    between atoms: C_7  and  C_19 
REMARK       I    between atoms: C_10  and  N_11 
REMARK    5  A    between atoms: N_11  and  C_18 
REMARK       I    between atoms: N_12  and  C_13 
REMARK    6  A    between atoms: C_13  and  C_14 
REMARK    7  A    between atoms: C_18  and  C_19 
REMARK    8  A    between atoms: C_18  and  C_23 
ROOT
HETATM    1  H           1     -22.388  -6.198  -9.103  0.00  0.00     0.163 HD
HETATM    2  C           1     -23.140  -4.273  -9.215  0.00  0.00     0.249 C 
HETATM    3  N           1     -22.268  -5.240  -8.796  0.00  0.00    -0.345 N 
HETATM    4  O           1     -22.996  -3.130  -8.850  0.00  0.00    -0.271 OA
ENDROOT
BRANCH   2   5
HETATM    5  C           1     -24.282  -4.632 -10.134  0.00  0.00     0.283 C 
BRANCH   5   6
HETATM    6  C           1     -23.796  -4.619 -11.578  0.00  0.00     0.145 C 
BRANCH   6   7
HETATM    7  C           1     -24.092  -3.275 -12.197  0.00  0.00     0.217 C 
HETATM    8  N           1     -23.153  -2.279 -12.152  0.00  0.00    -0.370 N 
HETATM    9  H           1     -22.261  -2.445 -11.705  0.00  0.00     0.159 HD
HETATM   10  H           1     -23.351  -1.378 -12.568  0.00  0.00     0.159 HD
HETATM   11  O           1     -25.156  -3.077 -12.733  0.00  0.00    -0.274 OA
ENDBRANCH   6   7
ENDBRANCH   5   6
BRANCH   5  12
HETATM   12  N           1     -25.387  -3.631  -9.971  0.00  0.00    -0.066 N 
HETATM   13  H           1     -24.979  -2.673  -9.881  0.00  0.00     0.275 HD
HETATM   14  H           1     -26.012  -3.665 -10.808  0.00  0.00     0.275 HD
HETATM   15  H           1     -25.940  -3.858  -9.114  0.00  0.00     0.275 HD
ENDBRANCH   5  12
ENDBRANCH   2   5
BRANCH   3  16
HETATM   16  C           1     -21.170  -4.895  -7.914  0.00  0.00     0.185 C 
BRANCH  16  17
HETATM   17  C           1     -20.848  -6.082  -7.015  0.00  0.00     0.040 C 
BRANCH  17  18
HETATM   18  C           1     -21.195  -5.737  -5.574  0.00  0.00    -0.020 C 
HETATM   19  C           1     -21.191  -7.008  -4.734  0.00  0.00     0.009 C 
HETATM   20  C           1     -20.164  -4.761  -5.023  0.00  0.00     0.009 C 
ENDBRANCH  17  18
ENDBRANCH  16  17
BRANCH  16  21
HETATM   21  C           1     -19.956  -4.541  -8.737  0.00  0.00     0.196 C 
HETATM   22  O           1     -19.007  -3.919  -8.214  0.00  0.00    -0.646 OA
HETATM   23  O           1     -19.900  -4.871  -9.942  0.00  0.00    -0.646 OA
ENDBRANCH  16  21
ENDBRANCH   3  16
TORSDOF 8
ENDMDL
MODEL 5
REMARK VINA RESULT:      -6.1     13.408     15.345
REMARK  8 active torsions:
REMARK  status: ('A' for Active; 'I' for Inactive)
REMARK    1  A    between atoms: C_2  and  C_10 
REMARK    2  A    between atoms: C_2  and  C_14 
REMARK    3  A    between atoms: C_2  and  N_16 
REMARK    4  A    between atoms: C_7  and  C_19 
REMARK       I    between atoms: C_10  and  N_11 
REMARK    5  A    between atoms: N_11  and  C_18 
REMARK       I    between atoms: N_12  and  C_13 
REMARK    6  A    between atoms: C_13  and  C_14 
REMARK    7  A    between atoms: C_18  and  C_19 
REMARK    8  A    between atoms: C_18  and  C_23 
ROOT
HETATM    1  H           1     -22.965  -6.218  -7.333  0.00  0.00     0.163 HD
HETATM    2  C           1     -22.495  -4.263  -7.829  0.00  0.00     0.249 C 
HETATM    3  N           1     -22.430  -5.399  -7.068  0.00  0.00    -0.345 N 
HETATM    4  O           1     -21.857  -3.287  -7.513  0.00  0.00    -0.271 OA
ENDROOT
BRANCH   2   5
HETATM    5  C           1     -23.364  -4.230  -9.062  0.00  0.00     0.283 C 
BRANCH   5   6
HETATM    6  C           1     -22.555  -3.703 -10.240  0.00  0.00     0.145 C 
BRANCH   6   7
HETATM    7  C           1     -23.417  -3.692 -11.479  0.00  0.00     0.217 C 
HETATM    8  N           1     -23.398  -4.759 -12.336  0.00  0.00    -0.370 N 
HETATM    9  H           1     -22.806  -5.555 -12.139  0.00  0.00     0.159 HD
HETATM   10  H           1     -23.978  -4.752 -13.166  0.00  0.00     0.159 HD
HETATM   11  O           1     -24.126  -2.742 -11.713  0.00  0.00    -0.274 OA
ENDBRANCH   6   7
ENDBRANCH   5   6
BRANCH   5  12
HETATM   12  N           1     -24.538  -3.327  -8.821  0.00  0.00    -0.066 N 
HETATM   13  H           1     -24.794  -2.843  -9.711  0.00  0.00     0.275 HD
HETATM   14  H           1     -25.350  -3.894  -8.488  0.00  0.00     0.275 HD
HETATM   15  H           1     -24.289  -2.616  -8.097  0.00  0.00     0.275 HD
ENDBRANCH   5  12
ENDBRANCH   2   5
BRANCH   3  16
HETATM   16  C           1     -21.594  -5.432  -5.884  0.00  0.00     0.185 C 
BRANCH  16  17
HETATM   17  C           1     -22.059  -6.555  -4.965  0.00  0.00     0.040 C 
BRANCH  17  18
HETATM   18  C           1     -21.194  -6.577  -3.713  0.00  0.00    -0.020 C 
HETATM   19  C           1     -22.033  -6.160  -2.512  0.00  0.00     0.009 C 
HETATM   20  C           1     -20.657  -7.985  -3.492  0.00  0.00     0.009 C 
ENDBRANCH  17  18
ENDBRANCH  16  17
BRANCH  16  21
HETATM   21  C           1     -20.161  -5.671  -6.287  0.00  0.00     0.196 C 
HETATM   22  O           1     -19.839  -6.742  -6.847  0.00  0.00    -0.646 OA
HETATM   23  O           1     -19.294  -4.799  -6.061  0.00  0.00    -0.646 OA
ENDBRANCH  16  21
ENDBRANCH   3  16
TORSDOF 8
ENDMDL
MODEL 6
REMARK VINA RESULT:      -5.9      9.518     11.041
REMARK  8 active torsions:
REMARK  status: ('A' for Active; 'I' for Inactive)
REMARK    1  A    between atoms: C_2  and  C_10 
REMARK    2  A    between atoms: C_2  and  C_14 
REMARK    3  A    between atoms: C_2  and  N_16 
REMARK    4  A    between atoms: C_7  and  C_19 
REMARK       I    between atoms: C_10  and  N_11 
REMARK    5  A    between atoms: N_11  and  C_18 
REMARK       I    between atoms: N_12  and  C_13 
REMARK    6  A    between atoms: C_13  and  C_14 
REMARK    7  A    between atoms: C_18  and  C_19 
REMARK    8  A    between atoms: C_18  and  C_23 
ROOT
HETATM    1  H           1     -29.013  -5.112 -18.631  0.00  0.00     0.163 HD
HETATM    2  C           1     -29.962  -6.798 -17.893  0.00  0.00     0.249 C 
HETATM    3  N           1     -28.896  -6.084 -18.370  0.00  0.00    -0.345 N 
HETATM    4  O           1     -29.823  -7.956 -17.582  0.00  0.00    -0.271 OA
ENDROOT
BRANCH   2   5
HETATM    5  C           1     -31.312  -6.137 -17.755  0.00  0.00     0.283 C 
BRANCH   5   6
HETATM    6  C           1     -31.225  -5.011 -16.733  0.00  0.00     0.145 C 
BRANCH   6   7
HETATM    7  C           1     -31.961  -3.800 -17.254  0.00  0.00     0.217 C 
HETATM    8  N           1     -33.306  -3.670 -17.033  0.00  0.00    -0.370 N 
HETATM    9  H           1     -33.806  -4.385 -16.522  0.00  0.00     0.159 HD
HETATM   10  H           1     -33.799  -2.857 -17.381  0.00  0.00     0.159 HD
HETATM   11  O           1     -31.363  -2.945 -17.862  0.00  0.00    -0.274 OA
ENDBRANCH   6   7
ENDBRANCH   5   6
BRANCH   5  12
HETATM   12  N           1     -32.318  -7.151 -17.295  0.00  0.00    -0.066 N 
HETATM   13  H           1     -33.206  -6.666 -17.031  0.00  0.00     0.275 HD
HETATM   14  H           1     -32.509  -7.826 -18.069  0.00  0.00     0.275 HD
HETATM   15  H           1     -31.942  -7.665 -16.468  0.00  0.00     0.275 HD
ENDBRANCH   5  12
ENDBRANCH   2   5
BRANCH   3  16
HETATM   16  C           1     -27.599  -6.717 -18.502  0.00  0.00     0.185 C 
BRANCH  16  17
HETATM   17  C           1     -26.966  -6.309 -19.825  0.00  0.00     0.040 C 
BRANCH  17  18
HETATM   18  C           1     -26.180  -7.481 -20.396  0.00  0.00    -0.020 C 
HETATM   19  C           1     -27.117  -8.380 -21.192  0.00  0.00     0.009 C 
HETATM   20  C           1     -25.080  -6.957 -21.310  0.00  0.00     0.009 C 
ENDBRANCH  17  18
ENDBRANCH  16  17
BRANCH  16  21
HETATM   21  C           1     -26.710  -6.284 -17.363  0.00  0.00     0.196 C 
HETATM   22  O           1     -25.469  -6.266 -17.510  0.00  0.00    -0.646 OA
HETATM   23  O           1     -27.215  -5.943 -16.270  0.00  0.00    -0.646 OA
ENDBRANCH  16  21
ENDBRANCH   3  16
TORSDOF 8
ENDMDL
MODEL 7
REMARK VINA RESULT:      -5.9     15.145     17.069
REMARK  8 active torsions:
REMARK  status: ('A' for Active; 'I' for Inactive)
REMARK    1  A    between atoms: C_2  and  C_10 
REMARK    2  A    between atoms: C_2  and  C_14 
REMARK    3  A    between atoms: C_2  and  N_16 
REMARK    4  A    between atoms: C_7  and  C_19 
REMARK       I    between atoms: C_10  and  N_11 
REMARK    5  A    between atoms: N_11  and  C_18 
REMARK       I    between atoms: N_12  and  C_13 
REMARK    6  A    between atoms: C_13  and  C_14 
REMARK    7  A    between atoms: C_18  and  C_19 
REMARK    8  A    between atoms: C_18  and  C_23 
ROOT
HETATM    1  H           1     -21.968  -7.154  -6.825  0.00  0.00     0.163 HD
HETATM    2  C           1     -20.818  -5.434  -6.768  0.00  0.00     0.249 C 
HETATM    3  N           1     -21.236  -6.660  -6.328  0.00  0.00    -0.345 N 
HETATM    4  O           1     -19.945  -4.844  -6.176  0.00  0.00    -0.271 OA
ENDROOT
BRANCH   2   5
HETATM    5  C           1     -21.447  -4.817  -7.994  0.00  0.00     0.283 C 
BRANCH   5   6
HETATM    6  C           1     -20.382  -4.615  -9.065  0.00  0.00     0.145 C 
BRANCH   6   7
HETATM    7  C           1     -21.047  -4.318 -10.387  0.00  0.00     0.217 C 
HETATM    8  N           1     -20.335  -3.719 -11.391  0.00  0.00    -0.370 N 
HETATM    9  H           1     -19.363  -3.476 -11.247  0.00  0.00     0.159 HD
HETATM   10  H           1     -20.780  -3.520 -12.278  0.00  0.00     0.159 HD
HETATM   11  O           1     -22.206  -4.610 -10.560  0.00  0.00    -0.274 OA
ENDBRANCH   6   7
ENDBRANCH   5   6
BRANCH   5  12
HETATM   12  N           1     -22.047  -3.491  -7.633  0.00  0.00    -0.066 N 
HETATM   13  H           1     -21.682  -2.755  -8.280  0.00  0.00     0.275 HD
HETATM   14  H           1     -23.087  -3.545  -7.720  0.00  0.00     0.275 HD
HETATM   15  H           1     -21.792  -3.248  -6.650  0.00  0.00     0.275 HD
ENDBRANCH   5  12
ENDBRANCH   2   5
BRANCH   3  16
HETATM   16  C           1     -20.632  -7.253  -5.152  0.00  0.00     0.185 C 
BRANCH  16  17
HETATM   17  C           1     -21.677  -7.376  -4.050  0.00  0.00     0.040 C 
BRANCH  17  18
HETATM   18  C           1     -21.089  -6.883  -2.735  0.00  0.00    -0.020 C 
HETATM   19  C           1     -22.185  -6.226  -1.906  0.00  0.00     0.009 C 
HETATM   20  C           1     -20.508  -8.062  -1.966  0.00  0.00     0.009 C 
ENDBRANCH  17  18
ENDBRANCH  16  17
BRANCH  16  21
HETATM   21  C           1     -20.100  -8.622  -5.495  0.00  0.00     0.196 C 
HETATM   22  O           1     -18.871  -8.796  -5.646  0.00  0.00    -0.646 OA
HETATM   23  O           1     -20.888  -9.584  -5.629  0.00  0.00    -0.646 OA
ENDBRANCH  16  21
ENDBRANCH   3  16
TORSDOF 8
ENDMDL
MODEL 8
REMARK VINA RESULT:      -5.8     11.699     13.187
REMARK  8 active torsions:
REMARK  status: ('A' for Active; 'I' for Inactive)
REMARK    1  A    between atoms: C_2  and  C_10 
REMARK    2  A    between atoms: C_2  and  C_14 
REMARK    3  A    between atoms: C_2  and  N_16 
REMARK    4  A    between atoms: C_7  and  C_19 
REMARK       I    between atoms: C_10  and  N_11 
REMARK    5  A    between atoms: N_11  and  C_18 
REMARK       I    between atoms: N_12  and  C_13 
REMARK    6  A    between atoms: C_13  and  C_14 
REMARK    7  A    between atoms: C_18  and  C_19 
REMARK    8  A    between atoms: C_18  and  C_23 
ROOT
HETATM    1  H           1     -25.117  -7.270 -18.159  0.00  0.00     0.163 HD
HETATM    2  C           1     -26.439  -6.436 -19.516  0.00  0.00     0.249 C 
HETATM    3  N           1     -25.974  -6.740 -18.266  0.00  0.00    -0.345 N 
HETATM    4  O           1     -27.461  -5.803 -19.643  0.00  0.00    -0.271 OA
ENDROOT
BRANCH   2   5
HETATM    5  C           1     -25.677  -6.890 -20.737  0.00  0.00     0.283 C 
BRANCH   5   6
HETATM    6  C           1     -24.468  -7.710 -20.306  0.00  0.00     0.145 C 
BRANCH   6   7
HETATM    7  C           1     -23.805  -8.309 -21.522  0.00  0.00     0.217 C 
HETATM    8  N           1     -22.655  -9.038 -21.385  0.00  0.00    -0.370 N 
HETATM    9  H           1     -22.249  -9.176 -20.469  0.00  0.00     0.159 HD
HETATM   10  H           1     -22.211  -9.441 -22.201  0.00  0.00     0.159 HD
HETATM   11  O           1     -24.291  -8.146 -22.616  0.00  0.00    -0.274 OA
ENDBRANCH   6   7
ENDBRANCH   5   6
BRANCH   5  12
HETATM   12  N           1     -25.215  -5.690 -21.510  0.00  0.00    -0.066 N 
HETATM   13  H           1     -24.174  -5.716 -21.605  0.00  0.00     0.275 HD
HETATM   14  H           1     -25.650  -5.700 -22.460  0.00  0.00     0.275 HD
HETATM   15  H           1     -25.497  -4.820 -21.006  0.00  0.00     0.275 HD
ENDBRANCH   5  12
ENDBRANCH   2   5
BRANCH   3  16
HETATM   16  C           1     -26.705  -6.303 -17.093  0.00  0.00     0.185 C 
BRANCH  16  17
HETATM   17  C           1     -27.943  -7.173 -16.913  0.00  0.00     0.040 C 
BRANCH  17  18
HETATM   18  C           1     -29.168  -6.285 -16.742  0.00  0.00    -0.020 C 
HETATM   19  C           1     -30.396  -7.007 -17.281  0.00  0.00     0.009 C 
HETATM   20  C           1     -29.368  -5.976 -15.264  0.00  0.00     0.009 C 
ENDBRANCH  17  18
ENDBRANCH  16  17
BRANCH  16  21
HETATM   21  C           1     -25.823  -6.425 -15.875  0.00  0.00     0.196 C 
HETATM   22  O           1     -25.056  -5.488 -15.563  0.00  0.00    -0.646 OA
HETATM   23  O           1     -25.858  -7.462 -15.178  0.00  0.00    -0.646 OA
ENDBRANCH  16  21
ENDBRANCH   3  16
TORSDOF 8
ENDMDL
MODEL 9
REMARK VINA RESULT:      -5.5     11.069     12.527
REMARK  8 active torsions:
REMARK  status: ('A' for Active; 'I' for Inactive)
REMARK    1  A    between atoms: C_2  and  C_10 
REMARK    2  A    between atoms: C_2  and  C_14 
REMARK    3  A    between atoms: C_2  and  N_16 
REMARK    4  A    between atoms: C_7  and  C_19 
REMARK       I    between atoms: C_10  and  N_11 
REMARK    5  A    between atoms: N_11  and  C_18 
REMARK       I    between atoms: N_12  and  C_13 
REMARK    6  A    between atoms: C_13  and  C_14 
REMARK    7  A    between atoms: C_18  and  C_19 
REMARK    8  A    between atoms: C_18  and  C_23 
ROOT
HETATM    1  H           1     -26.291  -7.173 -17.130  0.00  0.00     0.163 HD
HETATM    2  C           1     -26.772  -6.440 -19.005  0.00  0.00     0.249 C 
HETATM    3  N           1     -27.013  -6.739 -17.692  0.00  0.00    -0.345 N 
HETATM    4  O           1     -27.633  -5.921 -19.675  0.00  0.00    -0.271 OA
ENDROOT
BRANCH   2   5
HETATM    5  C           1     -25.429  -6.757 -19.617  0.00  0.00     0.283 C 
BRANCH   5   6
HETATM    6  C           1     -25.607  -7.774 -20.736  0.00  0.00     0.145 C 
BRANCH   6   7
HETATM    7  C           1     -24.328  -7.879 -21.530  0.00  0.00     0.217 C 
HETATM    8  N           1     -23.359  -8.769 -21.152  0.00  0.00    -0.370 N 
HETATM    9  H           1     -23.500  -9.356 -20.340  0.00  0.00     0.159 HD
HETATM   10  H           1     -22.501  -8.840 -21.685  0.00  0.00     0.159 HD
HETATM   11  O           1     -24.160  -7.180 -22.501  0.00  0.00    -0.274 OA
ENDBRANCH   6   7
ENDBRANCH   5   6
BRANCH   5  12
HETATM   12  N           1     -24.524  -7.327 -18.565  0.00  0.00    -0.066 N 
HETATM   13  H           1     -24.273  -6.579 -17.879  0.00  0.00     0.275 HD
HETATM   14  H           1     -25.016  -8.103 -18.067  0.00  0.00     0.275 HD
HETATM   15  H           1     -23.656  -7.695 -19.013  0.00  0.00     0.275 HD
ENDBRANCH   5  12
ENDBRANCH   2   5
BRANCH   3  16
HETATM   16  C           1     -28.303  -6.433 -17.103  0.00  0.00     0.185 C 
BRANCH  16  17
HETATM   17  C           1     -29.330  -7.454 -17.573  0.00  0.00     0.040 C 
BRANCH  17  18
HETATM   18  C           1     -30.732  -6.893 -17.377  0.00  0.00    -0.020 C 
HETATM   19  C           1     -30.719  -5.394 -17.645  0.00  0.00     0.009 C 
HETATM   20  C           1     -31.691  -7.573 -18.345  0.00  0.00     0.009 C 
ENDBRANCH  17  18
ENDBRANCH  16  17
BRANCH  16  21
HETATM   21  C           1     -28.194  -6.482 -15.600  0.00  0.00     0.196 C 
HETATM   22  O           1     -28.538  -5.495 -14.915  0.00  0.00    -0.646 OA
HETATM   23  O           1     -27.760  -7.512 -15.038  0.00  0.00    -0.646 OA
ENDBRANCH  16  21
ENDBRANCH   3  16
TORSDOF 8
ENDMDL
