MODEL 1
REMARK VINA RESULT:      -7.0      0.000      0.000
REMARK  10 active torsions:
REMARK  status: ('A' for Active; 'I' for Inactive)
REMARK    1  A    between atoms: P_1  and  O_2 
REMARK    2  A    between atoms: P_1  and  O_28 
REMARK    3  A    between atoms: O_2  and  C_3 
REMARK    4  A    between atoms: C_3  and  C_4 
REMARK    5  A    between atoms: C_4  and  C_5 
REMARK    6  A    between atoms: C_4  and  N_25 
REMARK       I    between atoms: C_5  and  N_6 
REMARK    7  A    between atoms: N_6  and  C_14 
REMARK    8  A    between atoms: C_12  and  C_13 
REMARK    9  A    between atoms: C_13  and  C_14 
REMARK   10  A    between atoms: C_14  and  C_16 
ROOT
HETATM    1  C           1     -34.114  -1.987 -10.996  0.00  0.00     0.251 C 
HETATM    2  N           1     -33.315  -2.836 -11.714  0.00  0.00    -0.344 N 
HETATM    3  H           1     -32.484  -2.484 -12.171  0.00  0.00     0.163 HD
HETATM    4  O           1     -33.908  -1.815  -9.819  0.00  0.00    -0.271 OA
ENDROOT
BRANCH   1   5
HETATM    5  C           1     -35.253  -1.266 -11.676  0.00  0.00     0.298 C 
BRANCH   5   6
HETATM    6  C           1     -34.697  -0.319 -12.731  0.00  0.00     0.224 C 
BRANCH   6   7
HETATM    7  O           1     -35.749   0.403 -13.312  0.00  0.00    -0.287 OA
BRANCH   7   8
HETATM    8  P           1     -36.364  -0.213 -14.672  0.00  0.00     0.406 P 
HETATM    9  O           1     -36.503   0.861 -15.681  0.00  0.00    -0.624 OA
HETATM   10  O           1     -37.693  -0.801 -14.390  0.00  0.00    -0.624 OA
BRANCH   8  11
HETATM   11  O           1     -35.379  -1.360 -15.239  0.00  0.00    -0.300 OA
HETATM   12  H           1     -35.234  -1.133 -16.142  0.00  0.00     0.223 HD
ENDBRANCH   8  11
ENDBRANCH   7   8
ENDBRANCH   6   7
ENDBRANCH   5   6
BRANCH   5  13
HETATM   13  N           1     -36.028  -0.483 -10.659  0.00  0.00    -0.064 N 
HETATM   14  H           1     -36.228   0.472 -11.034  0.00  0.00     0.275 HD
HETATM   15  H           1     -35.467  -0.402  -9.781  0.00  0.00     0.275 HD
HETATM   16  H           1     -36.928  -0.972 -10.453  0.00  0.00     0.275 HD
ENDBRANCH   5  13
ENDBRANCH   1   5
BRANCH   2  17
HETATM   17  C           1     -33.660  -4.241 -11.821  0.00  0.00     0.191 C 
BRANCH  17  18
HETATM   18  C           1     -34.536  -4.638 -10.640  0.00  0.00     0.094 C 
BRANCH  18  19
HETATM   19  C           1     -34.373  -6.100 -10.365  0.00  0.00     0.028 A 
HETATM   20  N           1     -33.358  -6.877 -10.859  0.00  0.00    -0.354 N 
HETATM   21  C           1     -33.581  -8.081 -10.386  0.00  0.00     0.180 A 
ATOM     22  HN          1     -32.593  -6.582 -11.466  1.00  0.00     0.166 HD
HETATM   23  N           1     -34.703  -8.112  -9.605  0.00  0.00    -0.360 N 
HETATM   24  C           1     -35.222  -6.847  -9.582  0.00  0.00     0.114 A 
HETATM   25  H           1     -35.094  -8.953  -9.114  0.00  0.00     0.166 HD
ENDBRANCH  18  19
ENDBRANCH  17  18
BRANCH  17  26
HETATM   26  C           1     -34.411  -4.477 -13.107  0.00  0.00     0.197 C 
HETATM   27  O           1     -34.259  -3.698 -14.072  0.00  0.00    -0.646 OA
HETATM   28  O           1     -35.187  -5.452 -13.208  0.00  0.00    -0.646 OA
ENDBRANCH  17  26
ENDBRANCH   2  17
TORSDOF 10
ENDMDL
MODEL 2
REMARK VINA RESULT:      -6.8      3.567      6.711
REMARK  10 active torsions:
REMARK  status: ('A' for Active; 'I' for Inactive)
REMARK    1  A    between atoms: P_1  and  O_2 
REMARK    2  A    between atoms: P_1  and  O_28 
REMARK    3  A    between atoms: O_2  and  C_3 
REMARK    4  A    between atoms: C_3  and  C_4 
REMARK    5  A    between atoms: C_4  and  C_5 
REMARK    6  A    between atoms: C_4  and  N_25 
REMARK       I    between atoms: C_5  and  N_6 
REMARK    7  A    between atoms: N_6  and  C_14 
REMARK    8  A    between atoms: C_12  and  C_13 
REMARK    9  A    between atoms: C_13  and  C_14 
REMARK   10  A    between atoms: C_14  and  C_16 
ROOT
HETATM    1  C           1     -34.476  -2.081 -10.674  0.00  0.00     0.251 C 
HETATM    2  N           1     -35.772  -1.657 -10.549  0.00  0.00    -0.344 N 
HETATM    3  H           1     -36.446  -2.231 -10.060  0.00  0.00     0.163 HD
HETATM    4  O           1     -33.661  -1.788  -9.832  0.00  0.00    -0.271 OA
ENDROOT
BRANCH   1   5
HETATM    5  C           1     -34.065  -2.912 -11.865  0.00  0.00     0.298 C 
BRANCH   5   6
HETATM    6  C           1     -35.033  -4.075 -12.030  0.00  0.00     0.224 C 
BRANCH   6   7
HETATM    7  O           1     -35.102  -4.800 -10.832  0.00  0.00    -0.287 OA
BRANCH   7   8
HETATM    8  P           1     -34.566  -6.322 -10.893  0.00  0.00     0.406 P 
HETATM    9  O           1     -35.025  -7.055  -9.691  0.00  0.00    -0.624 OA
HETATM   10  O           1     -33.086  -6.322 -10.936  0.00  0.00    -0.624 OA
BRANCH   8  11
HETATM   11  O           1     -35.142  -7.044 -12.217  0.00  0.00    -0.300 OA
HETATM   12  H           1     -34.977  -6.437 -12.918  0.00  0.00     0.223 HD
ENDBRANCH   8  11
ENDBRANCH   7   8
ENDBRANCH   6   7
ENDBRANCH   5   6
BRANCH   5  13
HETATM   13  N           1     -32.678  -3.441 -11.651  0.00  0.00    -0.064 N 
HETATM   14  H           1     -32.219  -2.910 -10.876  0.00  0.00     0.275 HD
HETATM   15  H           1     -32.123  -3.326 -12.529  0.00  0.00     0.275 HD
HETATM   16  H           1     -32.726  -4.454 -11.399  0.00  0.00     0.275 HD
ENDBRANCH   5  13
ENDBRANCH   1   5
BRANCH   2  17
HETATM   17  C           1     -36.178  -0.386 -11.117  0.00  0.00     0.191 C 
BRANCH  17  18
HETATM   18  C           1     -37.096  -0.634 -12.308  0.00  0.00     0.094 C 
BRANCH  18  19
HETATM   19  C           1     -36.481  -0.055 -13.543  0.00  0.00     0.028 A 
HETATM   20  N           1     -35.184   0.378 -13.639  0.00  0.00    -0.354 N 
HETATM   21  C           1     -35.051   0.806 -14.873  0.00  0.00     0.180 A 
ATOM     22  HN          1     -34.473   0.368 -12.907  1.00  0.00     0.166 HD
HETATM   23  N           1     -36.213   0.669 -15.578  0.00  0.00    -0.360 N 
HETATM   24  C           1     -37.141   0.117 -14.737  0.00  0.00     0.114 A 
HETATM   25  H           1     -36.366   0.938 -16.581  0.00  0.00     0.166 HD
ENDBRANCH  18  19
ENDBRANCH  17  18
BRANCH  17  26
HETATM   26  C           1     -36.911   0.419 -10.074  0.00  0.00     0.197 C 
HETATM   27  O           1     -38.075   0.819 -10.296  0.00  0.00    -0.646 OA
HETATM   28  O           1     -36.356   0.688  -8.987  0.00  0.00    -0.646 OA
ENDBRANCH  17  26
ENDBRANCH   2  17
TORSDOF 10
ENDMDL
MODEL 3
REMARK VINA RESULT:      -6.7     12.462     14.488
REMARK  10 active torsions:
REMARK  status: ('A' for Active; 'I' for Inactive)
REMARK    1  A    between atoms: P_1  and  O_2 
REMARK    2  A    between atoms: P_1  and  O_28 
REMARK    3  A    between atoms: O_2  and  C_3 
REMARK    4  A    between atoms: C_3  and  C_4 
REMARK    5  A    between atoms: C_4  and  C_5 
REMARK    6  A    between atoms: C_4  and  N_25 
REMARK       I    between atoms: C_5  and  N_6 
REMARK    7  A    between atoms: N_6  and  C_14 
REMARK    8  A    between atoms: C_12  and  C_13 
REMARK    9  A    between atoms: C_13  and  C_14 
REMARK   10  A    between atoms: C_14  and  C_16 
ROOT
HETATM    1  C           1     -21.431  -4.120  -7.555  0.00  0.00     0.251 C 
HETATM    2  N           1     -22.654  -4.338  -8.132  0.00  0.00    -0.344 N 
HETATM    3  H           1     -23.299  -4.997  -7.715  0.00  0.00     0.163 HD
HETATM    4  O           1     -21.302  -3.256  -6.722  0.00  0.00    -0.271 OA
ENDROOT
BRANCH   1   5
HETATM    5  C           1     -20.244  -4.959  -7.963  0.00  0.00     0.298 C 
BRANCH   5   6
HETATM    6  C           1     -20.003  -6.039  -6.918  0.00  0.00     0.224 C 
BRANCH   6   7
HETATM    7  O           1     -21.204  -6.712  -6.655  0.00  0.00    -0.287 OA
BRANCH   7   8
HETATM    8  P           1     -21.729  -6.654  -5.129  0.00  0.00     0.406 P 
HETATM    9  O           1     -23.122  -6.151  -5.106  0.00  0.00    -0.624 OA
HETATM   10  O           1     -20.863  -5.746  -4.344  0.00  0.00    -0.624 OA
BRANCH   8  11
HETATM   11  O           1     -21.681  -8.134  -4.485  0.00  0.00    -0.300 OA
HETATM   12  H           1     -21.610  -7.993  -3.556  0.00  0.00     0.223 HD
ENDBRANCH   8  11
ENDBRANCH   7   8
ENDBRANCH   6   7
ENDBRANCH   5   6
BRANCH   5  13
HETATM   13  N           1     -19.029  -4.086  -8.071  0.00  0.00    -0.064 N 
HETATM   14  H           1     -18.563  -4.022  -7.137  0.00  0.00     0.275 HD
HETATM   15  H           1     -19.312  -3.132  -8.387  0.00  0.00     0.275 HD
HETATM   16  H           1     -18.364  -4.499  -8.765  0.00  0.00     0.275 HD
ENDBRANCH   5  13
ENDBRANCH   1   5
BRANCH   2  17
HETATM   17  C           1     -23.025  -3.624  -9.339  0.00  0.00     0.191 C 
BRANCH  17  18
HETATM   18  C           1     -22.282  -4.221 -10.528  0.00  0.00     0.094 C 
BRANCH  18  19
HETATM   19  C           1     -22.831  -3.650 -11.798  0.00  0.00     0.028 A 
HETATM   20  N           1     -23.601  -4.343 -12.695  0.00  0.00    -0.354 N 
HETATM   21  C           1     -23.869  -3.489 -13.655  0.00  0.00     0.180 A 
ATOM     22  HN          1     -23.901  -5.316 -12.630  1.00  0.00     0.166 HD
HETATM   23  N           1     -23.300  -2.270 -13.413  0.00  0.00    -0.360 N 
HETATM   24  C           1     -22.630  -2.358 -12.224  0.00  0.00     0.114 A 
HETATM   25  H           1     -23.365  -1.422 -14.028  0.00  0.00     0.166 HD
ENDBRANCH  18  19
ENDBRANCH  17  18
BRANCH  17  26
HETATM   26  C           1     -24.511  -3.749  -9.559  0.00  0.00     0.197 C 
HETATM   27  O           1     -25.242  -2.737  -9.488  0.00  0.00    -0.646 OA
HETATM   28  O           1     -25.015  -4.865  -9.811  0.00  0.00    -0.646 OA
ENDBRANCH  17  26
ENDBRANCH   2  17
TORSDOF 10
ENDMDL
MODEL 4
REMARK VINA RESULT:      -6.5     12.462     13.600
REMARK  10 active torsions:
REMARK  status: ('A' for Active; 'I' for Inactive)
REMARK    1  A    between atoms: P_1  and  O_2 
REMARK    2  A    between atoms: P_1  and  O_28 
REMARK    3  A    between atoms: O_2  and  C_3 
REMARK    4  A    between atoms: C_3  and  C_4 
REMARK    5  A    between atoms: C_4  and  C_5 
REMARK    6  A    between atoms: C_4  and  N_25 
REMARK       I    between atoms: C_5  and  N_6 
REMARK    7  A    between atoms: N_6  and  C_14 
REMARK    8  A    between atoms: C_12  and  C_13 
REMARK    9  A    between atoms: C_13  and  C_14 
REMARK   10  A    between atoms: C_14  and  C_16 
ROOT
HETATM    1  C           1     -23.089  -4.178  -7.839  0.00  0.00     0.251 C 
HETATM    2  N           1     -21.856  -3.645  -7.574  0.00  0.00    -0.344 N 
HETATM    3  H           1     -21.711  -2.646  -7.649  0.00  0.00     0.163 HD
HETATM    4  O           1     -23.897  -4.301  -6.951  0.00  0.00    -0.271 OA
ENDROOT
BRANCH   1   5
HETATM    5  C           1     -23.436  -4.616  -9.242  0.00  0.00     0.298 C 
BRANCH   5   6
HETATM    6  C           1     -22.841  -3.634 -10.242  0.00  0.00     0.224 C 
BRANCH   6   7
HETATM    7  O           1     -22.912  -4.180 -11.532  0.00  0.00    -0.287 OA
BRANCH   7   8
HETATM    8  P           1     -23.838  -3.383 -12.587  0.00  0.00     0.406 P 
HETATM    9  O           1     -23.136  -2.159 -13.034  0.00  0.00    -0.624 OA
HETATM   10  O           1     -25.116  -3.011 -11.939  0.00  0.00    -0.624 OA
BRANCH   8  11
HETATM   11  O           1     -24.137  -4.328 -13.862  0.00  0.00    -0.300 OA
HETATM   12  H           1     -24.574  -5.084 -13.509  0.00  0.00     0.223 HD
ENDBRANCH   8  11
ENDBRANCH   7   8
ENDBRANCH   6   7
ENDBRANCH   5   6
BRANCH   5  13
HETATM   13  N           1     -24.927  -4.650  -9.400  0.00  0.00    -0.064 N 
HETATM   14  H           1     -25.166  -4.879 -10.392  0.00  0.00     0.275 HD
HETATM   15  H           1     -25.325  -3.716  -9.152  0.00  0.00     0.275 HD
HETATM   16  H           1     -25.329  -5.378  -8.768  0.00  0.00     0.275 HD
ENDBRANCH   5  13
ENDBRANCH   1   5
BRANCH   2  17
HETATM   17  C           1     -20.758  -4.510  -7.187  0.00  0.00     0.191 C 
BRANCH  17  18
HETATM   18  C           1     -21.236  -5.956  -7.170  0.00  0.00     0.094 C 
BRANCH  18  19
HETATM   19  C           1     -21.266  -6.457  -5.760  0.00  0.00     0.028 A 
HETATM   20  N           1     -22.139  -6.022  -4.798  0.00  0.00    -0.354 N 
HETATM   21  C           1     -21.834  -6.705  -3.718  0.00  0.00     0.180 A 
ATOM     22  HN          1     -22.870  -5.317  -4.898  1.00  0.00     0.166 HD
HETATM   23  N           1     -20.796  -7.564  -3.947  0.00  0.00    -0.360 N 
HETATM   24  C           1     -20.420  -7.416  -5.254  0.00  0.00     0.114 A 
HETATM   25  H           1     -20.365  -8.217  -3.247  0.00  0.00     0.166 HD
ENDBRANCH  18  19
ENDBRANCH  17  18
BRANCH  17  26
HETATM   26  C           1     -19.630  -4.362  -8.176  0.00  0.00     0.197 C 
HETATM   27  O           1     -18.472  -4.119  -7.772  0.00  0.00    -0.646 OA
HETATM   28  O           1     -19.851  -4.482  -9.400  0.00  0.00    -0.646 OA
ENDBRANCH  17  26
ENDBRANCH   2  17
TORSDOF 10
ENDMDL
MODEL 5
REMARK VINA RESULT:      -6.2     25.732     26.916
REMARK  10 active torsions:
REMARK  status: ('A' for Active; 'I' for Inactive)
REMARK    1  A    between atoms: P_1  and  O_2 
REMARK    2  A    between atoms: P_1  and  O_28 
REMARK    3  A    between atoms: O_2  and  C_3 
REMARK    4  A    between atoms: C_3  and  C_4 
REMARK    5  A    between atoms: C_4  and  C_5 
REMARK    6  A    between atoms: C_4  and  N_25 
REMARK       I    between atoms: C_5  and  N_6 
REMARK    7  A    between atoms: N_6  and  C_14 
REMARK    8  A    between atoms: C_12  and  C_13 
REMARK    9  A    between atoms: C_13  and  C_14 
REMARK   10  A    between atoms: C_14  and  C_16 
ROOT
HETATM    1  C           1     -10.076   8.157 -19.794  0.00  0.00     0.251 C 
HETATM    2  N           1      -9.951   6.885 -20.287  0.00  0.00    -0.344 N 
HETATM    3  H           1      -9.059   6.411 -20.240  0.00  0.00     0.163 HD
HETATM    4  O           1     -10.386   8.330 -18.640  0.00  0.00    -0.271 OA
ENDROOT
BRANCH   1   5
HETATM    5  C           1      -9.826   9.343 -20.694  0.00  0.00     0.298 C 
BRANCH   5   6
HETATM    6  C           1     -11.016   9.532 -21.626  0.00  0.00     0.224 C 
BRANCH   6   7
HETATM    7  O           1     -11.650  10.748 -21.334  0.00  0.00    -0.287 OA
BRANCH   7   8
HETATM    8  P           1     -13.135  10.640 -20.711  0.00  0.00     0.406 P 
HETATM    9  O           1     -14.087  10.237 -21.771  0.00  0.00    -0.624 OA
HETATM   10  O           1     -13.536  11.954 -20.161  0.00  0.00    -0.624 OA
BRANCH   8  11
HETATM   11  O           1     -13.147   9.537 -19.531  0.00  0.00    -0.300 OA
HETATM   12  H           1     -12.239   9.398 -19.319  0.00  0.00     0.223 HD
ENDBRANCH   8  11
ENDBRANCH   7   8
ENDBRANCH   6   7
ENDBRANCH   5   6
BRANCH   5  13
HETATM   13  N           1      -8.588   9.103 -21.506  0.00  0.00    -0.064 N 
HETATM   14  H           1      -8.787   8.384 -22.239  0.00  0.00     0.275 HD
HETATM   15  H           1      -7.823   8.762 -20.882  0.00  0.00     0.275 HD
HETATM   16  H           1      -8.293   9.995 -21.964  0.00  0.00     0.275 HD
ENDBRANCH   5  13
ENDBRANCH   1   5
BRANCH   2  17
HETATM   17  C           1     -11.097   6.219 -20.874  0.00  0.00     0.191 C 
BRANCH  17  18
HETATM   18  C           1     -10.659   4.885 -21.464  0.00  0.00     0.094 C 
BRANCH  18  19
HETATM   19  C           1     -11.865   4.050 -21.764  0.00  0.00     0.028 A 
HETATM   20  N           1     -12.349   3.060 -20.949  0.00  0.00    -0.354 N 
HETATM   21  C           1     -13.403   2.583 -21.571  0.00  0.00     0.180 A 
ATOM     22  HN          1     -11.971   2.758 -20.051  1.00  0.00     0.166 HD
HETATM   23  N           1     -13.617   3.227 -22.758  0.00  0.00    -0.360 N 
HETATM   24  C           1     -12.637   4.171 -22.895  0.00  0.00     0.114 A 
HETATM   25  H           1     -14.391   3.031 -23.439  0.00  0.00     0.166 HD
ENDBRANCH  18  19
ENDBRANCH  17  18
BRANCH  17  26
HETATM   26  C           1     -12.140   5.982 -19.811  0.00  0.00     0.197 C 
HETATM   27  O           1     -11.905   5.195 -18.869  0.00  0.00    -0.646 OA
HETATM   28  O           1     -13.240   6.572 -19.872  0.00  0.00    -0.646 OA
ENDBRANCH  17  26
ENDBRANCH   2  17
TORSDOF 10
ENDMDL
MODEL 6
REMARK VINA RESULT:      -6.2     13.648     15.047
REMARK  10 active torsions:
REMARK  status: ('A' for Active; 'I' for Inactive)
REMARK    1  A    between atoms: P_1  and  O_2 
REMARK    2  A    between atoms: P_1  and  O_28 
REMARK    3  A    between atoms: O_2  and  C_3 
REMARK    4  A    between atoms: C_3  and  C_4 
REMARK    5  A    between atoms: C_4  and  C_5 
REMARK    6  A    between atoms: C_4  and  N_25 
REMARK       I    between atoms: C_5  and  N_6 
REMARK    7  A    between atoms: N_6  and  C_14 
REMARK    8  A    between atoms: C_12  and  C_13 
REMARK    9  A    between atoms: C_13  and  C_14 
REMARK   10  A    between atoms: C_14  and  C_16 
ROOT
HETATM    1  C           1     -20.297  -5.420  -7.224  0.00  0.00     0.251 C 
HETATM    2  N           1     -20.199  -6.745  -6.891  0.00  0.00    -0.344 N 
HETATM    3  H           1     -20.150  -7.447  -7.619  0.00  0.00     0.163 HD
HETATM    4  O           1     -19.297  -4.760  -7.374  0.00  0.00    -0.271 OA
ENDROOT
BRANCH   1   5
HETATM    5  C           1     -21.654  -4.785  -7.401  0.00  0.00     0.298 C 
BRANCH   5   6
HETATM    6  C           1     -22.063  -4.860  -8.866  0.00  0.00     0.224 C 
BRANCH   6   7
HETATM    7  O           1     -22.828  -3.732  -9.197  0.00  0.00    -0.287 OA
BRANCH   7   8
HETATM    8  P           1     -23.995  -3.963 -10.288  0.00  0.00     0.406 P 
HETATM    9  O           1     -23.689  -5.171 -11.088  0.00  0.00    -0.624 OA
HETATM   10  O           1     -24.076  -2.786 -11.181  0.00  0.00    -0.624 OA
BRANCH   8  11
HETATM   11  O           1     -25.408  -4.163  -9.532  0.00  0.00    -0.300 OA
HETATM   12  H           1     -25.241  -3.923  -8.636  0.00  0.00     0.223 HD
ENDBRANCH   8  11
ENDBRANCH   7   8
ENDBRANCH   6   7
ENDBRANCH   5   6
BRANCH   5  13
HETATM   13  N           1     -21.595  -3.349  -6.971  0.00  0.00    -0.064 N 
HETATM   14  H           1     -21.496  -2.738  -7.813  0.00  0.00     0.275 HD
HETATM   15  H           1     -20.774  -3.209  -6.340  0.00  0.00     0.275 HD
HETATM   16  H           1     -22.473  -3.101  -6.461  0.00  0.00     0.275 HD
ENDBRANCH   5  13
ENDBRANCH   1   5
BRANCH   2  17
HETATM   17  C           1     -20.164  -7.143  -5.497  0.00  0.00     0.191 C 
BRANCH  17  18
HETATM   18  C           1     -21.559  -7.570  -5.058  0.00  0.00     0.094 C 
BRANCH  18  19
HETATM   19  C           1     -21.708  -7.353  -3.585  0.00  0.00     0.028 A 
HETATM   20  N           1     -21.548  -8.326  -2.634  0.00  0.00    -0.354 N 
HETATM   21  C           1     -21.762  -7.728  -1.485  0.00  0.00     0.180 A 
ATOM     22  HN          1     -21.312  -9.307  -2.786  1.00  0.00     0.166 HD
HETATM   23  N           1     -22.057  -6.405  -1.658  0.00  0.00    -0.360 N 
HETATM   24  C           1     -22.026  -6.149  -3.001  0.00  0.00     0.114 A 
HETATM   25  H           1     -22.269  -5.712  -0.898  0.00  0.00     0.166 HD
ENDBRANCH  18  19
ENDBRANCH  17  18
BRANCH  17  26
HETATM   26  C           1     -19.207  -8.296  -5.328  0.00  0.00     0.197 C 
HETATM   27  O           1     -18.592  -8.749  -6.317  0.00  0.00    -0.646 OA
HETATM   28  O           1     -19.030  -8.800  -4.198  0.00  0.00    -0.646 OA
ENDBRANCH  17  26
ENDBRANCH   2  17
TORSDOF 10
ENDMDL
MODEL 7
REMARK VINA RESULT:      -6.2     12.901     14.310
REMARK  10 active torsions:
REMARK  status: ('A' for Active; 'I' for Inactive)
REMARK    1  A    between atoms: P_1  and  O_2 
REMARK    2  A    between atoms: P_1  and  O_28 
REMARK    3  A    between atoms: O_2  and  C_3 
REMARK    4  A    between atoms: C_3  and  C_4 
REMARK    5  A    between atoms: C_4  and  C_5 
REMARK    6  A    between atoms: C_4  and  N_25 
REMARK       I    between atoms: C_5  and  N_6 
REMARK    7  A    between atoms: N_6  and  C_14 
REMARK    8  A    between atoms: C_12  and  C_13 
REMARK    9  A    between atoms: C_13  and  C_14 
REMARK   10  A    between atoms: C_14  and  C_16 
ROOT
HETATM    1  C           1     -21.223  -5.075  -7.257  0.00  0.00     0.251 C 
HETATM    2  N           1     -20.734  -6.318  -6.953  0.00  0.00    -0.344 N 
HETATM    3  H           1     -19.895  -6.655  -7.406  0.00  0.00     0.163 HD
HETATM    4  O           1     -20.860  -4.112  -6.626  0.00  0.00    -0.271 OA
ENDROOT
BRANCH   1   5
HETATM    5  C           1     -22.218  -4.910  -8.380  0.00  0.00     0.298 C 
BRANCH   5   6
HETATM    6  C           1     -21.572  -4.136  -9.521  0.00  0.00     0.224 C 
BRANCH   6   7
HETATM    7  O           1     -22.534  -3.322 -10.138  0.00  0.00    -0.287 OA
BRANCH   7   8
HETATM    8  P           1     -22.945  -3.730 -11.645  0.00  0.00     0.406 P 
HETATM    9  O           1     -23.888  -2.727 -12.187  0.00  0.00    -0.624 OA
HETATM   10  O           1     -23.590  -5.062 -11.636  0.00  0.00    -0.624 OA
BRANCH   8  11
HETATM   11  O           1     -21.622  -3.780 -12.570  0.00  0.00    -0.300 OA
HETATM   12  H           1     -21.849  -4.345 -13.289  0.00  0.00     0.223 HD
ENDBRANCH   8  11
ENDBRANCH   7   8
ENDBRANCH   6   7
ENDBRANCH   5   6
BRANCH   5  13
HETATM   13  N           1     -23.416  -4.158  -7.880  0.00  0.00    -0.064 N 
HETATM   14  H           1     -23.246  -3.131  -7.977  0.00  0.00     0.275 HD
HETATM   15  H           1     -23.579  -4.392  -6.875  0.00  0.00     0.275 HD
HETATM   16  H           1     -24.256  -4.427  -8.441  0.00  0.00     0.275 HD
ENDBRANCH   5  13
ENDBRANCH   1   5
BRANCH   2  17
HETATM   17  C           1     -21.418  -7.150  -5.983  0.00  0.00     0.191 C 
BRANCH  17  18
HETATM   18  C           1     -20.399  -8.001  -5.237  0.00  0.00     0.094 C 
BRANCH  18  19
HETATM   19  C           1     -20.938  -9.386  -5.058  0.00  0.00     0.028 A 
HETATM   20  N           1     -20.808 -10.397  -5.974  0.00  0.00    -0.354 N 
HETATM   21  C           1     -21.412 -11.431  -5.436  0.00  0.00     0.180 A 
ATOM     22  HN          1     -20.342 -10.354  -6.880  1.00  0.00     0.166 HD
HETATM   23  N           1     -21.928 -11.126  -4.208  0.00  0.00    -0.360 N 
HETATM   24  C           1     -21.631  -9.817  -3.951  0.00  0.00     0.114 A 
HETATM   25  H           1     -22.456 -11.779  -3.577  0.00  0.00     0.166 HD
ENDBRANCH  18  19
ENDBRANCH  17  18
BRANCH  17  26
HETATM   26  C           1     -22.158  -6.274  -5.003  0.00  0.00     0.197 C 
HETATM   27  O           1     -23.352  -5.972  -5.212  0.00  0.00    -0.646 OA
HETATM   28  O           1     -21.576  -5.850  -3.981  0.00  0.00    -0.646 OA
ENDBRANCH  17  26
ENDBRANCH   2  17
TORSDOF 10
ENDMDL
MODEL 8
REMARK VINA RESULT:      -6.1     12.484     13.662
REMARK  10 active torsions:
REMARK  status: ('A' for Active; 'I' for Inactive)
REMARK    1  A    between atoms: P_1  and  O_2 
REMARK    2  A    between atoms: P_1  and  O_28 
REMARK    3  A    between atoms: O_2  and  C_3 
REMARK    4  A    between atoms: C_3  and  C_4 
REMARK    5  A    between atoms: C_4  and  C_5 
REMARK    6  A    between atoms: C_4  and  N_25 
REMARK       I    between atoms: C_5  and  N_6 
REMARK    7  A    between atoms: N_6  and  C_14 
REMARK    8  A    between atoms: C_12  and  C_13 
REMARK    9  A    between atoms: C_13  and  C_14 
REMARK   10  A    between atoms: C_14  and  C_16 
ROOT
HETATM    1  C           1     -21.033  -4.165  -9.977  0.00  0.00     0.251 C 
HETATM    2  N           1     -20.543  -5.165  -9.180  0.00  0.00    -0.344 N 
HETATM    3  H           1     -19.735  -5.698  -9.476  0.00  0.00     0.163 HD
HETATM    4  O           1     -20.621  -3.037  -9.852  0.00  0.00    -0.271 OA
ENDROOT
BRANCH   1   5
HETATM    5  C           1     -22.089  -4.473 -11.011  0.00  0.00     0.298 C 
BRANCH   5   6
HETATM    6  C           1     -21.727  -3.794 -12.324  0.00  0.00     0.224 C 
BRANCH   6   7
HETATM    7  O           1     -22.579  -2.700 -12.535  0.00  0.00    -0.287 OA
BRANCH   7   8
HETATM    8  P           1     -23.510  -2.772 -13.852  0.00  0.00     0.406 P 
HETATM    9  O           1     -24.380  -3.968 -13.776  0.00  0.00    -0.624 OA
HETATM   10  O           1     -22.654  -2.859 -15.057  0.00  0.00    -0.624 OA
BRANCH   8  11
HETATM   11  O           1     -24.426  -1.445 -13.938  0.00  0.00    -0.300 OA
HETATM   12  H           1     -23.894  -0.810 -14.387  0.00  0.00     0.223 HD
ENDBRANCH   8  11
ENDBRANCH   7   8
ENDBRANCH   6   7
ENDBRANCH   5   6
BRANCH   5  13
HETATM   13  N           1     -23.418  -3.966 -10.534  0.00  0.00    -0.064 N 
HETATM   14  H           1     -23.738  -3.192 -11.159  0.00  0.00     0.275 HD
HETATM   15  H           1     -23.324  -3.610  -9.557  0.00  0.00     0.275 HD
HETATM   16  H           1     -24.116  -4.744 -10.556  0.00  0.00     0.275 HD
ENDBRANCH   5  13
ENDBRANCH   1   5
BRANCH   2  17
HETATM   17  C           1     -21.181  -5.461  -7.912  0.00  0.00     0.191 C 
BRANCH  17  18
HETATM   18  C           1     -20.119  -5.837  -6.887  0.00  0.00     0.094 C 
BRANCH  18  19
HETATM   19  C           1     -20.743  -6.648  -5.794  0.00  0.00     0.028 A 
HETATM   20  N           1     -21.054  -7.979  -5.892  0.00  0.00    -0.354 N 
HETATM   21  C           1     -21.576  -8.300  -4.730  0.00  0.00     0.180 A 
ATOM     22  HN          1     -20.911  -8.590  -6.696  1.00  0.00     0.166 HD
HETATM   23  N           1     -21.614  -7.226  -3.886  0.00  0.00    -0.360 N 
HETATM   24  C           1     -21.083  -6.158  -4.555  0.00  0.00     0.114 A 
HETATM   25  H           1     -21.985  -7.222  -2.904  0.00  0.00     0.166 HD
ENDBRANCH  18  19
ENDBRANCH  17  18
BRANCH  17  26
HETATM   26  C           1     -21.935  -4.246  -7.434  0.00  0.00     0.197 C 
HETATM   27  O           1     -21.323  -3.307  -6.882  0.00  0.00    -0.646 OA
HETATM   28  O           1     -23.174  -4.178  -7.588  0.00  0.00    -0.646 OA
ENDBRANCH  17  26
ENDBRANCH   2  17
TORSDOF 10
ENDMDL
MODEL 9
REMARK VINA RESULT:      -6.1     14.130     16.370
REMARK  10 active torsions:
REMARK  status: ('A' for Active; 'I' for Inactive)
REMARK    1  A    between atoms: P_1  and  O_2 
REMARK    2  A    between atoms: P_1  and  O_28 
REMARK    3  A    between atoms: O_2  and  C_3 
REMARK    4  A    between atoms: C_3  and  C_4 
REMARK    5  A    between atoms: C_4  and  C_5 
REMARK    6  A    between atoms: C_4  and  N_25 
REMARK       I    between atoms: C_5  and  N_6 
REMARK    7  A    between atoms: N_6  and  C_14 
REMARK    8  A    between atoms: C_12  and  C_13 
REMARK    9  A    between atoms: C_13  and  C_14 
REMARK   10  A    between atoms: C_14  and  C_16 
ROOT
HETATM    1  C           1     -21.673  -6.419  -4.564  0.00  0.00     0.251 C 
HETATM    2  N           1     -22.311  -5.718  -5.552  0.00  0.00    -0.344 N 
HETATM    3  H           1     -23.255  -5.384  -5.406  0.00  0.00     0.163 HD
HETATM    4  O           1     -21.015  -5.835  -3.738  0.00  0.00    -0.271 OA
ENDROOT
BRANCH   1   5
HETATM    5  C           1     -21.791  -7.923  -4.510  0.00  0.00     0.298 C 
BRANCH   5   6
HETATM    6  C           1     -21.062  -8.445  -3.280  0.00  0.00     0.224 C 
BRANCH   6   7
HETATM    7  O           1     -21.996  -8.928  -2.352  0.00  0.00    -0.287 OA
BRANCH   7   8
HETATM    8  P           1     -22.062  -8.145  -0.942  0.00  0.00     0.406 P 
HETATM    9  O           1     -20.716  -8.123  -0.326  0.00  0.00    -0.624 OA
HETATM   10  O           1     -23.008  -8.837  -0.038  0.00  0.00    -0.624 OA
BRANCH   8  11
HETATM   11  O           1     -22.565  -6.631  -1.188  0.00  0.00    -0.300 OA
HETATM   12  H           1     -22.440  -6.479  -2.110  0.00  0.00     0.223 HD
ENDBRANCH   8  11
ENDBRANCH   7   8
ENDBRANCH   6   7
ENDBRANCH   5   6
BRANCH   5  13
HETATM   13  N           1     -21.179  -8.517  -5.744  0.00  0.00    -0.064 N 
HETATM   14  H           1     -21.894  -9.096  -6.242  0.00  0.00     0.275 HD
HETATM   15  H           1     -20.368  -9.118  -5.476  0.00  0.00     0.275 HD
HETATM   16  H           1     -20.851  -7.751  -6.374  0.00  0.00     0.275 HD
ENDBRANCH   5  13
ENDBRANCH   1   5
BRANCH   2  17
HETATM   17  C           1     -21.635  -5.453  -6.807  0.00  0.00     0.191 C 
BRANCH  17  18
HETATM   18  C           1     -22.001  -4.056  -7.294  0.00  0.00     0.094 C 
BRANCH  18  19
HETATM   19  C           1     -22.857  -4.162  -8.518  0.00  0.00     0.028 A 
HETATM   20  N           1     -24.165  -3.759  -8.590  0.00  0.00    -0.354 N 
HETATM   21  C           1     -24.541  -4.022  -9.820  0.00  0.00     0.180 A 
ATOM     22  HN          1     -24.727  -3.344  -7.846  1.00  0.00     0.166 HD
HETATM   23  N           1     -23.526  -4.581 -10.545  0.00  0.00    -0.360 N 
HETATM   24  C           1     -22.438  -4.677  -9.722  0.00  0.00     0.114 A 
HETATM   25  H           1     -23.573  -4.881 -11.550  0.00  0.00     0.166 HD
ENDBRANCH  18  19
ENDBRANCH  17  18
BRANCH  17  26
HETATM   26  C           1     -20.144  -5.540  -6.602  0.00  0.00     0.197 C 
HETATM   27  O           1     -19.528  -6.579  -6.925  0.00  0.00    -0.646 OA
HETATM   28  O           1     -19.523  -4.574  -6.108  0.00  0.00    -0.646 OA
ENDBRANCH  17  26
ENDBRANCH   2  17
TORSDOF 10
ENDMDL
