MODEL 1
REMARK VINA RESULT:      -6.4      0.000      0.000
REMARK  9 active torsions:
REMARK  status: ('A' for Active; 'I' for Inactive)
REMARK    1  A    between atoms: C_1  and  C_16 
REMARK    2  A    between atoms: C_1  and  O_13 
REMARK    3  A    between atoms: C_2  and  C_4 
REMARK    4  A    between atoms: C_4  and  C_21 
REMARK    5  A    between atoms: C_4  and  N_11 
REMARK       I    between atoms: C_7  and  N_11 
REMARK    6  A    between atoms: C_7  and  C_16 
REMARK       I    between atoms: C_12  and  N_17 
REMARK    7  A    between atoms: C_12  and  C_20 
REMARK    8  A    between atoms: C_16  and  N_19 
REMARK    9  A    between atoms: C_20  and  C_21 
ROOT
HETATM    1  H           1     -22.032  -5.694  -9.324  0.00  0.00     0.163 HD
HETATM    2  C           1     -21.471  -4.394  -7.814  0.00  0.00     0.251 C 
HETATM    3  N           1     -22.042  -4.732  -9.012  0.00  0.00    -0.345 N 
HETATM    4  O           1     -21.485  -3.244  -7.442  0.00  0.00    -0.271 OA
ENDROOT
BRANCH   3   5
HETATM    5  C           1     -22.661  -3.711  -9.834  0.00  0.00     0.186 C 
BRANCH   5   6
HETATM    6  C           1     -24.162  -3.844  -9.756  0.00  0.00     0.196 C 
HETATM    7  O           1     -24.707  -4.942  -9.999  0.00  0.00    -0.646 OA
HETATM    8  O           1     -24.861  -2.854  -9.447  0.00  0.00    -0.646 OA
ENDBRANCH   5   6
BRANCH   5   9
HETATM    9  C           1     -22.210  -3.880 -11.279  0.00  0.00     0.045 C 
BRANCH   9  10
HETATM   10  C           1     -22.485  -2.596 -12.051  0.00  0.00     0.105 C 
BRANCH  10  11
HETATM   11  C           1     -23.263  -2.919 -13.304  0.00  0.00     0.215 C 
HETATM   12  O           1     -24.457  -3.091 -13.246  0.00  0.00    -0.274 OA
HETATM   13  N           1     -22.614  -3.017 -14.505  0.00  0.00    -0.370 N 
HETATM   14  H           1     -23.135  -3.234 -15.346  0.00  0.00     0.159 HD
HETATM   15  H           1     -21.613  -2.873 -14.553  0.00  0.00     0.159 HD
ENDBRANCH  10  11
ENDBRANCH   9  10
ENDBRANCH   5   9
ENDBRANCH   3   5
BRANCH   2  16
HETATM   16  C           1     -20.828  -5.456  -6.958  0.00  0.00     0.302 C 
BRANCH  16  17
HETATM   17  C           1     -21.853  -6.009  -5.978  0.00  0.00     0.153 C 
HETATM   18  C           1     -21.288  -5.949  -4.564  0.00  0.00     0.042 C 
BRANCH  17  19
HETATM   19  O           1     -23.026  -5.244  -6.044  0.00  0.00    -0.393 OA
HETATM   20  H           1     -22.889  -4.590  -6.708  0.00  0.00     0.210 HD
ENDBRANCH  17  19
ENDBRANCH  16  17
BRANCH  16  21
HETATM   21  N           1     -19.683  -4.858  -6.197  0.00  0.00    -0.064 N 
HETATM   22  H           1     -19.981  -3.946  -5.779  0.00  0.00     0.275 HD
HETATM   23  H           1     -19.389  -5.510  -5.435  0.00  0.00     0.275 HD
HETATM   24  H           1     -18.879  -4.697  -6.846  0.00  0.00     0.275 HD
ENDBRANCH  16  21
ENDBRANCH   2  16
TORSDOF 9
ENDMDL
MODEL 2
REMARK VINA RESULT:      -5.6      2.320      6.517
REMARK  9 active torsions:
REMARK  status: ('A' for Active; 'I' for Inactive)
REMARK    1  A    between atoms: C_1  and  C_16 
REMARK    2  A    between atoms: C_1  and  O_13 
REMARK    3  A    between atoms: C_2  and  C_4 
REMARK    4  A    between atoms: C_4  and  C_21 
REMARK    5  A    between atoms: C_4  and  N_11 
REMARK       I    between atoms: C_7  and  N_11 
REMARK    6  A    between atoms: C_7  and  C_16 
REMARK       I    between atoms: C_12  and  N_17 
REMARK    7  A    between atoms: C_12  and  C_20 
REMARK    8  A    between atoms: C_16  and  N_19 
REMARK    9  A    between atoms: C_20  and  C_21 
ROOT
HETATM    1  H           1     -22.376  -6.220  -8.840  0.00  0.00     0.163 HD
HETATM    2  C           1     -23.069  -4.283  -9.065  0.00  0.00     0.251 C 
HETATM    3  N           1     -22.241  -5.254  -8.570  0.00  0.00    -0.345 N 
HETATM    4  O           1     -22.906  -3.129  -8.743  0.00  0.00    -0.271 OA
ENDROOT
BRANCH   3   5
HETATM    5  C           1     -21.170  -4.900  -7.660  0.00  0.00     0.186 C 
BRANCH   5   6
HETATM    6  C           1     -19.911  -4.629  -8.446  0.00  0.00     0.196 C 
HETATM    7  O           1     -18.894  -4.189  -7.867  0.00  0.00    -0.646 OA
HETATM    8  O           1     -19.885  -4.843  -9.678  0.00  0.00    -0.646 OA
ENDBRANCH   5   6
BRANCH   5   9
HETATM    9  C           1     -20.927  -6.049  -6.691  0.00  0.00     0.045 C 
BRANCH   9  10
HETATM   10  C           1     -20.887  -5.513  -5.266  0.00  0.00     0.105 C 
BRANCH  10  11
HETATM   11  C           1     -21.654  -6.442  -4.357  0.00  0.00     0.215 C 
HETATM   12  O           1     -22.067  -6.043  -3.294  0.00  0.00    -0.274 OA
HETATM   13  N           1     -21.881  -7.737  -4.737  0.00  0.00    -0.370 N 
HETATM   14  H           1     -22.395  -8.361  -4.128  0.00  0.00     0.159 HD
HETATM   15  H           1     -21.535  -8.072  -5.628  0.00  0.00     0.159 HD
ENDBRANCH  10  11
ENDBRANCH   9  10
ENDBRANCH   5   9
ENDBRANCH   3   5
BRANCH   2  16
HETATM   16  C           1     -24.182  -4.651 -10.014  0.00  0.00     0.302 C 
BRANCH  16  17
HETATM   17  C           1     -23.702  -4.492 -11.449  0.00  0.00     0.153 C 
HETATM   18  C           1     -24.265  -3.203 -12.034  0.00  0.00     0.042 C 
BRANCH  17  19
HETATM   19  O           1     -22.301  -4.441 -11.472  0.00  0.00    -0.393 OA
HETATM   20  H           1     -22.057  -3.541 -11.336  0.00  0.00     0.210 HD
ENDBRANCH  17  19
ENDBRANCH  16  17
BRANCH  16  21
HETATM   21  N           1     -25.357  -3.749  -9.778  0.00  0.00    -0.064 N 
HETATM   22  H           1     -25.183  -3.165  -8.928  0.00  0.00     0.275 HD
HETATM   23  H           1     -25.491  -3.125 -10.606  0.00  0.00     0.275 HD
HETATM   24  H           1     -26.216  -4.326  -9.635  0.00  0.00     0.275 HD
ENDBRANCH  16  21
ENDBRANCH   2  16
TORSDOF 9
ENDMDL
MODEL 3
REMARK VINA RESULT:      -5.4      3.610      7.849
REMARK  9 active torsions:
REMARK  status: ('A' for Active; 'I' for Inactive)
REMARK    1  A    between atoms: C_1  and  C_16 
REMARK    2  A    between atoms: C_1  and  O_13 
REMARK    3  A    between atoms: C_2  and  C_4 
REMARK    4  A    between atoms: C_4  and  C_21 
REMARK    5  A    between atoms: C_4  and  N_11 
REMARK       I    between atoms: C_7  and  N_11 
REMARK    6  A    between atoms: C_7  and  C_16 
REMARK       I    between atoms: C_12  and  N_17 
REMARK    7  A    between atoms: C_12  and  C_20 
REMARK    8  A    between atoms: C_16  and  N_19 
REMARK    9  A    between atoms: C_20  and  C_21 
ROOT
HETATM    1  H           1     -21.264  -7.449  -6.965  0.00  0.00     0.163 HD
HETATM    2  C           1     -21.041  -5.411  -6.682  0.00  0.00     0.251 C 
HETATM    3  N           1     -20.997  -6.727  -6.307  0.00  0.00    -0.345 N 
HETATM    4  O           1     -20.722  -4.549  -5.897  0.00  0.00    -0.271 OA
ENDROOT
BRANCH   3   5
HETATM    5  C           1     -20.569  -7.087  -4.970  0.00  0.00     0.186 C 
BRANCH   5   6
HETATM    6  C           1     -19.735  -8.343  -5.030  0.00  0.00     0.196 C 
HETATM    7  O           1     -19.077  -8.609  -6.059  0.00  0.00    -0.646 OA
HETATM    8  O           1     -19.703  -9.119  -4.050  0.00  0.00    -0.646 OA
ENDBRANCH   5   6
BRANCH   5   9
HETATM    9  C           1     -21.790  -7.329  -4.093  0.00  0.00     0.045 C 
BRANCH   9  10
HETATM   10  C           1     -21.805  -6.321  -2.952  0.00  0.00     0.105 C 
BRANCH  10  11
HETATM   11  C           1     -21.828  -7.054  -1.633  0.00  0.00     0.215 C 
HETATM   12  O           1     -22.693  -6.816  -0.824  0.00  0.00    -0.274 OA
HETATM   13  N           1     -20.869  -7.989  -1.354  0.00  0.00    -0.370 N 
HETATM   14  H           1     -20.884  -8.482  -0.469  0.00  0.00     0.159 HD
HETATM   15  H           1     -20.144  -8.189  -2.031  0.00  0.00     0.159 HD
ENDBRANCH  10  11
ENDBRANCH   9  10
ENDBRANCH   5   9
ENDBRANCH   3   5
BRANCH   2  16
HETATM   16  C           1     -21.486  -5.036  -8.073  0.00  0.00     0.302 C 
BRANCH  16  17
HETATM   17  C           1     -20.268  -4.701  -8.924  0.00  0.00     0.153 C 
HETATM   18  C           1     -20.724  -4.177 -10.279  0.00  0.00     0.042 C 
BRANCH  17  19
HETATM   19  O           1     -19.502  -3.719  -8.278  0.00  0.00    -0.393 OA
HETATM   20  H           1     -18.619  -3.808  -8.595  0.00  0.00     0.210 HD
ENDBRANCH  17  19
ENDBRANCH  16  17
BRANCH  16  21
HETATM   21  N           1     -22.390  -3.842  -8.003  0.00  0.00    -0.064 N 
HETATM   22  H           1     -21.946  -3.103  -7.411  0.00  0.00     0.275 HD
HETATM   23  H           1     -22.549  -3.466  -8.966  0.00  0.00     0.275 HD
HETATM   24  H           1     -23.305  -4.122  -7.584  0.00  0.00     0.275 HD
ENDBRANCH  16  21
ENDBRANCH   2  16
TORSDOF 9
ENDMDL
MODEL 4
REMARK VINA RESULT:      -5.2      2.239      6.871
REMARK  9 active torsions:
REMARK  status: ('A' for Active; 'I' for Inactive)
REMARK    1  A    between atoms: C_1  and  C_16 
REMARK    2  A    between atoms: C_1  and  O_13 
REMARK    3  A    between atoms: C_2  and  C_4 
REMARK    4  A    between atoms: C_4  and  C_21 
REMARK    5  A    between atoms: C_4  and  N_11 
REMARK       I    between atoms: C_7  and  N_11 
REMARK    6  A    between atoms: C_7  and  C_16 
REMARK       I    between atoms: C_12  and  N_17 
REMARK    7  A    between atoms: C_12  and  C_20 
REMARK    8  A    between atoms: C_16  and  N_19 
REMARK    9  A    between atoms: C_20  and  C_21 
ROOT
HETATM    1  H           1     -20.866  -5.621  -8.612  0.00  0.00     0.163 HD
HETATM    2  C           1     -22.695  -4.656  -8.538  0.00  0.00     0.251 C 
HETATM    3  N           1     -21.560  -5.205  -8.005  0.00  0.00    -0.345 N 
HETATM    4  O           1     -23.523  -4.158  -7.812  0.00  0.00    -0.271 OA
ENDROOT
BRANCH   3   5
HETATM    5  C           1     -21.351  -5.190  -6.570  0.00  0.00     0.186 C 
BRANCH   5   6
HETATM    6  C           1     -19.956  -4.699  -6.270  0.00  0.00     0.196 C 
HETATM    7  O           1     -19.124  -4.575  -7.194  0.00  0.00    -0.646 OA
HETATM    8  O           1     -19.633  -4.416  -5.096  0.00  0.00    -0.646 OA
ENDBRANCH   5   6
BRANCH   5   9
HETATM    9  C           1     -21.525  -6.598  -6.017  0.00  0.00     0.045 C 
BRANCH   9  10
HETATM   10  C           1     -22.551  -6.580  -4.892  0.00  0.00     0.105 C 
BRANCH  10  11
HETATM   11  C           1     -21.839  -6.612  -3.561  0.00  0.00     0.215 C 
HETATM   12  O           1     -20.811  -7.234  -3.440  0.00  0.00    -0.274 OA
HETATM   13  N           1     -22.360  -5.934  -2.492  0.00  0.00    -0.370 N 
HETATM   14  H           1     -21.883  -5.955  -1.599  0.00  0.00     0.159 HD
HETATM   15  H           1     -23.221  -5.413  -2.593  0.00  0.00     0.159 HD
ENDBRANCH  10  11
ENDBRANCH   9  10
ENDBRANCH   5   9
ENDBRANCH   3   5
BRANCH   2  16
HETATM   16  C           1     -22.912  -4.670 -10.030  0.00  0.00     0.302 C 
BRANCH  16  17
HETATM   17  C           1     -22.198  -3.482 -10.660  0.00  0.00     0.153 C 
HETATM   18  C           1     -20.893  -3.948 -11.290  0.00  0.00     0.042 C 
BRANCH  17  19
HETATM   19  O           1     -23.017  -2.914 -11.647  0.00  0.00    -0.393 OA
HETATM   20  H           1     -22.929  -1.978 -11.571  0.00  0.00     0.210 HD
ENDBRANCH  17  19
ENDBRANCH  16  17
BRANCH  16  21
HETATM   21  N           1     -24.381  -4.582 -10.322  0.00  0.00    -0.064 N 
HETATM   22  H           1     -24.664  -5.385 -10.929  0.00  0.00     0.275 HD
HETATM   23  H           1     -24.918  -4.617  -9.426  0.00  0.00     0.275 HD
HETATM   24  H           1     -24.585  -3.683 -10.815  0.00  0.00     0.275 HD
ENDBRANCH  16  21
ENDBRANCH   2  16
TORSDOF 9
ENDMDL
MODEL 5
REMARK VINA RESULT:      -5.2      2.542      7.160
REMARK  9 active torsions:
REMARK  status: ('A' for Active; 'I' for Inactive)
REMARK    1  A    between atoms: C_1  and  C_16 
REMARK    2  A    between atoms: C_1  and  O_13 
REMARK    3  A    between atoms: C_2  and  C_4 
REMARK    4  A    between atoms: C_4  and  C_21 
REMARK    5  A    between atoms: C_4  and  N_11 
REMARK       I    between atoms: C_7  and  N_11 
REMARK    6  A    between atoms: C_7  and  C_16 
REMARK       I    between atoms: C_12  and  N_17 
REMARK    7  A    between atoms: C_12  and  C_20 
REMARK    8  A    between atoms: C_16  and  N_19 
REMARK    9  A    between atoms: C_20  and  C_21 
ROOT
HETATM    1  H           1     -22.757  -6.312  -7.390  0.00  0.00     0.163 HD
HETATM    2  C           1     -22.561  -4.316  -7.902  0.00  0.00     0.251 C 
HETATM    3  N           1     -22.290  -5.441  -7.170  0.00  0.00    -0.345 N 
HETATM    4  O           1     -22.003  -3.277  -7.640  0.00  0.00    -0.271 OA
ENDROOT
BRANCH   3   5
HETATM    5  C           1     -21.335  -5.386  -6.081  0.00  0.00     0.186 C 
BRANCH   5   6
HETATM    6  C           1     -19.965  -5.755  -6.595  0.00  0.00     0.196 C 
HETATM    7  O           1     -19.163  -4.860  -6.938  0.00  0.00    -0.646 OA
HETATM    8  O           1     -19.633  -6.958  -6.679  0.00  0.00    -0.646 OA
ENDBRANCH   5   6
BRANCH   5   9
HETATM    9  C           1     -21.751  -6.365  -4.991  0.00  0.00     0.045 C 
BRANCH   9  10
HETATM   10  C           1     -21.158  -5.925  -3.659  0.00  0.00     0.105 C 
BRANCH  10  11
HETATM   11  C           1     -21.717  -6.784  -2.551  0.00  0.00     0.215 C 
HETATM   12  O           1     -22.365  -6.280  -1.665  0.00  0.00    -0.274 OA
HETATM   13  N           1     -21.489  -8.133  -2.551  0.00  0.00    -0.370 N 
HETATM   14  H           1     -21.864  -8.710  -1.808  0.00  0.00     0.159 HD
HETATM   15  H           1     -20.946  -8.555  -3.294  0.00  0.00     0.159 HD
ENDBRANCH  10  11
ENDBRANCH   9  10
ENDBRANCH   5   9
ENDBRANCH   3   5
BRANCH   2  16
HETATM   16  C           1     -23.554  -4.374  -9.036  0.00  0.00     0.302 C 
BRANCH  16  17
HETATM   17  C           1     -22.809  -4.425 -10.363  0.00  0.00     0.153 C 
HETATM   18  C           1     -23.099  -3.158 -11.158  0.00  0.00     0.042 C 
BRANCH  17  19
HETATM   19  O           1     -21.430  -4.519 -10.123  0.00  0.00    -0.393 OA
HETATM   20  H           1     -21.326  -4.930  -9.282  0.00  0.00     0.210 HD
ENDBRANCH  17  19
ENDBRANCH  16  17
BRANCH  16  21
HETATM   21  N           1     -24.424  -3.153  -8.999  0.00  0.00    -0.064 N 
HETATM   22  H           1     -25.429  -3.442  -9.016  0.00  0.00     0.275 HD
HETATM   23  H           1     -24.233  -2.613  -8.125  0.00  0.00     0.275 HD
HETATM   24  H           1     -24.219  -2.554  -9.830  0.00  0.00     0.275 HD
ENDBRANCH  16  21
ENDBRANCH   2  16
TORSDOF 9
ENDMDL
MODEL 6
REMARK VINA RESULT:      -5.1      6.042      9.164
REMARK  9 active torsions:
REMARK  status: ('A' for Active; 'I' for Inactive)
REMARK    1  A    between atoms: C_1  and  C_16 
REMARK    2  A    between atoms: C_1  and  O_13 
REMARK    3  A    between atoms: C_2  and  C_4 
REMARK    4  A    between atoms: C_4  and  C_21 
REMARK    5  A    between atoms: C_4  and  N_11 
REMARK       I    between atoms: C_7  and  N_11 
REMARK    6  A    between atoms: C_7  and  C_16 
REMARK       I    between atoms: C_12  and  N_17 
REMARK    7  A    between atoms: C_12  and  C_20 
REMARK    8  A    between atoms: C_16  and  N_19 
REMARK    9  A    between atoms: C_20  and  C_21 
ROOT
HETATM    1  H           1     -22.230  -9.450  -2.613  0.00  0.00     0.163 HD
HETATM    2  C           1     -21.461 -10.137  -0.818  0.00  0.00     0.251 C 
HETATM    3  N           1     -21.697  -9.201  -1.790  0.00  0.00    -0.345 N 
HETATM    4  O           1     -20.825  -9.838   0.165  0.00  0.00    -0.271 OA
ENDROOT
BRANCH   3   5
HETATM    5  C           1     -21.185  -7.853  -1.639  0.00  0.00     0.186 C 
BRANCH   5   6
HETATM    6  C           1     -22.308  -6.931  -1.233  0.00  0.00     0.196 C 
HETATM    7  O           1     -22.512  -5.875  -1.870  0.00  0.00    -0.646 OA
HETATM    8  O           1     -23.035  -7.223  -0.258  0.00  0.00    -0.646 OA
ENDBRANCH   5   6
BRANCH   5   9
HETATM    9  C           1     -20.593  -7.384  -2.961  0.00  0.00     0.045 C 
BRANCH   9  10
HETATM   10  C           1     -21.177  -8.208  -4.101  0.00  0.00     0.105 C 
BRANCH  10  11
HETATM   11  C           1     -21.645  -7.286  -5.200  0.00  0.00     0.215 C 
HETATM   12  O           1     -21.216  -7.417  -6.322  0.00  0.00    -0.274 OA
HETATM   13  N           1     -22.556  -6.302  -4.926  0.00  0.00    -0.370 N 
HETATM   14  H           1     -22.870  -5.683  -5.663  0.00  0.00     0.159 HD
HETATM   15  H           1     -22.916  -6.192  -3.986  0.00  0.00     0.159 HD
ENDBRANCH  10  11
ENDBRANCH   9  10
ENDBRANCH   5   9
ENDBRANCH   3   5
BRANCH   2  16
HETATM   16  C           1     -21.995 -11.538  -0.975  0.00  0.00     0.302 C 
BRANCH  16  17
HETATM   17  C           1     -23.422 -11.601  -0.448  0.00  0.00     0.153 C 
HETATM   18  C           1     -23.477 -12.529   0.759  0.00  0.00     0.042 C 
BRANCH  17  19
HETATM   19  O           1     -23.839 -10.317  -0.069  0.00  0.00    -0.393 OA
HETATM   20  H           1     -24.506 -10.428   0.587  0.00  0.00     0.210 HD
ENDBRANCH  17  19
ENDBRANCH  16  17
BRANCH  16  21
HETATM   21  N           1     -21.134 -12.490  -0.198  0.00  0.00    -0.064 N 
HETATM   22  H           1     -21.564 -12.661   0.740  0.00  0.00     0.275 HD
HETATM   23  H           1     -21.056 -13.394  -0.716  0.00  0.00     0.275 HD
HETATM   24  H           1     -20.182 -12.077  -0.075  0.00  0.00     0.275 HD
ENDBRANCH  16  21
ENDBRANCH   2  16
TORSDOF 9
ENDMDL
MODEL 7
REMARK VINA RESULT:      -4.9      3.883      7.914
REMARK  9 active torsions:
REMARK  status: ('A' for Active; 'I' for Inactive)
REMARK    1  A    between atoms: C_1  and  C_16 
REMARK    2  A    between atoms: C_1  and  O_13 
REMARK    3  A    between atoms: C_2  and  C_4 
REMARK    4  A    between atoms: C_4  and  C_21 
REMARK    5  A    between atoms: C_4  and  N_11 
REMARK       I    between atoms: C_7  and  N_11 
REMARK    6  A    between atoms: C_7  and  C_16 
REMARK       I    between atoms: C_12  and  N_17 
REMARK    7  A    between atoms: C_12  and  C_20 
REMARK    8  A    between atoms: C_16  and  N_19 
REMARK    9  A    between atoms: C_20  and  C_21 
ROOT
HETATM    1  H           1     -20.468  -5.628  -3.738  0.00  0.00     0.163 HD
HETATM    2  C           1     -20.912  -6.652  -5.480  0.00  0.00     0.251 C 
HETATM    3  N           1     -20.823  -6.493  -4.123  0.00  0.00    -0.345 N 
HETATM    4  O           1     -21.338  -7.686  -5.940  0.00  0.00    -0.271 OA
ENDROOT
BRANCH   3   5
HETATM    5  C           1     -21.238  -7.565  -3.239  0.00  0.00     0.186 C 
BRANCH   5   6
HETATM    6  C           1     -22.004  -6.987  -2.074  0.00  0.00     0.196 C 
HETATM    7  O           1     -22.602  -5.897  -2.197  0.00  0.00    -0.646 OA
HETATM    8  O           1     -22.038  -7.599  -0.984  0.00  0.00    -0.646 OA
ENDBRANCH   5   6
BRANCH   5   9
HETATM    9  C           1     -20.009  -8.302  -2.724  0.00  0.00     0.045 C 
BRANCH   9  10
HETATM   10  C           1     -19.828  -9.596  -3.506  0.00  0.00     0.105 C 
BRANCH  10  11
HETATM   11  C           1     -18.615  -9.481  -4.397  0.00  0.00     0.215 C 
HETATM   12  O           1     -17.509  -9.448  -3.911  0.00  0.00    -0.274 OA
HETATM   13  N           1     -18.768  -9.414  -5.755  0.00  0.00    -0.370 N 
HETATM   14  H           1     -17.955  -9.337  -6.353  0.00  0.00     0.159 HD
HETATM   15  H           1     -19.694  -9.443  -6.162  0.00  0.00     0.159 HD
ENDBRANCH  10  11
ENDBRANCH   9  10
ENDBRANCH   5   9
ENDBRANCH   3   5
BRANCH   2  16
HETATM   16  C           1     -20.482  -5.537  -6.401  0.00  0.00     0.302 C 
BRANCH  16  17
HETATM   17  C           1     -21.693  -4.697  -6.784  0.00  0.00     0.153 C 
HETATM   18  C           1     -21.901  -4.765  -8.291  0.00  0.00     0.042 C 
BRANCH  17  19
HETATM   19  O           1     -22.832  -5.193  -6.133  0.00  0.00    -0.393 OA
HETATM   20  H           1     -23.502  -5.290  -6.788  0.00  0.00     0.210 HD
ENDBRANCH  17  19
ENDBRANCH  16  17
BRANCH  16  21
HETATM   21  N           1     -19.868  -6.121  -7.638  0.00  0.00    -0.064 N 
HETATM   22  H           1     -19.149  -6.831  -7.369  0.00  0.00     0.275 HD
HETATM   23  H           1     -20.611  -6.580  -8.214  0.00  0.00     0.275 HD
HETATM   24  H           1     -19.416  -5.361  -8.195  0.00  0.00     0.275 HD
ENDBRANCH  16  21
ENDBRANCH   2  16
TORSDOF 9
ENDMDL
MODEL 8
REMARK VINA RESULT:      -4.8      5.441      8.224
REMARK  9 active torsions:
REMARK  status: ('A' for Active; 'I' for Inactive)
REMARK    1  A    between atoms: C_1  and  C_16 
REMARK    2  A    between atoms: C_1  and  O_13 
REMARK    3  A    between atoms: C_2  and  C_4 
REMARK    4  A    between atoms: C_4  and  C_21 
REMARK    5  A    between atoms: C_4  and  N_11 
REMARK       I    between atoms: C_7  and  N_11 
REMARK    6  A    between atoms: C_7  and  C_16 
REMARK       I    between atoms: C_12  and  N_17 
REMARK    7  A    between atoms: C_12  and  C_20 
REMARK    8  A    between atoms: C_16  and  N_19 
REMARK    9  A    between atoms: C_20  and  C_21 
ROOT
HETATM    1  H           1     -19.378  -7.577  -5.156  0.00  0.00     0.163 HD
HETATM    2  C           1     -20.373  -9.303  -4.598  0.00  0.00     0.251 C 
HETATM    3  N           1     -20.258  -7.960  -4.835  0.00  0.00    -0.345 N 
HETATM    4  O           1     -21.425  -9.761  -4.215  0.00  0.00    -0.271 OA
ENDROOT
BRANCH   3   5
HETATM    5  C           1     -21.395  -7.086  -4.627  0.00  0.00     0.186 C 
BRANCH   5   6
HETATM    6  C           1     -21.648  -6.282  -5.878  0.00  0.00     0.196 C 
HETATM    7  O           1     -22.502  -5.369  -5.874  0.00  0.00    -0.646 OA
HETATM    8  O           1     -21.004  -6.531  -6.921  0.00  0.00    -0.646 OA
ENDBRANCH   5   6
BRANCH   5   9
HETATM    9  C           1     -21.105  -6.143  -3.467  0.00  0.00     0.045 C 
BRANCH   9  10
HETATM   10  C           1     -22.213  -6.258  -2.428  0.00  0.00     0.105 C 
BRANCH  10  11
HETATM   11  C           1     -21.791  -7.224  -1.347  0.00  0.00     0.215 C 
HETATM   12  O           1     -20.726  -7.789  -1.423  0.00  0.00    -0.274 OA
HETATM   13  N           1     -22.617  -7.460  -0.281  0.00  0.00    -0.370 N 
HETATM   14  H           1     -22.334  -8.107   0.444  0.00  0.00     0.159 HD
HETATM   15  H           1     -23.509  -6.987  -0.217  0.00  0.00     0.159 HD
ENDBRANCH  10  11
ENDBRANCH   9  10
ENDBRANCH   5   9
ENDBRANCH   3   5
BRANCH   2  16
HETATM   16  C           1     -19.190 -10.213  -4.816  0.00  0.00     0.302 C 
BRANCH  16  17
HETATM   17  C           1     -18.326 -10.234  -3.563  0.00  0.00     0.153 C 
HETATM   18  C           1     -16.953  -9.657  -3.884  0.00  0.00     0.042 C 
BRANCH  17  19
HETATM   19  O           1     -18.933  -9.462  -2.562  0.00  0.00    -0.393 OA
HETATM   20  H           1     -19.742  -9.892  -2.338  0.00  0.00     0.210 HD
ENDBRANCH  17  19
ENDBRANCH  16  17
BRANCH  16  21
HETATM   21  N           1     -18.380  -9.709  -5.973  0.00  0.00    -0.064 N 
HETATM   22  H           1     -17.370  -9.931  -5.814  0.00  0.00     0.275 HD
HETATM   23  H           1     -18.703 -10.170  -6.854  0.00  0.00     0.275 HD
HETATM   24  H           1     -18.500  -8.674  -6.058  0.00  0.00     0.275 HD
ENDBRANCH  16  21
ENDBRANCH   2  16
TORSDOF 9
ENDMDL
MODEL 9
REMARK VINA RESULT:      -4.7      6.411      8.459
REMARK  9 active torsions:
REMARK  status: ('A' for Active; 'I' for Inactive)
REMARK    1  A    between atoms: C_1  and  C_16 
REMARK    2  A    between atoms: C_1  and  O_13 
REMARK    3  A    between atoms: C_2  and  C_4 
REMARK    4  A    between atoms: C_4  and  C_21 
REMARK    5  A    between atoms: C_4  and  N_11 
REMARK       I    between atoms: C_7  and  N_11 
REMARK    6  A    between atoms: C_7  and  C_16 
REMARK       I    between atoms: C_12  and  N_17 
REMARK    7  A    between atoms: C_12  and  C_20 
REMARK    8  A    between atoms: C_16  and  N_19 
REMARK    9  A    between atoms: C_20  and  C_21 
ROOT
HETATM    1  H           1     -22.585  -8.420  -3.442  0.00  0.00     0.163 HD
HETATM    2  C           1     -21.189  -8.431  -1.914  0.00  0.00     0.251 C 
HETATM    3  N           1     -21.642  -8.163  -3.178  0.00  0.00    -0.345 N 
HETATM    4  O           1     -20.063  -8.124  -1.599  0.00  0.00    -0.271 OA
ENDROOT
BRANCH   3   5
HETATM    5  C           1     -20.773  -7.512  -4.138  0.00  0.00     0.186 C 
BRANCH   5   6
HETATM    6  C           1     -21.452  -6.275  -4.673  0.00  0.00     0.196 C 
HETATM    7  O           1     -22.698  -6.231  -4.756  0.00  0.00    -0.646 OA
HETATM    8  O           1     -20.767  -5.294  -5.036  0.00  0.00    -0.646 OA
ENDBRANCH   5   6
BRANCH   5   9
HETATM    9  C           1     -20.477  -8.467  -5.286  0.00  0.00     0.045 C 
BRANCH   9  10
HETATM   10  C           1     -18.983  -8.760  -5.333  0.00  0.00     0.105 C 
BRANCH  10  11
HETATM   11  C           1     -18.632  -9.759  -4.258  0.00  0.00     0.215 C 
HETATM   12  O           1     -19.102 -10.871  -4.289  0.00  0.00    -0.274 OA
HETATM   13  N           1     -17.779  -9.404  -3.247  0.00  0.00    -0.370 N 
HETATM   14  H           1     -17.543 -10.074  -2.526  0.00  0.00     0.159 HD
HETATM   15  H           1     -17.385  -8.472  -3.221  0.00  0.00     0.159 HD
ENDBRANCH  10  11
ENDBRANCH   9  10
ENDBRANCH   5   9
ENDBRANCH   3   5
BRANCH   2  16
HETATM   16  C           1     -22.094  -9.107  -0.915  0.00  0.00     0.302 C 
BRANCH  16  17
HETATM   17  C           1     -22.780  -8.055  -0.055  0.00  0.00     0.153 C 
HETATM   18  C           1     -22.071  -7.957   1.290  0.00  0.00     0.042 C 
BRANCH  17  19
HETATM   19  O           1     -22.725  -6.812  -0.703  0.00  0.00    -0.393 OA
HETATM   20  H           1     -22.775  -6.152  -0.032  0.00  0.00     0.210 HD
ENDBRANCH  17  19
ENDBRANCH  16  17
BRANCH  16  21
HETATM   21  N           1     -21.281 -10.015  -0.040  0.00  0.00    -0.064 N 
HETATM   22  H           1     -20.870 -10.782  -0.620  0.00  0.00     0.275 HD
HETATM   23  H           1     -20.511  -9.469   0.410  0.00  0.00     0.275 HD
HETATM   24  H           1     -21.893 -10.426   0.700  0.00  0.00     0.275 HD
ENDBRANCH  16  21
ENDBRANCH   2  16
TORSDOF 9
ENDMDL
