MODEL 1
REMARK VINA RESULT:      -5.8      0.000      0.000
REMARK  8 active torsions:
REMARK  status: ('A' for Active; 'I' for Inactive)
REMARK    1  A    between atoms: C_6  and  C_11 
REMARK    2  A    between atoms: C_6  and  C_19 
REMARK    3  A    between atoms: C_6  and  N_20 
REMARK    4  A    between atoms: S_7  and  C_15 
REMARK    5  A    between atoms: N_8  and  C_9 
REMARK    6  A    between atoms: C_9  and  C_10 
REMARK    7  A    between atoms: C_9  and  C_15 
REMARK       I    between atoms: C_10  and  N_20 
REMARK    8  A    between atoms: C_11  and  C_13 
REMARK       I    between atoms: N_12  and  C_13 
ROOT
HETATM    1  H           1     -35.374  -1.899 -13.766  0.00  0.00     0.163 HD
HETATM    2  O           1     -33.695  -2.291 -11.145  0.00  0.00    -0.271 OA
HETATM    3  C           1     -34.241  -2.593 -12.179  0.00  0.00     0.249 C 
HETATM    4  N           1     -34.917  -1.645 -12.900  0.00  0.00    -0.344 N 
ENDROOT
BRANCH   4   5
HETATM    5  C           1     -34.977  -0.277 -12.420  0.00  0.00     0.194 C 
BRANCH   5   6
HETATM    6  C           1     -34.880   0.678 -13.604  0.00  0.00     0.138 C 
BRANCH   6   7
HETATM    7  C           1     -35.628   0.099 -14.780  0.00  0.00     0.217 C 
HETATM    8  N           1     -36.930   0.458 -15.007  0.00  0.00    -0.370 N 
HETATM    9  H           1     -37.390   1.111 -14.386  0.00  0.00     0.159 HD
HETATM   10  H           1     -37.431   0.070 -15.795  0.00  0.00     0.159 HD
HETATM   11  O           1     -35.078  -0.681 -15.521  0.00  0.00    -0.274 OA
ENDBRANCH   6   7
ENDBRANCH   5   6
BRANCH   5  12
HETATM   12  C           1     -36.284  -0.054 -11.699  0.00  0.00     0.197 C 
HETATM   13  O           1     -36.313   0.638 -10.659  0.00  0.00    -0.646 OA
HETATM   14  O           1     -37.336  -0.561 -12.143  0.00  0.00    -0.646 OA
ENDBRANCH   5  12
ENDBRANCH   4   5
BRANCH   3  15
HETATM   15  C           1     -34.179  -4.016 -12.677  0.00  0.00     0.283 C 
BRANCH  15  16
HETATM   16  N           1     -33.698  -4.027 -14.098  0.00  0.00    -0.066 N 
HETATM   17  H           1     -33.076  -4.853 -14.250  0.00  0.00     0.275 HD
HETATM   18  H           1     -34.518  -4.086 -14.743  0.00  0.00     0.275 HD
HETATM   19  H           1     -33.164  -3.150 -14.292  0.00  0.00     0.275 HD
ENDBRANCH  15  16
BRANCH  15  20
HETATM   20  C           1     -33.215  -4.816 -11.810  0.00  0.00     0.113 C 
BRANCH  20  21
HETATM   21  S           1     -34.150  -5.997 -10.798  0.00  0.00    -0.180 SA
HETATM   22  H           1     -33.715  -7.100 -11.433  0.00  0.00     0.101 HD
ENDBRANCH  20  21
ENDBRANCH  15  20
ENDBRANCH   3  15
TORSDOF 8
ENDMDL
MODEL 2
REMARK VINA RESULT:      -5.6      1.957      3.535
REMARK  8 active torsions:
REMARK  status: ('A' for Active; 'I' for Inactive)
REMARK    1  A    between atoms: C_6  and  C_11 
REMARK    2  A    between atoms: C_6  and  C_19 
REMARK    3  A    between atoms: C_6  and  N_20 
REMARK    4  A    between atoms: S_7  and  C_15 
REMARK    5  A    between atoms: N_8  and  C_9 
REMARK    6  A    between atoms: C_9  and  C_10 
REMARK    7  A    between atoms: C_9  and  C_15 
REMARK       I    between atoms: C_10  and  N_20 
REMARK    8  A    between atoms: C_11  and  C_13 
REMARK       I    between atoms: N_12  and  C_13 
ROOT
HETATM    1  H           1     -34.033  -1.196 -14.220  0.00  0.00     0.163 HD
HETATM    2  O           1     -36.657  -0.874 -12.529  0.00  0.00    -0.271 OA
HETATM    3  C           1     -35.516  -1.183 -12.775  0.00  0.00     0.249 C 
HETATM    4  N           1     -34.990  -0.937 -14.015  0.00  0.00    -0.344 N 
ENDROOT
BRANCH   4   5
HETATM    5  C           1     -35.805  -0.303 -15.034  0.00  0.00     0.194 C 
BRANCH   5   6
HETATM    6  C           1     -35.359   1.143 -15.211  0.00  0.00     0.138 C 
BRANCH   6   7
HETATM    7  C           1     -36.414   1.904 -15.975  0.00  0.00     0.217 C 
HETATM    8  N           1     -37.724   1.512 -15.908  0.00  0.00    -0.370 N 
HETATM    9  H           1     -37.985   0.711 -15.347  0.00  0.00     0.159 HD
HETATM   10  H           1     -38.432   2.022 -16.421  0.00  0.00     0.159 HD
HETATM   11  O           1     -36.103   2.860 -16.646  0.00  0.00    -0.274 OA
ENDBRANCH   6   7
ENDBRANCH   5   6
BRANCH   5  12
HETATM   12  C           1     -35.644  -1.044 -16.338  0.00  0.00     0.197 C 
HETATM   13  O           1     -36.543  -0.985 -17.205  0.00  0.00    -0.646 OA
HETATM   14  O           1     -34.612  -1.716 -16.552  0.00  0.00    -0.646 OA
ENDBRANCH   5  12
ENDBRANCH   4   5
BRANCH   3  15
HETATM   15  C           1     -34.668  -1.843 -11.714  0.00  0.00     0.283 C 
BRANCH  15  16
HETATM   16  N           1     -35.219  -1.513 -10.359  0.00  0.00    -0.066 N 
HETATM   17  H           1     -35.371  -0.482 -10.284  0.00  0.00     0.275 HD
HETATM   18  H           1     -36.129  -2.009 -10.222  0.00  0.00     0.275 HD
HETATM   19  H           1     -34.541  -1.818  -9.624  0.00  0.00     0.275 HD
ENDBRANCH  15  16
BRANCH  15  20
HETATM   20  C           1     -34.686  -3.352 -11.915  0.00  0.00     0.113 C 
BRANCH  20  21
HETATM   21  S           1     -32.998  -4.003 -11.774  0.00  0.00    -0.180 SA
HETATM   22  H           1     -32.857  -3.743 -10.462  0.00  0.00     0.101 HD
ENDBRANCH  20  21
ENDBRANCH  15  20
ENDBRANCH   3  15
TORSDOF 8
ENDMDL
MODEL 3
REMARK VINA RESULT:      -5.5     12.402     14.229
REMARK  8 active torsions:
REMARK  status: ('A' for Active; 'I' for Inactive)
REMARK    1  A    between atoms: C_6  and  C_11 
REMARK    2  A    between atoms: C_6  and  C_19 
REMARK    3  A    between atoms: C_6  and  N_20 
REMARK    4  A    between atoms: S_7  and  C_15 
REMARK    5  A    between atoms: N_8  and  C_9 
REMARK    6  A    between atoms: C_9  and  C_10 
REMARK    7  A    between atoms: C_9  and  C_15 
REMARK       I    between atoms: C_10  and  N_20 
REMARK    8  A    between atoms: C_11  and  C_13 
REMARK       I    between atoms: N_12  and  C_13 
ROOT
HETATM    1  H           1     -22.460  -5.899  -9.079  0.00  0.00     0.163 HD
HETATM    2  O           1     -21.566  -3.505  -7.258  0.00  0.00    -0.271 OA
HETATM    3  C           1     -21.718  -4.653  -7.602  0.00  0.00     0.249 C 
HETATM    4  N           1     -22.333  -4.937  -8.791  0.00  0.00    -0.344 N 
ENDROOT
BRANCH   4   5
HETATM    5  C           1     -22.803  -3.858  -9.639  0.00  0.00     0.194 C 
BRANCH   5   6
HETATM    6  C           1     -22.278  -4.062 -11.055  0.00  0.00     0.138 C 
BRANCH   6   7
HETATM    7  C           1     -20.777  -3.903 -11.062  0.00  0.00     0.217 C 
HETATM    8  N           1     -20.214  -2.739 -11.516  0.00  0.00    -0.370 N 
HETATM    9  H           1     -20.805  -1.987 -11.846  0.00  0.00     0.159 HD
HETATM   10  H           1     -19.208  -2.633 -11.521  0.00  0.00     0.159 HD
HETATM   11  O           1     -20.072  -4.801 -10.668  0.00  0.00    -0.274 OA
ENDBRANCH   6   7
ENDBRANCH   5   6
BRANCH   5  12
HETATM   12  C           1     -24.312  -3.853  -9.657  0.00  0.00     0.197 C 
HETATM   13  O           1     -24.935  -2.780  -9.504  0.00  0.00    -0.646 OA
HETATM   14  O           1     -24.938  -4.921  -9.826  0.00  0.00    -0.646 OA
ENDBRANCH   5  12
ENDBRANCH   4   5
BRANCH   3  15
HETATM   15  C           1     -21.229  -5.776  -6.719  0.00  0.00     0.283 C 
BRANCH  15  16
HETATM   16  N           1     -19.972  -6.354  -7.298  0.00  0.00    -0.066 N 
HETATM   17  H           1     -19.155  -6.074  -6.709  0.00  0.00     0.275 HD
HETATM   18  H           1     -20.045  -7.397  -7.317  0.00  0.00     0.275 HD
HETATM   19  H           1     -19.838  -5.995  -8.270  0.00  0.00     0.275 HD
ENDBRANCH  15  16
BRANCH  15  20
HETATM   20  C           1     -20.945  -5.237  -5.324  0.00  0.00     0.113 C 
BRANCH  20  21
HETATM   21  S           1     -21.345  -6.508  -4.091  0.00  0.00    -0.180 SA
HETATM   22  H           1     -20.110  -7.037  -4.028  0.00  0.00     0.101 HD
ENDBRANCH  20  21
ENDBRANCH  15  20
ENDBRANCH   3  15
TORSDOF 8
ENDMDL
MODEL 4
REMARK VINA RESULT:      -5.4      2.682      4.725
REMARK  8 active torsions:
REMARK  status: ('A' for Active; 'I' for Inactive)
REMARK    1  A    between atoms: C_6  and  C_11 
REMARK    2  A    between atoms: C_6  and  C_19 
REMARK    3  A    between atoms: C_6  and  N_20 
REMARK    4  A    between atoms: S_7  and  C_15 
REMARK    5  A    between atoms: N_8  and  C_9 
REMARK    6  A    between atoms: C_9  and  C_10 
REMARK    7  A    between atoms: C_9  and  C_15 
REMARK       I    between atoms: C_10  and  N_20 
REMARK    8  A    between atoms: C_11  and  C_13 
REMARK       I    between atoms: N_12  and  C_13 
ROOT
HETATM    1  H           1     -33.992  -0.698 -12.838  0.00  0.00     0.163 HD
HETATM    2  O           1     -37.073  -1.062 -13.312  0.00  0.00    -0.271 OA
HETATM    3  C           1     -35.972  -0.579 -13.430  0.00  0.00     0.249 C 
HETATM    4  N           1     -34.914  -1.104 -12.738  0.00  0.00    -0.344 N 
ENDROOT
BRANCH   4   5
HETATM    5  C           1     -35.115  -2.241 -11.862  0.00  0.00     0.194 C 
BRANCH   5   6
HETATM    6  C           1     -33.763  -2.823 -11.470  0.00  0.00     0.138 C 
BRANCH   6   7
HETATM    7  C           1     -33.341  -3.848 -12.494  0.00  0.00     0.217 C 
HETATM    8  N           1     -32.408  -4.797 -12.169  0.00  0.00    -0.370 N 
HETATM    9  H           1     -32.002  -4.811 -11.242  0.00  0.00     0.159 HD
HETATM   10  H           1     -32.125  -5.484 -12.856  0.00  0.00     0.159 HD
HETATM   11  O           1     -33.825  -3.832 -13.601  0.00  0.00    -0.274 OA
ENDBRANCH   6   7
ENDBRANCH   5   6
BRANCH   5  12
HETATM   12  C           1     -35.851  -1.796 -10.621  0.00  0.00     0.197 C 
HETATM   13  O           1     -36.940  -2.328 -10.317  0.00  0.00    -0.646 OA
HETATM   14  O           1     -35.370  -0.897  -9.899  0.00  0.00    -0.646 OA
ENDBRANCH   5  12
ENDBRANCH   4   5
BRANCH   3  15
HETATM   15  C           1     -35.763   0.605 -14.343  0.00  0.00     0.283 C 
BRANCH  15  16
HETATM   16  N           1     -34.318   0.683 -14.737  0.00  0.00    -0.066 N 
HETATM   17  H           1     -33.983   1.668 -14.647  0.00  0.00     0.275 HD
HETATM   18  H           1     -33.752   0.065 -14.111  0.00  0.00     0.275 HD
HETATM   19  H           1     -34.210   0.368 -15.728  0.00  0.00     0.275 HD
ENDBRANCH  15  16
BRANCH  15  20
HETATM   20  C           1     -36.621   0.443 -15.590  0.00  0.00     0.113 C 
BRANCH  20  21
HETATM   21  S           1     -35.968  -0.914 -16.603  0.00  0.00    -0.180 SA
HETATM   22  H           1     -36.633  -0.585 -17.724  0.00  0.00     0.101 HD
ENDBRANCH  20  21
ENDBRANCH  15  20
ENDBRANCH   3  15
TORSDOF 8
ENDMDL
MODEL 5
REMARK VINA RESULT:      -5.4      3.013      4.570
REMARK  8 active torsions:
REMARK  status: ('A' for Active; 'I' for Inactive)
REMARK    1  A    between atoms: C_6  and  C_11 
REMARK    2  A    between atoms: C_6  and  C_19 
REMARK    3  A    between atoms: C_6  and  N_20 
REMARK    4  A    between atoms: S_7  and  C_15 
REMARK    5  A    between atoms: N_8  and  C_9 
REMARK    6  A    between atoms: C_9  and  C_10 
REMARK    7  A    between atoms: C_9  and  C_15 
REMARK       I    between atoms: C_10  and  N_20 
REMARK    8  A    between atoms: C_11  and  C_13 
REMARK       I    between atoms: N_12  and  C_13 
ROOT
HETATM    1  H           1     -35.370   0.286 -11.921  0.00  0.00     0.163 HD
HETATM    2  O           1     -37.940  -0.687 -13.437  0.00  0.00    -0.271 OA
HETATM    3  C           1     -36.857  -0.172 -13.286  0.00  0.00     0.249 C 
HETATM    4  N           1     -36.277  -0.144 -12.046  0.00  0.00    -0.344 N 
ENDROOT
BRANCH   4   5
HETATM    5  C           1     -36.963  -0.734 -10.913  0.00  0.00     0.194 C 
BRANCH   5   6
HETATM    6  C           1     -36.277  -2.039 -10.528  0.00  0.00     0.138 C 
BRANCH   6   7
HETATM    7  C           1     -34.870  -2.047 -11.077  0.00  0.00     0.217 C 
HETATM    8  N           1     -33.827  -1.634 -10.291  0.00  0.00    -0.370 N 
HETATM    9  H           1     -33.999  -1.324  -9.344  0.00  0.00     0.159 HD
HETATM   10  H           1     -32.885  -1.640 -10.659  0.00  0.00     0.159 HD
HETATM   11  O           1     -34.665  -2.418 -12.208  0.00  0.00    -0.274 OA
ENDBRANCH   6   7
ENDBRANCH   5   6
BRANCH   5  12
HETATM   12  C           1     -36.919   0.221  -9.746  0.00  0.00     0.197 C 
HETATM   13  O           1     -36.141   0.007  -8.792  0.00  0.00    -0.646 OA
HETATM   14  O           1     -37.661   1.227  -9.734  0.00  0.00    -0.646 OA
ENDBRANCH   5  12
ENDBRANCH   4   5
BRANCH   3  15
HETATM   15  C           1     -36.143   0.442 -14.466  0.00  0.00     0.283 C 
BRANCH  15  16
HETATM   16  N           1     -34.720  -0.030 -14.489  0.00  0.00    -0.066 N 
HETATM   17  H           1     -34.232   0.289 -13.621  0.00  0.00     0.275 HD
HETATM   18  H           1     -34.700  -1.074 -14.534  0.00  0.00     0.275 HD
HETATM   19  H           1     -34.235   0.366 -15.325  0.00  0.00     0.275 HD
ENDBRANCH  15  16
BRANCH  15  20
HETATM   20  C           1     -36.837   0.021 -15.754  0.00  0.00     0.113 C 
BRANCH  20  21
HETATM   21  S           1     -35.778  -1.140 -16.662  0.00  0.00    -0.180 SA
HETATM   22  H           1     -36.219  -2.248 -16.040  0.00  0.00     0.101 HD
ENDBRANCH  20  21
ENDBRANCH  15  20
ENDBRANCH   3  15
TORSDOF 8
ENDMDL
MODEL 6
REMARK VINA RESULT:      -5.3     11.721     13.380
REMARK  8 active torsions:
REMARK  status: ('A' for Active; 'I' for Inactive)
REMARK    1  A    between atoms: C_6  and  C_11 
REMARK    2  A    between atoms: C_6  and  C_19 
REMARK    3  A    between atoms: C_6  and  N_20 
REMARK    4  A    between atoms: S_7  and  C_15 
REMARK    5  A    between atoms: N_8  and  C_9 
REMARK    6  A    between atoms: C_9  and  C_10 
REMARK    7  A    between atoms: C_9  and  C_15 
REMARK       I    between atoms: C_10  and  N_20 
REMARK    8  A    between atoms: C_11  and  C_13 
REMARK       I    between atoms: N_12  and  C_13 
ROOT
HETATM    1  H           1     -22.736  -5.189  -8.726  0.00  0.00     0.163 HD
HETATM    2  O           1     -20.415  -3.634 -10.155  0.00  0.00    -0.271 OA
HETATM    3  C           1     -20.938  -4.396  -9.377  0.00  0.00     0.249 C 
HETATM    4  N           1     -22.298  -4.550  -9.377  0.00  0.00    -0.344 N 
ENDROOT
BRANCH   4   5
HETATM    5  C           1     -23.112  -3.796 -10.312  0.00  0.00     0.194 C 
BRANCH   5   6
HETATM    6  C           1     -23.027  -4.440 -11.690  0.00  0.00     0.138 C 
BRANCH   6   7
HETATM    7  C           1     -23.600  -3.499 -12.721  0.00  0.00     0.217 C 
HETATM    8  N           1     -23.248  -2.175 -12.710  0.00  0.00    -0.370 N 
HETATM    9  H           1     -22.605  -1.829 -12.010  0.00  0.00     0.159 HD
HETATM   10  H           1     -23.632  -1.544 -13.401  0.00  0.00     0.159 HD
HETATM   11  O           1     -24.368  -3.913 -13.557  0.00  0.00    -0.274 OA
ENDBRANCH   6   7
ENDBRANCH   5   6
BRANCH   5  12
HETATM   12  C           1     -24.546  -3.796  -9.843  0.00  0.00     0.197 C 
HETATM   13  O           1     -25.119  -2.715  -9.584  0.00  0.00    -0.646 OA
HETATM   14  O           1     -25.161  -4.876  -9.714  0.00  0.00    -0.646 OA
ENDBRANCH   5  12
ENDBRANCH   4   5
BRANCH   3  15
HETATM   15  C           1     -20.091  -5.180  -8.405  0.00  0.00     0.283 C 
BRANCH  15  16
HETATM   16  N           1     -19.091  -4.265  -7.763  0.00  0.00    -0.066 N 
HETATM   17  H           1     -18.136  -4.684  -7.837  0.00  0.00     0.275 HD
HETATM   18  H           1     -19.102  -3.340  -8.250  0.00  0.00     0.275 HD
HETATM   19  H           1     -19.336  -4.133  -6.756  0.00  0.00     0.275 HD
ENDBRANCH  15  16
BRANCH  15  20
HETATM   20  C           1     -20.982  -5.790  -7.331  0.00  0.00     0.113 C 
BRANCH  20  21
HETATM   21  S           1     -20.539  -5.100  -5.712  0.00  0.00    -0.180 SA
HETATM   22  H           1     -21.696  -5.415  -5.104  0.00  0.00     0.101 HD
ENDBRANCH  20  21
ENDBRANCH  15  20
ENDBRANCH   3  15
TORSDOF 8
ENDMDL
MODEL 7
REMARK VINA RESULT:      -4.6     15.381     17.457
REMARK  8 active torsions:
REMARK  status: ('A' for Active; 'I' for Inactive)
REMARK    1  A    between atoms: C_6  and  C_11 
REMARK    2  A    between atoms: C_6  and  C_19 
REMARK    3  A    between atoms: C_6  and  N_20 
REMARK    4  A    between atoms: S_7  and  C_15 
REMARK    5  A    between atoms: N_8  and  C_9 
REMARK    6  A    between atoms: C_9  and  C_10 
REMARK    7  A    between atoms: C_9  and  C_15 
REMARK       I    between atoms: C_10  and  N_20 
REMARK    8  A    between atoms: C_11  and  C_13 
REMARK       I    between atoms: N_12  and  C_13 
ROOT
HETATM    1  H           1     -21.146  -7.499  -6.969  0.00  0.00     0.163 HD
HETATM    2  O           1     -20.577  -4.652  -5.777  0.00  0.00    -0.271 OA
HETATM    3  C           1     -20.896  -5.477  -6.600  0.00  0.00     0.249 C 
HETATM    4  N           1     -20.877  -6.808  -6.280  0.00  0.00    -0.344 N 
ENDROOT
BRANCH   4   5
HETATM    5  C           1     -20.473  -7.227  -4.951  0.00  0.00     0.194 C 
BRANCH   5   6
HETATM    6  C           1     -21.704  -7.637  -4.153  0.00  0.00     0.138 C 
BRANCH   6   7
HETATM    7  C           1     -21.669  -6.974  -2.798  0.00  0.00     0.217 C 
HETATM    8  N           1     -20.896  -7.503  -1.798  0.00  0.00    -0.370 N 
HETATM    9  H           1     -20.350  -8.337  -1.968  0.00  0.00     0.159 HD
HETATM   10  H           1     -20.872  -7.059  -0.889  0.00  0.00     0.159 HD
HETATM   11  O           1     -22.321  -5.978  -2.595  0.00  0.00    -0.274 OA
ENDBRANCH   6   7
ENDBRANCH   5   6
BRANCH   5  12
HETATM   12  C           1     -19.530  -8.400  -5.060  0.00  0.00     0.197 C 
HETATM   13  O           1     -18.928  -8.621  -6.133  0.00  0.00    -0.646 OA
HETATM   14  O           1     -19.350  -9.150  -4.077  0.00  0.00    -0.646 OA
ENDBRANCH   5  12
ENDBRANCH   4   5
BRANCH   3  15
HETATM   15  C           1     -21.317  -5.040  -7.982  0.00  0.00     0.283 C 
BRANCH  15  16
HETATM   16  N           1     -22.286  -3.901  -7.872  0.00  0.00    -0.066 N 
HETATM   17  H           1     -21.771  -2.995  -7.950  0.00  0.00     0.275 HD
HETATM   18  H           1     -22.991  -3.967  -8.641  0.00  0.00     0.275 HD
HETATM   19  H           1     -22.773  -3.945  -6.948  0.00  0.00     0.275 HD
ENDBRANCH  15  16
BRANCH  15  20
HETATM   20  C           1     -20.093  -4.590  -8.767  0.00  0.00     0.113 C 
BRANCH  20  21
HETATM   21  S           1     -20.563  -4.267 -10.490  0.00  0.00    -0.180 SA
HETATM   22  H           1     -19.566  -3.402 -10.748  0.00  0.00     0.101 HD
ENDBRANCH  20  21
ENDBRANCH  15  20
ENDBRANCH   3  15
TORSDOF 8
ENDMDL
MODEL 8
REMARK VINA RESULT:      -4.5     15.414     17.462
REMARK  8 active torsions:
REMARK  status: ('A' for Active; 'I' for Inactive)
REMARK    1  A    between atoms: C_6  and  C_11 
REMARK    2  A    between atoms: C_6  and  C_19 
REMARK    3  A    between atoms: C_6  and  N_20 
REMARK    4  A    between atoms: S_7  and  C_15 
REMARK    5  A    between atoms: N_8  and  C_9 
REMARK    6  A    between atoms: C_9  and  C_10 
REMARK    7  A    between atoms: C_9  and  C_15 
REMARK       I    between atoms: C_10  and  N_20 
REMARK    8  A    between atoms: C_11  and  C_13 
REMARK       I    between atoms: N_12  and  C_13 
ROOT
HETATM    1  H           1     -19.896  -6.777  -4.783  0.00  0.00     0.163 HD
HETATM    2  O           1     -22.633  -5.571  -5.731  0.00  0.00    -0.271 OA
HETATM    3  C           1     -21.437  -5.736  -5.692  0.00  0.00     0.249 C 
HETATM    4  N           1     -20.898  -6.639  -4.815  0.00  0.00    -0.344 N 
ENDROOT
BRANCH   4   5
HETATM    5  C           1     -21.765  -7.396  -3.931  0.00  0.00     0.194 C 
BRANCH   5   6
HETATM    6  C           1     -21.366  -8.866  -3.971  0.00  0.00     0.138 C 
BRANCH   6   7
HETATM    7  C           1     -19.958  -8.991  -4.498  0.00  0.00     0.217 C 
HETATM    8  N           1     -18.903  -9.047  -3.626  0.00  0.00    -0.370 N 
HETATM    9  H           1     -19.068  -9.004  -2.629  0.00  0.00     0.159 HD
HETATM   10  H           1     -17.959  -9.131  -3.980  0.00  0.00     0.159 HD
HETATM   11  O           1     -19.761  -9.043  -5.689  0.00  0.00    -0.274 OA
ENDBRANCH   6   7
ENDBRANCH   5   6
BRANCH   5  12
HETATM   12  C           1     -21.626  -6.874  -2.522  0.00  0.00     0.197 C 
HETATM   13  O           1     -22.278  -5.871  -2.160  0.00  0.00    -0.646 OA
HETATM   14  O           1     -20.859  -7.445  -1.718  0.00  0.00    -0.646 OA
ENDBRANCH   5  12
ENDBRANCH   4   5
BRANCH   3  15
HETATM   15  C           1     -20.537  -4.948  -6.611  0.00  0.00     0.283 C 
BRANCH  15  16
HETATM   16  N           1     -20.006  -5.851  -7.685  0.00  0.00    -0.066 N 
HETATM   17  H           1     -19.536  -6.676  -7.248  0.00  0.00     0.275 HD
HETATM   18  H           1     -20.796  -6.180  -8.286  0.00  0.00     0.275 HD
HETATM   19  H           1     -19.316  -5.328  -8.270  0.00  0.00     0.275 HD
ENDBRANCH  15  16
BRANCH  15  20
HETATM   20  C           1     -21.328  -3.814  -7.248  0.00  0.00     0.113 C 
BRANCH  20  21
HETATM   21  S           1     -21.704  -4.231  -8.973  0.00  0.00    -0.180 SA
HETATM   22  H           1     -22.633  -3.275  -9.150  0.00  0.00     0.101 HD
ENDBRANCH  20  21
ENDBRANCH  15  20
ENDBRANCH   3  15
TORSDOF 8
ENDMDL
MODEL 9
REMARK VINA RESULT:      -4.4     17.109     18.765
REMARK  8 active torsions:
REMARK  status: ('A' for Active; 'I' for Inactive)
REMARK    1  A    between atoms: C_6  and  C_11 
REMARK    2  A    between atoms: C_6  and  C_19 
REMARK    3  A    between atoms: C_6  and  N_20 
REMARK    4  A    between atoms: S_7  and  C_15 
REMARK    5  A    between atoms: N_8  and  C_9 
REMARK    6  A    between atoms: C_9  and  C_10 
REMARK    7  A    between atoms: C_9  and  C_15 
REMARK       I    between atoms: C_10  and  N_20 
REMARK    8  A    between atoms: C_11  and  C_13 
REMARK       I    between atoms: N_12  and  C_13 
ROOT
HETATM    1  H           1     -22.740  -8.340  -2.516  0.00  0.00     0.163 HD
HETATM    2  O           1     -19.791  -8.428  -3.587  0.00  0.00    -0.271 OA
HETATM    3  C           1     -20.972  -8.176  -3.582  0.00  0.00     0.249 C 
HETATM    4  N           1     -21.750  -8.553  -2.520  0.00  0.00    -0.344 N 
ENDROOT
BRANCH   4   5
HETATM    5  C           1     -21.155  -9.258  -1.401  0.00  0.00     0.194 C 
BRANCH   5   6
HETATM    6  C           1     -21.232  -8.384  -0.155  0.00  0.00     0.138 C 
BRANCH   6   7
HETATM    7  C           1     -22.495  -7.560  -0.196  0.00  0.00     0.217 C 
HETATM    8  N           1     -23.582  -7.935   0.549  0.00  0.00    -0.370 N 
HETATM    9  H           1     -23.537  -8.765   1.126  0.00  0.00     0.159 HD
HETATM   10  H           1     -24.429  -7.382   0.521  0.00  0.00     0.159 HD
HETATM   11  O           1     -22.548  -6.569  -0.886  0.00  0.00    -0.274 OA
ENDBRANCH   6   7
ENDBRANCH   5   6
BRANCH   5  12
HETATM   12  C           1     -21.905 -10.545  -1.161  0.00  0.00     0.197 C 
HETATM   13  O           1     -21.279 -11.588  -0.873  0.00  0.00    -0.646 OA
HETATM   14  O           1     -23.151 -10.567  -1.250  0.00  0.00    -0.646 OA
ENDBRANCH   5  12
ENDBRANCH   4   5
BRANCH   3  15
HETATM   15  C           1     -21.591  -7.443  -4.746  0.00  0.00     0.283 C 
BRANCH  15  16
HETATM   16  N           1     -22.387  -6.277  -4.237  0.00  0.00    -0.066 N 
HETATM   17  H           1     -23.383  -6.564  -4.109  0.00  0.00     0.275 HD
HETATM   18  H           1     -21.995  -5.962  -3.321  0.00  0.00     0.275 HD
HETATM   19  H           1     -22.337  -5.494  -4.927  0.00  0.00     0.275 HD
ENDBRANCH  15  16
BRANCH  15  20
HETATM   20  C           1     -20.492  -6.939  -5.672  0.00  0.00     0.113 C 
BRANCH  20  21
HETATM   21  S           1     -20.458  -5.125  -5.643  0.00  0.00    -0.180 SA
HETATM   22  H           1     -21.743  -4.955  -6.001  0.00  0.00     0.101 HD
ENDBRANCH  20  21
ENDBRANCH  15  20
ENDBRANCH   3  15
TORSDOF 8
ENDMDL
