MODEL 1
REMARK VINA RESULT:      -7.0      0.000      0.000
REMARK  10 active torsions:
REMARK  status: ('A' for Active; 'I' for Inactive)
REMARK    1  A    between atoms: S_5  and  C_6 
REMARK    2  A    between atoms: C_6  and  C_28 
REMARK    3  A    between atoms: C_7  and  C_8 
REMARK    4  A    between atoms: C_7  and  C_19 
REMARK    5  A    between atoms: C_7  and  N_15 
REMARK    6  A    between atoms: C_8  and  C_9 
REMARK    7  A    between atoms: C_9  and  C_10 
REMARK    8  A    between atoms: C_10  and  N_11 
REMARK       I    between atoms: N_11  and  C_13 
REMARK       I    between atoms: N_12  and  C_13 
REMARK       I    between atoms: C_14  and  N_15 
REMARK    9  A    between atoms: C_14  and  C_28 
REMARK   10  A    between atoms: N_21  and  C_28 
ROOT
HETATM    1  C           1     -22.640  -3.781  -9.649  0.00  0.00     0.185 C 
ENDROOT
BRANCH   1   2
HETATM    2  C           1     -22.047  -3.922 -11.044  0.00  0.00     0.038 C 
BRANCH   2   3
HETATM    3  C           1     -22.329  -2.660 -11.848  0.00  0.00     0.023 C 
BRANCH   3   4
HETATM    4  C           1     -23.081  -3.026 -13.121  0.00  0.00     0.138 C 
BRANCH   4   5
HETATM    5  N           1     -23.915  -1.891 -13.541  0.00  0.00    -0.227 N 
HETATM    6  C           1     -23.747  -1.369 -14.682  0.00  0.00     0.665 C 
HETATM    7  N           1     -22.859  -1.825 -15.462  0.00  0.00    -0.235 N 
HETATM    8  N           1     -24.485  -0.366 -15.053  0.00  0.00    -0.235 N 
HETATM    9  H           1     -22.263  -2.635 -15.162  0.00  0.00     0.174 HD
HETATM   10  H           1     -22.720  -1.392 -16.408  0.00  0.00     0.174 HD
HETATM   11  H           1     -25.218   0.011 -14.410  0.00  0.00     0.174 HD
HETATM   12  H           1     -24.347   0.065 -15.995  0.00  0.00     0.174 HD
HETATM   13  H           1     -24.651  -1.513 -12.895  0.00  0.00     0.177 HD
ENDBRANCH   4   5
ENDBRANCH   3   4
ENDBRANCH   2   3
ENDBRANCH   1   2
BRANCH   1  14
HETATM   14  C           1     -24.145  -3.841  -9.732  0.00  0.00     0.196 C 
HETATM   15  O           1     -24.827  -2.826  -9.472  0.00  0.00    -0.646 OA
HETATM   16  O           1     -24.711  -4.905 -10.063  0.00  0.00    -0.646 OA
ENDBRANCH   1  14
BRANCH   1  17
HETATM   17  N           1     -22.160  -4.860  -8.809  0.00  0.00    -0.345 N 
HETATM   18  H           1     -22.269  -5.821  -9.107  0.00  0.00     0.163 HD
HETATM   19  C           1     -21.559  -4.580  -7.610  0.00  0.00     0.249 C 
HETATM   20  O           1     -21.429  -3.433  -7.254  0.00  0.00    -0.271 OA
BRANCH  19  21
HETATM   21  C           1     -21.059  -5.703  -6.736  0.00  0.00     0.283 C 
BRANCH  21  22
HETATM   22  C           1     -20.743  -5.164  -5.347  0.00  0.00     0.113 C 
BRANCH  22  23
HETATM   23  S           1     -21.358  -6.324  -4.093  0.00  0.00    -0.180 SA
HETATM   24  H           1     -20.792  -5.706  -3.040  0.00  0.00     0.101 HD
ENDBRANCH  22  23
ENDBRANCH  21  22
BRANCH  21  25
HETATM   25  N           1     -19.817  -6.290  -7.338  0.00  0.00    -0.066 N 
HETATM   26  H           1     -19.424  -5.624  -8.042  0.00  0.00     0.275 HD
HETATM   27  H           1     -20.050  -7.194  -7.808  0.00  0.00     0.275 HD
HETATM   28  H           1     -19.112  -6.460  -6.587  0.00  0.00     0.275 HD
ENDBRANCH  21  25
ENDBRANCH  19  21
ENDBRANCH   1  17
TORSDOF 10
ENDMDL
MODEL 2
REMARK VINA RESULT:      -6.9     12.339     14.439
REMARK  10 active torsions:
REMARK  status: ('A' for Active; 'I' for Inactive)
REMARK    1  A    between atoms: S_5  and  C_6 
REMARK    2  A    between atoms: C_6  and  C_28 
REMARK    3  A    between atoms: C_7  and  C_8 
REMARK    4  A    between atoms: C_7  and  C_19 
REMARK    5  A    between atoms: C_7  and  N_15 
REMARK    6  A    between atoms: C_8  and  C_9 
REMARK    7  A    between atoms: C_9  and  C_10 
REMARK    8  A    between atoms: C_10  and  N_11 
REMARK       I    between atoms: N_11  and  C_13 
REMARK       I    between atoms: N_12  and  C_13 
REMARK       I    between atoms: C_14  and  N_15 
REMARK    9  A    between atoms: C_14  and  C_28 
REMARK   10  A    between atoms: N_21  and  C_28 
ROOT
HETATM    1  C           1     -34.954  -2.416 -12.063  0.00  0.00     0.185 C 
ENDROOT
BRANCH   1   2
HETATM    2  C           1     -34.013  -3.563 -12.408  0.00  0.00     0.038 C 
BRANCH   2   3
HETATM    3  C           1     -34.693  -4.890 -12.100  0.00  0.00     0.023 C 
BRANCH   3   4
HETATM    4  C           1     -34.251  -5.381 -10.729  0.00  0.00     0.138 C 
BRANCH   4   5
HETATM    5  N           1     -33.657  -6.720 -10.856  0.00  0.00    -0.227 N 
HETATM    6  C           1     -34.162  -7.698 -10.231  0.00  0.00     0.665 C 
HETATM    7  N           1     -35.179  -7.524  -9.497  0.00  0.00    -0.235 N 
HETATM    8  N           1     -33.636  -8.882 -10.343  0.00  0.00    -0.235 N 
HETATM    9  H           1     -35.603  -6.568  -9.406  0.00  0.00     0.174 HD
HETATM   10  H           1     -35.597  -8.335  -8.978  0.00  0.00     0.174 HD
HETATM   11  H           1     -32.797  -9.026 -10.949  0.00  0.00     0.174 HD
HETATM   12  H           1     -34.053  -9.690  -9.827  0.00  0.00     0.174 HD
HETATM   13  H           1     -32.814  -6.865 -11.464  0.00  0.00     0.177 HD
ENDBRANCH   4   5
ENDBRANCH   3   4
ENDBRANCH   2   3
ENDBRANCH   1   2
BRANCH   1  14
HETATM   14  C           1     -34.565  -1.829 -10.729  0.00  0.00     0.196 C 
HETATM   15  O           1     -35.439  -1.334  -9.985  0.00  0.00    -0.646 OA
HETATM   16  O           1     -33.369  -1.839 -10.367  0.00  0.00    -0.646 OA
ENDBRANCH   1  14
BRANCH   1  17
HETATM   17  N           1     -34.862  -1.393 -13.086  0.00  0.00    -0.345 N 
HETATM   18  H           1     -33.974  -1.198 -13.530  0.00  0.00     0.163 HD
HETATM   19  C           1     -35.978  -0.688 -13.451  0.00  0.00     0.249 C 
HETATM   20  O           1     -37.039  -0.919 -12.921  0.00  0.00    -0.271 OA
BRANCH  19  21
HETATM   21  C           1     -35.883   0.377 -14.516  0.00  0.00     0.283 C 
BRANCH  21  22
HETATM   22  C           1     -36.711  -0.037 -15.725  0.00  0.00     0.113 C 
BRANCH  22  23
HETATM   23  S           1     -35.767  -1.218 -16.730  0.00  0.00    -0.180 SA
HETATM   24  H           1     -35.710  -0.451 -17.833  0.00  0.00     0.101 HD
ENDBRANCH  22  23
ENDBRANCH  21  22
BRANCH  21  25
HETATM   25  N           1     -34.450   0.546 -14.926  0.00  0.00    -0.066 N 
HETATM   26  H           1     -34.378   0.488 -15.968  0.00  0.00     0.275 HD
HETATM   27  H           1     -33.872  -0.210 -14.495  0.00  0.00     0.275 HD
HETATM   28  H           1     -34.103   1.477 -14.604  0.00  0.00     0.275 HD
ENDBRANCH  21  25
ENDBRANCH  19  21
ENDBRANCH   1  17
TORSDOF 10
ENDMDL
MODEL 3
REMARK VINA RESULT:      -6.6     11.669     13.320
REMARK  10 active torsions:
REMARK  status: ('A' for Active; 'I' for Inactive)
REMARK    1  A    between atoms: S_5  and  C_6 
REMARK    2  A    between atoms: C_6  and  C_28 
REMARK    3  A    between atoms: C_7  and  C_8 
REMARK    4  A    between atoms: C_7  and  C_19 
REMARK    5  A    between atoms: C_7  and  N_15 
REMARK    6  A    between atoms: C_8  and  C_9 
REMARK    7  A    between atoms: C_9  and  C_10 
REMARK    8  A    between atoms: C_10  and  N_11 
REMARK       I    between atoms: N_11  and  C_13 
REMARK       I    between atoms: N_12  and  C_13 
REMARK       I    between atoms: C_14  and  N_15 
REMARK    9  A    between atoms: C_14  and  C_28 
REMARK   10  A    between atoms: N_21  and  C_28 
ROOT
HETATM    1  C           1     -35.650  -0.728 -11.778  0.00  0.00     0.185 C 
ENDROOT
BRANCH   1   2
HETATM    2  C           1     -36.252   0.168 -12.853  0.00  0.00     0.038 C 
BRANCH   2   3
HETATM    3  C           1     -35.135   0.817 -13.659  0.00  0.00     0.023 C 
BRANCH   3   4
HETATM    4  C           1     -35.387   0.596 -15.145  0.00  0.00     0.138 C 
BRANCH   4   5
HETATM    5  N           1     -34.838  -0.707 -15.547  0.00  0.00    -0.227 N 
HETATM    6  C           1     -35.332  -1.324 -16.535  0.00  0.00     0.665 C 
HETATM    7  N           1     -36.299  -0.819 -17.178  0.00  0.00    -0.235 N 
HETATM    8  N           1     -34.846  -2.476 -16.891  0.00  0.00    -0.235 N 
HETATM    9  H           1     -36.691   0.112 -16.891  0.00  0.00     0.174 HD
HETATM   10  H           1     -36.709  -1.331 -17.998  0.00  0.00     0.174 HD
HETATM   11  H           1     -34.048  -2.894 -16.361  0.00  0.00     0.174 HD
HETATM   12  H           1     -35.254  -2.986 -17.707  0.00  0.00     0.174 HD
HETATM   13  H           1     -34.036  -1.126 -15.015  0.00  0.00     0.177 HD
ENDBRANCH   4   5
ENDBRANCH   3   4
ENDBRANCH   2   3
ENDBRANCH   1   2
BRANCH   1  14
HETATM   14  C           1     -36.580  -0.787 -10.592  0.00  0.00     0.196 C 
HETATM   15  O           1     -36.157  -0.506  -9.450  0.00  0.00    -0.646 OA
HETATM   16  O           1     -37.776  -1.115 -10.752  0.00  0.00    -0.646 OA
ENDBRANCH   1  14
BRANCH   1  17
HETATM   17  N           1     -35.462  -2.062 -12.311  0.00  0.00    -0.345 N 
HETATM   18  H           1     -36.140  -2.451 -12.955  0.00  0.00     0.163 HD
HETATM   19  C           1     -34.367  -2.799 -11.944  0.00  0.00     0.249 C 
HETATM   20  O           1     -33.558  -2.335 -11.175  0.00  0.00    -0.271 OA
BRANCH  19  21
HETATM   21  C           1     -34.171  -4.188 -12.498  0.00  0.00     0.283 C 
BRANCH  21  22
HETATM   22  C           1     -33.287  -4.993 -11.554  0.00  0.00     0.113 C 
BRANCH  22  23
HETATM   23  S           1     -34.318  -6.114 -10.567  0.00  0.00    -0.180 SA
HETATM   24  H           1     -33.834  -5.733  -9.371  0.00  0.00     0.101 HD
ENDBRANCH  22  23
ENDBRANCH  21  22
BRANCH  21  25
HETATM   25  N           1     -33.514  -4.100 -13.844  0.00  0.00    -0.066 N 
HETATM   26  H           1     -33.980  -4.765 -14.503  0.00  0.00     0.275 HD
HETATM   27  H           1     -32.503  -4.350 -13.756  0.00  0.00     0.275 HD
HETATM   28  H           1     -33.601  -3.126 -14.212  0.00  0.00     0.275 HD
ENDBRANCH  21  25
ENDBRANCH  19  21
ENDBRANCH   1  17
TORSDOF 10
ENDMDL
MODEL 4
REMARK VINA RESULT:      -6.3     12.366     14.746
REMARK  10 active torsions:
REMARK  status: ('A' for Active; 'I' for Inactive)
REMARK    1  A    between atoms: S_5  and  C_6 
REMARK    2  A    between atoms: C_6  and  C_28 
REMARK    3  A    between atoms: C_7  and  C_8 
REMARK    4  A    between atoms: C_7  and  C_19 
REMARK    5  A    between atoms: C_7  and  N_15 
REMARK    6  A    between atoms: C_8  and  C_9 
REMARK    7  A    between atoms: C_9  and  C_10 
REMARK    8  A    between atoms: C_10  and  N_11 
REMARK       I    between atoms: N_11  and  C_13 
REMARK       I    between atoms: N_12  and  C_13 
REMARK       I    between atoms: C_14  and  N_15 
REMARK    9  A    between atoms: C_14  and  C_28 
REMARK   10  A    between atoms: N_21  and  C_28 
ROOT
HETATM    1  C           1     -36.363  -0.935 -11.118  0.00  0.00     0.185 C 
ENDROOT
BRANCH   1   2
HETATM    2  C           1     -35.259  -1.800 -10.524  0.00  0.00     0.038 C 
BRANCH   2   3
HETATM    3  C           1     -34.166  -2.016 -11.562  0.00  0.00     0.023 C 
BRANCH   3   4
HETATM    4  C           1     -33.267  -3.163 -11.122  0.00  0.00     0.138 C 
BRANCH   4   5
HETATM    5  N           1     -34.084  -4.218 -10.505  0.00  0.00    -0.227 N 
HETATM    6  C           1     -33.868  -5.432 -10.788  0.00  0.00     0.665 C 
HETATM    7  N           1     -32.948  -5.739 -11.602  0.00  0.00    -0.235 N 
HETATM    8  N           1     -34.590  -6.365 -10.242  0.00  0.00    -0.235 N 
HETATM    9  H           1     -32.364  -4.986 -12.043  0.00  0.00     0.174 HD
HETATM   10  H           1     -32.769  -6.747 -11.837  0.00  0.00     0.174 HD
HETATM   11  H           1     -35.350  -6.113  -9.570  0.00  0.00     0.174 HD
HETATM   12  H           1     -34.412  -7.368 -10.476  0.00  0.00     0.174 HD
HETATM   13  H           1     -34.847  -3.964  -9.830  0.00  0.00     0.177 HD
ENDBRANCH   4   5
ENDBRANCH   3   4
ENDBRANCH   2   3
ENDBRANCH   1   2
BRANCH   1  14
HETATM   14  C           1     -36.859   0.035 -10.075  0.00  0.00     0.196 C 
HETATM   15  O           1     -36.291   0.104  -8.964  0.00  0.00    -0.646 OA
HETATM   16  O           1     -37.839   0.771 -10.322  0.00  0.00    -0.646 OA
ENDBRANCH   1  14
BRANCH   1  17
HETATM   17  N           1     -35.840  -0.199 -12.252  0.00  0.00    -0.345 N 
HETATM   18  H           1     -34.957   0.291 -12.176  0.00  0.00     0.163 HD
HETATM   19  C           1     -36.542  -0.164 -13.428  0.00  0.00     0.249 C 
HETATM   20  O           1     -37.596  -0.747 -13.520  0.00  0.00    -0.271 OA
BRANCH  19  21
HETATM   21  C           1     -35.999   0.603 -14.609  0.00  0.00     0.283 C 
BRANCH  21  22
HETATM   22  C           1     -36.624   0.071 -15.892  0.00  0.00     0.113 C 
BRANCH  22  23
HETATM   23  S           1     -35.588  -1.258 -16.565  0.00  0.00    -0.180 SA
HETATM   24  H           1     -36.501  -2.235 -16.423  0.00  0.00     0.101 HD
ENDBRANCH  22  23
ENDBRANCH  21  22
BRANCH  21  25
HETATM   25  N           1     -34.509   0.433 -14.672  0.00  0.00    -0.066 N 
HETATM   26  H           1     -34.069   0.923 -13.860  0.00  0.00     0.275 HD
HETATM   27  H           1     -34.149   0.844 -15.562  0.00  0.00     0.275 HD
HETATM   28  H           1     -34.273  -0.584 -14.636  0.00  0.00     0.275 HD
ENDBRANCH  21  25
ENDBRANCH  19  21
ENDBRANCH   1  17
TORSDOF 10
ENDMDL
MODEL 5
REMARK VINA RESULT:      -6.2      1.526      2.074
REMARK  10 active torsions:
REMARK  status: ('A' for Active; 'I' for Inactive)
REMARK    1  A    between atoms: S_5  and  C_6 
REMARK    2  A    between atoms: C_6  and  C_28 
REMARK    3  A    between atoms: C_7  and  C_8 
REMARK    4  A    between atoms: C_7  and  C_19 
REMARK    5  A    between atoms: C_7  and  N_15 
REMARK    6  A    between atoms: C_8  and  C_9 
REMARK    7  A    between atoms: C_9  and  C_10 
REMARK    8  A    between atoms: C_10  and  N_11 
REMARK       I    between atoms: N_11  and  C_13 
REMARK       I    between atoms: N_12  and  C_13 
REMARK       I    between atoms: C_14  and  N_15 
REMARK    9  A    between atoms: C_14  and  C_28 
REMARK   10  A    between atoms: N_21  and  C_28 
ROOT
HETATM    1  C           1     -22.622  -4.034  -9.108  0.00  0.00     0.185 C 
ENDROOT
BRANCH   1   2
HETATM    2  C           1     -21.790  -4.609 -10.247  0.00  0.00     0.038 C 
BRANCH   2   3
HETATM    3  C           1     -20.843  -3.539 -10.775  0.00  0.00     0.023 C 
BRANCH   3   4
HETATM    4  C           1     -21.598  -2.615 -11.721  0.00  0.00     0.138 C 
BRANCH   4   5
HETATM    5  N           1     -22.118  -3.393 -12.855  0.00  0.00    -0.227 N 
HETATM    6  C           1     -23.303  -3.208 -13.259  0.00  0.00     0.665 C 
HETATM    7  N           1     -24.042  -2.353 -12.686  0.00  0.00    -0.235 N 
HETATM    8  N           1     -23.763  -3.896 -14.262  0.00  0.00    -0.235 N 
HETATM    9  H           1     -23.670  -1.798 -11.876  0.00  0.00     0.174 HD
HETATM   10  H           1     -25.025  -2.200 -13.021  0.00  0.00     0.174 HD
HETATM   11  H           1     -23.154  -4.602 -14.735  0.00  0.00     0.174 HD
HETATM   12  H           1     -24.742  -3.744 -14.596  0.00  0.00     0.174 HD
HETATM   13  H           1     -21.506  -4.102 -13.330  0.00  0.00     0.177 HD
ENDBRANCH   4   5
ENDBRANCH   3   4
ENDBRANCH   2   3
ENDBRANCH   1   2
BRANCH   1  14
HETATM   14  C           1     -24.060  -3.908  -9.549  0.00  0.00     0.196 C 
HETATM   15  O           1     -24.679  -4.914  -9.956  0.00  0.00    -0.646 OA
HETATM   16  O           1     -24.632  -2.798  -9.505  0.00  0.00    -0.646 OA
ENDBRANCH   1  14
BRANCH   1  17
HETATM   17  N           1     -22.544  -4.916  -7.961  0.00  0.00    -0.345 N 
HETATM   18  H           1     -23.111  -5.755  -7.927  0.00  0.00     0.163 HD
HETATM   19  C           1     -21.705  -4.615  -6.921  0.00  0.00     0.249 C 
HETATM   20  O           1     -21.030  -3.614  -6.961  0.00  0.00    -0.271 OA
BRANCH  19  21
HETATM   21  C           1     -21.624  -5.533  -5.726  0.00  0.00     0.283 C 
BRANCH  21  22
HETATM   22  C           1     -20.804  -6.765  -6.087  0.00  0.00     0.113 C 
BRANCH  22  23
HETATM   23  S           1     -20.445  -7.715  -4.582  0.00  0.00    -0.180 SA
HETATM   24  H           1     -19.581  -8.570  -5.158  0.00  0.00     0.101 HD
ENDBRANCH  22  23
ENDBRANCH  21  22
BRANCH  21  25
HETATM   25  N           1     -23.007  -5.953  -5.325  0.00  0.00    -0.066 N 
HETATM   26  H           1     -23.679  -5.180  -5.531  0.00  0.00     0.275 HD
HETATM   27  H           1     -23.024  -6.165  -4.301  0.00  0.00     0.275 HD
HETATM   28  H           1     -23.282  -6.806  -5.861  0.00  0.00     0.275 HD
ENDBRANCH  21  25
ENDBRANCH  19  21
ENDBRANCH   1  17
TORSDOF 10
ENDMDL
MODEL 6
REMARK VINA RESULT:      -5.9      2.373      3.369
REMARK  10 active torsions:
REMARK  status: ('A' for Active; 'I' for Inactive)
REMARK    1  A    between atoms: S_5  and  C_6 
REMARK    2  A    between atoms: C_6  and  C_28 
REMARK    3  A    between atoms: C_7  and  C_8 
REMARK    4  A    between atoms: C_7  and  C_19 
REMARK    5  A    between atoms: C_7  and  N_15 
REMARK    6  A    between atoms: C_8  and  C_9 
REMARK    7  A    between atoms: C_9  and  C_10 
REMARK    8  A    between atoms: C_10  and  N_11 
REMARK       I    between atoms: N_11  and  C_13 
REMARK       I    between atoms: N_12  and  C_13 
REMARK       I    between atoms: C_14  and  N_15 
REMARK    9  A    between atoms: C_14  and  C_28 
REMARK   10  A    between atoms: N_21  and  C_28 
ROOT
HETATM    1  C           1     -21.544  -4.822  -8.206  0.00  0.00     0.185 C 
ENDROOT
BRANCH   1   2
HETATM    2  C           1     -22.534  -3.711  -8.529  0.00  0.00     0.038 C 
BRANCH   2   3
HETATM    3  C           1     -23.784  -4.309  -9.158  0.00  0.00     0.023 C 
BRANCH   3   4
HETATM    4  C           1     -23.500  -4.669 -10.610  0.00  0.00     0.138 C 
BRANCH   4   5
HETATM    5  N           1     -23.893  -3.549 -11.479  0.00  0.00    -0.227 N 
HETATM    6  C           1     -23.095  -3.125 -12.364  0.00  0.00     0.665 C 
HETATM    7  N           1     -21.957  -3.665 -12.503  0.00  0.00    -0.235 N 
HETATM    8  N           1     -23.442  -2.135 -13.132  0.00  0.00    -0.235 N 
HETATM    9  H           1     -21.677  -4.464 -11.883  0.00  0.00     0.174 HD
HETATM   10  H           1     -21.295  -3.313 -13.237  0.00  0.00     0.174 HD
HETATM   11  H           1     -24.380  -1.689 -13.018  0.00  0.00     0.174 HD
HETATM   12  H           1     -22.783  -1.784 -13.864  0.00  0.00     0.174 HD
HETATM   13  H           1     -24.835  -3.102 -11.364  0.00  0.00     0.177 HD
ENDBRANCH   4   5
ENDBRANCH   3   4
ENDBRANCH   2   3
ENDBRANCH   1   2
BRANCH   1  14
HETATM   14  C           1     -20.207  -4.504  -8.828  0.00  0.00     0.196 C 
HETATM   15  O           1     -20.039  -4.650 -10.058  0.00  0.00    -0.646 OA
HETATM   16  O           1     -19.268  -4.091  -8.114  0.00  0.00    -0.646 OA
ENDBRANCH   1  14
BRANCH   1  17
HETATM   17  N           1     -21.394  -4.932  -6.768  0.00  0.00    -0.345 N 
HETATM   18  H           1     -21.431  -4.101  -6.190  0.00  0.00     0.163 HD
HETATM   19  C           1     -21.200  -6.158  -6.191  0.00  0.00     0.249 C 
HETATM   20  O           1     -21.154  -7.149  -6.881  0.00  0.00    -0.271 OA
BRANCH  19  21
HETATM   21  C           1     -21.043  -6.272  -4.695  0.00  0.00     0.283 C 
BRANCH  21  22
HETATM   22  C           1     -20.454  -7.633  -4.347  0.00  0.00     0.113 C 
BRANCH  22  23
HETATM   23  S           1     -20.926  -8.083  -2.653  0.00  0.00    -0.180 SA
HETATM   24  H           1     -21.717  -9.115  -2.997  0.00  0.00     0.101 HD
ENDBRANCH  22  23
ENDBRANCH  21  22
BRANCH  21  25
HETATM   25  N           1     -22.385  -6.127  -4.040  0.00  0.00    -0.066 N 
HETATM   26  H           1     -23.129  -6.099  -4.774  0.00  0.00     0.275 HD
HETATM   27  H           1     -22.409  -5.241  -3.487  0.00  0.00     0.275 HD
HETATM   28  H           1     -22.552  -6.939  -3.405  0.00  0.00     0.275 HD
ENDBRANCH  21  25
ENDBRANCH  19  21
ENDBRANCH   1  17
TORSDOF 10
ENDMDL
MODEL 7
REMARK VINA RESULT:      -5.8      3.772      7.965
REMARK  10 active torsions:
REMARK  status: ('A' for Active; 'I' for Inactive)
REMARK    1  A    between atoms: S_5  and  C_6 
REMARK    2  A    between atoms: C_6  and  C_28 
REMARK    3  A    between atoms: C_7  and  C_8 
REMARK    4  A    between atoms: C_7  and  C_19 
REMARK    5  A    between atoms: C_7  and  N_15 
REMARK    6  A    between atoms: C_8  and  C_9 
REMARK    7  A    between atoms: C_9  and  C_10 
REMARK    8  A    between atoms: C_10  and  N_11 
REMARK       I    between atoms: N_11  and  C_13 
REMARK       I    between atoms: N_12  and  C_13 
REMARK       I    between atoms: C_14  and  N_15 
REMARK    9  A    between atoms: C_14  and  C_28 
REMARK   10  A    between atoms: N_21  and  C_28 
ROOT
HETATM    1  C           1     -21.123  -4.373  -7.471  0.00  0.00     0.185 C 
ENDROOT
BRANCH   1   2
HETATM    2  C           1     -21.085  -5.070  -6.117  0.00  0.00     0.038 C 
BRANCH   2   3
HETATM    3  C           1     -21.036  -6.578  -6.323  0.00  0.00     0.023 C 
BRANCH   3   4
HETATM    4  C           1     -21.741  -7.271  -5.165  0.00  0.00     0.138 C 
BRANCH   4   5
HETATM    5  N           1     -22.067  -6.283  -4.127  0.00  0.00    -0.227 N 
HETATM    6  C           1     -21.941  -6.584  -2.904  0.00  0.00     0.665 C 
HETATM    7  N           1     -21.533  -7.737  -2.575  0.00  0.00    -0.235 N 
HETATM    8  N           1     -22.229  -5.710  -1.986  0.00  0.00    -0.235 N 
HETATM    9  H           1     -21.300  -8.443  -3.316  0.00  0.00     0.174 HD
HETATM   10  H           1     -21.428  -7.987  -1.561  0.00  0.00     0.174 HD
HETATM   11  H           1     -22.566  -4.759  -2.257  0.00  0.00     0.174 HD
HETATM   12  H           1     -22.124  -5.959  -0.976  0.00  0.00     0.174 HD
HETATM   13  H           1     -22.405  -5.327  -4.399  0.00  0.00     0.177 HD
ENDBRANCH   4   5
ENDBRANCH   3   4
ENDBRANCH   2   3
ENDBRANCH   1   2
BRANCH   1  14
HETATM   14  C           1     -19.798  -4.553  -8.168  0.00  0.00     0.196 C 
HETATM   15  O           1     -18.733  -4.324  -7.556  0.00  0.00    -0.646 OA
HETATM   16  O           1     -19.765  -4.934  -9.358  0.00  0.00    -0.646 OA
ENDBRANCH   1  14
BRANCH   1  17
HETATM   17  N           1     -22.178  -4.949  -8.281  0.00  0.00    -0.345 N 
HETATM   18  H           1     -22.340  -5.948  -8.266  0.00  0.00     0.163 HD
HETATM   19  C           1     -22.955  -4.142  -9.069  0.00  0.00     0.249 C 
HETATM   20  O           1     -22.761  -2.950  -9.088  0.00  0.00    -0.271 OA
BRANCH  19  21
HETATM   21  C           1     -24.053  -4.742  -9.913  0.00  0.00     0.283 C 
BRANCH  21  22
HETATM   22  C           1     -23.621  -4.759 -11.373  0.00  0.00     0.113 C 
BRANCH  22  23
HETATM   23  S           1     -24.238  -3.269 -12.205  0.00  0.00    -0.180 SA
HETATM   24  H           1     -25.208  -3.888 -12.902  0.00  0.00     0.101 HD
ENDBRANCH  22  23
ENDBRANCH  21  22
BRANCH  21  25
HETATM   25  N           1     -25.299  -3.918  -9.770  0.00  0.00    -0.066 N 
HETATM   26  H           1     -25.230  -3.330  -8.909  0.00  0.00     0.275 HD
HETATM   27  H           1     -26.128  -4.550  -9.695  0.00  0.00     0.275 HD
HETATM   28  H           1     -25.406  -3.301 -10.606  0.00  0.00     0.275 HD
ENDBRANCH  21  25
ENDBRANCH  19  21
ENDBRANCH   1  17
TORSDOF 10
ENDMDL
MODEL 8
REMARK VINA RESULT:      -5.7      4.359      6.153
REMARK  10 active torsions:
REMARK  status: ('A' for Active; 'I' for Inactive)
REMARK    1  A    between atoms: S_5  and  C_6 
REMARK    2  A    between atoms: C_6  and  C_28 
REMARK    3  A    between atoms: C_7  and  C_8 
REMARK    4  A    between atoms: C_7  and  C_19 
REMARK    5  A    between atoms: C_7  and  N_15 
REMARK    6  A    between atoms: C_8  and  C_9 
REMARK    7  A    between atoms: C_9  and  C_10 
REMARK    8  A    between atoms: C_10  and  N_11 
REMARK       I    between atoms: N_11  and  C_13 
REMARK       I    between atoms: N_12  and  C_13 
REMARK       I    between atoms: C_14  and  N_15 
REMARK    9  A    between atoms: C_14  and  C_28 
REMARK   10  A    between atoms: N_21  and  C_28 
ROOT
HETATM    1  C           1     -20.566  -6.834  -5.365  0.00  0.00     0.185 C 
ENDROOT
BRANCH   1   2
HETATM    2  C           1     -20.313  -6.136  -6.695  0.00  0.00     0.038 C 
BRANCH   2   3
HETATM    3  C           1     -19.967  -4.674  -6.446  0.00  0.00     0.023 C 
BRANCH   3   4
HETATM    4  C           1     -20.548  -3.817  -7.562  0.00  0.00     0.138 C 
BRANCH   4   5
HETATM    5  N           1     -22.008  -3.739  -7.410  0.00  0.00    -0.227 N 
HETATM    6  C           1     -22.764  -4.068  -8.371  0.00  0.00     0.665 C 
HETATM    7  N           1     -22.261  -4.465  -9.464  0.00  0.00    -0.235 N 
HETATM    8  N           1     -24.055  -3.998  -8.237  0.00  0.00    -0.235 N 
HETATM    9  H           1     -21.219  -4.521  -9.572  0.00  0.00     0.174 HD
HETATM   10  H           1     -22.888  -4.738 -10.261  0.00  0.00     0.174 HD
HETATM   11  H           1     -24.470  -3.670  -7.335  0.00  0.00     0.174 HD
HETATM   12  H           1     -24.679  -4.270  -9.030  0.00  0.00     0.174 HD
HETATM   13  H           1     -22.425  -3.409  -6.505  0.00  0.00     0.177 HD
ENDBRANCH   4   5
ENDBRANCH   3   4
ENDBRANCH   2   3
ENDBRANCH   1   2
BRANCH   1  14
HETATM   14  C           1     -21.778  -6.229  -4.701  0.00  0.00     0.196 C 
HETATM   15  O           1     -22.807  -5.995  -5.371  0.00  0.00    -0.646 OA
HETATM   16  O           1     -21.753  -5.961  -3.481  0.00  0.00    -0.646 OA
ENDBRANCH   1  14
BRANCH   1  17
HETATM   17  N           1     -20.797  -8.246  -5.598  0.00  0.00    -0.345 N 
HETATM   18  H           1     -21.352  -8.545  -6.390  0.00  0.00     0.163 HD
HETATM   19  C           1     -20.266  -9.176  -4.745  0.00  0.00     0.249 C 
HETATM   20  O           1     -19.603  -8.819  -3.799  0.00  0.00    -0.271 OA
BRANCH  19  21
HETATM   21  C           1     -20.506 -10.646  -4.986  0.00  0.00     0.283 C 
BRANCH  21  22
HETATM   22  C           1     -19.197 -11.408  -4.829  0.00  0.00     0.113 C 
BRANCH  22  23
HETATM   23  S           1     -18.137 -11.096  -6.269  0.00  0.00    -0.180 SA
HETATM   24  H           1     -18.910 -10.136  -6.807  0.00  0.00     0.101 HD
ENDBRANCH  22  23
ENDBRANCH  21  22
BRANCH  21  25
HETATM   25  N           1     -21.035 -10.844  -6.376  0.00  0.00    -0.066 N 
HETATM   26  H           1     -20.439 -10.315  -7.053  0.00  0.00     0.275 HD
HETATM   27  H           1     -22.017 -10.491  -6.429  0.00  0.00     0.275 HD
HETATM   28  H           1     -21.016 -11.860  -6.614  0.00  0.00     0.275 HD
ENDBRANCH  21  25
ENDBRANCH  19  21
ENDBRANCH   1  17
TORSDOF 10
ENDMDL
MODEL 9
REMARK VINA RESULT:      -5.6      3.432      4.995
REMARK  10 active torsions:
REMARK  status: ('A' for Active; 'I' for Inactive)
REMARK    1  A    between atoms: S_5  and  C_6 
REMARK    2  A    between atoms: C_6  and  C_28 
REMARK    3  A    between atoms: C_7  and  C_8 
REMARK    4  A    between atoms: C_7  and  C_19 
REMARK    5  A    between atoms: C_7  and  N_15 
REMARK    6  A    between atoms: C_8  and  C_9 
REMARK    7  A    between atoms: C_9  and  C_10 
REMARK    8  A    between atoms: C_10  and  N_11 
REMARK       I    between atoms: N_11  and  C_13 
REMARK       I    between atoms: N_12  and  C_13 
REMARK       I    between atoms: C_14  and  N_15 
REMARK    9  A    between atoms: C_14  and  C_28 
REMARK   10  A    between atoms: N_21  and  C_28 
ROOT
HETATM    1  C           1     -21.313  -5.891  -6.144  0.00  0.00     0.185 C 
ENDROOT
BRANCH   1   2
HETATM    2  C           1     -22.234  -4.789  -6.650  0.00  0.00     0.038 C 
BRANCH   2   3
HETATM    3  C           1     -22.192  -4.749  -8.172  0.00  0.00     0.023 C 
BRANCH   3   4
HETATM    4  C           1     -22.921  -3.507  -8.667  0.00  0.00     0.138 C 
BRANCH   4   5
HETATM    5  N           1     -23.143  -3.615 -10.116  0.00  0.00    -0.227 N 
HETATM    6  C           1     -24.321  -3.592 -10.580  0.00  0.00     0.665 C 
HETATM    7  N           1     -25.308  -3.477  -9.795  0.00  0.00    -0.235 N 
HETATM    8  N           1     -24.517  -3.687 -11.862  0.00  0.00    -0.235 N 
HETATM    9  H           1     -25.150  -3.400  -8.760  0.00  0.00     0.174 HD
HETATM   10  H           1     -26.285  -3.458 -10.180  0.00  0.00     0.174 HD
HETATM   11  H           1     -23.702  -3.782 -12.510  0.00  0.00     0.174 HD
HETATM   12  H           1     -25.489  -3.669 -12.245  0.00  0.00     0.174 HD
HETATM   13  H           1     -22.325  -3.710 -10.767  0.00  0.00     0.177 HD
ENDBRANCH   4   5
ENDBRANCH   3   4
ENDBRANCH   2   3
ENDBRANCH   1   2
BRANCH   1  14
HETATM   14  C           1     -19.946  -5.728  -6.759  0.00  0.00     0.196 C 
HETATM   15  O           1     -19.340  -4.639  -6.656  0.00  0.00    -0.646 OA
HETATM   16  O           1     -19.418  -6.681  -7.371  0.00  0.00    -0.646 OA
ENDBRANCH   1  14
BRANCH   1  17
HETATM   17  N           1     -21.207  -5.806  -4.700  0.00  0.00    -0.345 N 
HETATM   18  H           1     -20.955  -4.929  -4.262  0.00  0.00     0.163 HD
HETATM   19  C           1     -21.447  -6.912  -3.930  0.00  0.00     0.249 C 
HETATM   20  O           1     -21.748  -7.959  -4.453  0.00  0.00    -0.271 OA
BRANCH  19  21
HETATM   21  C           1     -21.336  -6.824  -2.427  0.00  0.00     0.283 C 
BRANCH  21  22
HETATM   22  C           1     -21.640  -8.185  -1.814  0.00  0.00     0.113 C 
BRANCH  22  23
HETATM   23  S           1     -22.416  -7.957  -0.189  0.00  0.00    -0.180 SA
HETATM   24  H           1     -21.591  -6.979   0.225  0.00  0.00     0.101 HD
ENDBRANCH  22  23
ENDBRANCH  21  22
BRANCH  21  25
HETATM   25  N           1     -22.319  -5.814  -1.913  0.00  0.00    -0.066 N 
HETATM   26  H           1     -22.635  -5.204  -2.701  0.00  0.00     0.275 HD
HETATM   27  H           1     -21.862  -5.224  -1.180  0.00  0.00     0.275 HD
HETATM   28  H           1     -23.141  -6.307  -1.500  0.00  0.00     0.275 HD
ENDBRANCH  21  25
ENDBRANCH  19  21
ENDBRANCH   1  17
TORSDOF 10
ENDMDL
