MODEL 1
REMARK VINA RESULT:      -5.5      0.000      0.000
REMARK  7 active torsions:
REMARK  status: ('A' for Active; 'I' for Inactive)
REMARK    1  A    between atoms: Se_2  and  C_3 
REMARK    2  A    between atoms: C_3  and  C_17 
REMARK    3  A    between atoms: C_4  and  C_18 
REMARK    4  A    between atoms: N_7  and  C_18 
REMARK       I    between atoms: N_7  and  C_8 
REMARK    5  A    between atoms: C_8  and  C_9 
REMARK    6  A    between atoms: C_9  and  N_11 
REMARK    7  A    between atoms: C_17  and  C_18 
ROOT
HETATM    1  N           1     -34.830  -1.496 -13.333  0.00  0.00    -0.345 N 
HETATM    2  C           1     -35.936  -0.783 -13.707  0.00  0.00     0.248 C 
HETATM    3  O           1     -36.989  -0.962 -13.142  0.00  0.00    -0.271 OA
HETATM    4  H           1     -33.947  -1.346 -13.807  0.00  0.00     0.163 HD
ENDROOT
BRANCH   1   5
HETATM    5  C           1     -34.920  -2.465 -12.258  0.00  0.00     0.185 C 
BRANCH   5   6
HETATM    6  C           1     -34.467  -1.827 -10.968  0.00  0.00     0.196 C 
HETATM    7  O           1     -35.301  -1.281 -10.214  0.00  0.00    -0.646 OA
HETATM    8  O           1     -33.257  -1.846 -10.652  0.00  0.00    -0.646 OA
ENDBRANCH   5   6
BRANCH   5   9
HETATM    9  C           1     -34.029  -3.659 -12.576  0.00  0.00     0.036 C 
BRANCH   9  10
HETATM   10  C           1     -34.746  -4.945 -12.184  0.00  0.00     0.003 C 
BRANCH  10  11
HETATM   11 Se           1     -34.219  -5.459 -10.380  0.00  0.00     0.000 Se
HETATM   12  C           1     -34.724  -7.330 -10.589  0.00  0.00     0.000 C 
ENDBRANCH  10  11
ENDBRANCH   9  10
ENDBRANCH   5   9
ENDBRANCH   1   5
BRANCH   2  13
HETATM   13  C           1     -35.842   0.225 -14.826  0.00  0.00     0.270 C 
HETATM   14  C           1     -34.921   1.364 -14.407  0.00  0.00     0.050 C 
BRANCH  13  15
HETATM   15  N           1     -37.207   0.770 -15.124  0.00  0.00    -0.067 N 
HETATM   16  H           1     -37.374   1.627 -14.548  0.00  0.00     0.275 HD
HETATM   17  H           1     -37.270   1.015 -16.139  0.00  0.00     0.275 HD
HETATM   18  H           1     -37.928   0.050 -14.893  0.00  0.00     0.275 HD
ENDBRANCH  13  15
ENDBRANCH   2  13
TORSDOF 7
ENDMDL
MODEL 2
REMARK VINA RESULT:      -5.4      1.893      2.443
REMARK  7 active torsions:
REMARK  status: ('A' for Active; 'I' for Inactive)
REMARK    1  A    between atoms: Se_2  and  C_3 
REMARK    2  A    between atoms: C_3  and  C_17 
REMARK    3  A    between atoms: C_4  and  C_18 
REMARK    4  A    between atoms: N_7  and  C_18 
REMARK       I    between atoms: N_7  and  C_8 
REMARK    5  A    between atoms: C_8  and  C_9 
REMARK    6  A    between atoms: C_9  and  N_11 
REMARK    7  A    between atoms: C_17  and  C_18 
ROOT
HETATM    1  N           1     -36.131  -0.405 -12.539  0.00  0.00    -0.345 N 
HETATM    2  C           1     -36.845  -0.287 -13.700  0.00  0.00     0.248 C 
HETATM    3  O           1     -37.991  -0.669 -13.746  0.00  0.00    -0.271 OA
HETATM    4  H           1     -35.171  -0.086 -12.500  0.00  0.00     0.163 HD
ENDROOT
BRANCH   1   5
HETATM    5  C           1     -36.750  -0.986 -11.363  0.00  0.00     0.185 C 
BRANCH   5   6
HETATM    6  C           1     -37.031   0.101 -10.354  0.00  0.00     0.196 C 
HETATM    7  O           1     -36.222   0.315  -9.426  0.00  0.00    -0.646 OA
HETATM    8  O           1     -38.072   0.787 -10.449  0.00  0.00    -0.646 OA
ENDBRANCH   5   6
BRANCH   5   9
HETATM    9  C           1     -35.808  -2.016 -10.752  0.00  0.00     0.036 C 
BRANCH   9  10
HETATM   10  C           1     -35.074  -2.756 -11.863  0.00  0.00     0.003 C 
BRANCH  10  11
HETATM   11 Se           1     -33.338  -3.354 -11.208  0.00  0.00     0.000 Se
HETATM   12  C           1     -33.991  -5.075 -10.568  0.00  0.00     0.000 C 
ENDBRANCH  10  11
ENDBRANCH   9  10
ENDBRANCH   5   9
ENDBRANCH   1   5
BRANCH   2  13
HETATM   13  C           1     -36.202   0.317 -14.924  0.00  0.00     0.270 C 
HETATM   14  C           1     -35.031   1.195 -14.501  0.00  0.00     0.050 C 
BRANCH  13  15
HETATM   15  N           1     -37.210   1.150 -15.659  0.00  0.00    -0.067 N 
HETATM   16  H           1     -37.994   0.541 -15.986  0.00  0.00     0.275 HD
HETATM   17  H           1     -37.585   1.887 -15.019  0.00  0.00     0.275 HD
HETATM   18  H           1     -36.753   1.602 -16.483  0.00  0.00     0.275 HD
ENDBRANCH  13  15
ENDBRANCH   2  13
TORSDOF 7
ENDMDL
MODEL 3
REMARK VINA RESULT:      -5.3      3.128      5.141
REMARK  7 active torsions:
REMARK  status: ('A' for Active; 'I' for Inactive)
REMARK    1  A    between atoms: Se_2  and  C_3 
REMARK    2  A    between atoms: C_3  and  C_17 
REMARK    3  A    between atoms: C_4  and  C_18 
REMARK    4  A    between atoms: N_7  and  C_18 
REMARK       I    between atoms: N_7  and  C_8 
REMARK    5  A    between atoms: C_8  and  C_9 
REMARK    6  A    between atoms: C_9  and  N_11 
REMARK    7  A    between atoms: C_17  and  C_18 
ROOT
HETATM    1  N           1     -34.848  -1.511 -12.078  0.00  0.00    -0.345 N 
HETATM    2  C           1     -34.237  -2.691 -12.407  0.00  0.00     0.248 C 
HETATM    3  O           1     -34.482  -3.223 -13.464  0.00  0.00    -0.271 OA
HETATM    4  H           1     -34.642  -1.064 -11.192  0.00  0.00     0.163 HD
ENDROOT
BRANCH   1   5
HETATM    5  C           1     -35.785  -0.898 -12.999  0.00  0.00     0.185 C 
BRANCH   5   6
HETATM    6  C           1     -35.059   0.101 -13.866  0.00  0.00     0.196 C 
HETATM    7  O           1     -34.671   1.184 -13.378  0.00  0.00    -0.646 OA
HETATM    8  O           1     -34.844  -0.156 -15.070  0.00  0.00    -0.646 OA
ENDBRANCH   5   6
BRANCH   5   9
HETATM    9  C           1     -36.879  -0.188 -12.210  0.00  0.00     0.036 C 
BRANCH   9  10
HETATM   10  C           1     -36.830  -0.638 -10.756  0.00  0.00     0.003 C 
BRANCH  10  11
HETATM   11 Se           1     -37.211   0.879  -9.593  0.00  0.00     0.000 Se
HETATM   12  C           1     -37.618  -0.212  -8.030  0.00  0.00     0.000 C 
ENDBRANCH  10  11
ENDBRANCH   9  10
ENDBRANCH   5   9
ENDBRANCH   1   5
BRANCH   2  13
HETATM   13  C           1     -33.261  -3.328 -11.449  0.00  0.00     0.270 C 
HETATM   14  C           1     -32.434  -4.373 -12.187  0.00  0.00     0.050 C 
BRANCH  13  15
HETATM   15  N           1     -34.015  -3.986 -10.331  0.00  0.00    -0.067 N 
HETATM   16  H           1     -33.665  -4.963 -10.201  0.00  0.00     0.275 HD
HETATM   17  H           1     -33.871  -3.444  -9.448  0.00  0.00     0.275 HD
HETATM   18  H           1     -35.033  -4.009 -10.564  0.00  0.00     0.275 HD
ENDBRANCH  13  15
ENDBRANCH   2  13
TORSDOF 7
ENDMDL
MODEL 4
REMARK VINA RESULT:      -5.0      2.966      3.876
REMARK  7 active torsions:
REMARK  status: ('A' for Active; 'I' for Inactive)
REMARK    1  A    between atoms: Se_2  and  C_3 
REMARK    2  A    between atoms: C_3  and  C_17 
REMARK    3  A    between atoms: C_4  and  C_18 
REMARK    4  A    between atoms: N_7  and  C_18 
REMARK       I    between atoms: N_7  and  C_8 
REMARK    5  A    between atoms: C_8  and  C_9 
REMARK    6  A    between atoms: C_9  and  N_11 
REMARK    7  A    between atoms: C_17  and  C_18 
ROOT
HETATM    1  N           1     -36.021  -0.705 -13.677  0.00  0.00    -0.345 N 
HETATM    2  C           1     -35.549   0.068 -14.703  0.00  0.00     0.248 C 
HETATM    3  O           1     -34.434   0.532 -14.646  0.00  0.00    -0.271 OA
HETATM    4  H           1     -36.955  -1.093 -13.725  0.00  0.00     0.163 HD
ENDROOT
BRANCH   1   5
HETATM    5  C           1     -35.184  -0.969 -12.523  0.00  0.00     0.185 C 
BRANCH   5   6
HETATM    6  C           1     -34.563  -2.338 -12.656  0.00  0.00     0.196 C 
HETATM    7  O           1     -33.916  -2.825 -11.704  0.00  0.00    -0.646 OA
HETATM    8  O           1     -34.697  -2.985 -13.717  0.00  0.00    -0.646 OA
ENDBRANCH   5   6
BRANCH   5   9
HETATM    9  C           1     -36.033  -0.916 -11.259  0.00  0.00     0.036 C 
BRANCH   9  10
HETATM   10  C           1     -37.326  -0.164 -11.547  0.00  0.00     0.003 C 
BRANCH  10  11
HETATM   11 Se           1     -38.074   0.506  -9.876  0.00  0.00     0.000 Se
HETATM   12  C           1     -36.664  -0.241  -8.756  0.00  0.00     0.000 C 
ENDBRANCH  10  11
ENDBRANCH   9  10
ENDBRANCH   5   9
ENDBRANCH   1   5
BRANCH   2  13
HETATM   13  C           1     -36.420   0.343 -15.904  0.00  0.00     0.270 C 
HETATM   14  C           1     -37.885   0.303 -15.489  0.00  0.00     0.050 C 
BRANCH  13  15
HETATM   15  N           1     -36.169  -0.700 -16.953  0.00  0.00    -0.067 N 
HETATM   16  H           1     -36.781  -1.528 -16.774  0.00  0.00     0.275 HD
HETATM   17  H           1     -36.387  -0.303 -17.896  0.00  0.00     0.275 HD
HETATM   18  H           1     -35.167  -0.993 -16.920  0.00  0.00     0.275 HD
ENDBRANCH  13  15
ENDBRANCH   2  13
TORSDOF 7
ENDMDL
MODEL 5
REMARK VINA RESULT:      -4.8     14.433     16.414
REMARK  7 active torsions:
REMARK  status: ('A' for Active; 'I' for Inactive)
REMARK    1  A    between atoms: Se_2  and  C_3 
REMARK    2  A    between atoms: C_3  and  C_17 
REMARK    3  A    between atoms: C_4  and  C_18 
REMARK    4  A    between atoms: N_7  and  C_18 
REMARK       I    between atoms: N_7  and  C_8 
REMARK    5  A    between atoms: C_8  and  C_9 
REMARK    6  A    between atoms: C_9  and  N_11 
REMARK    7  A    between atoms: C_17  and  C_18 
ROOT
HETATM    1  N           1     -21.045  -5.446  -4.999  0.00  0.00    -0.345 N 
HETATM    2  C           1     -21.487  -6.494  -4.237  0.00  0.00     0.248 C 
HETATM    3  O           1     -22.051  -7.425  -4.761  0.00  0.00    -0.271 OA
HETATM    4  H           1     -20.572  -4.666  -4.560  0.00  0.00     0.163 HD
ENDROOT
BRANCH   1   5
HETATM    5  C           1     -21.250  -5.456  -6.434  0.00  0.00     0.185 C 
BRANCH   5   6
HETATM    6  C           1     -19.945  -5.765  -7.126  0.00  0.00     0.196 C 
HETATM    7  O           1     -19.429  -6.897  -7.008  0.00  0.00    -0.646 OA
HETATM    8  O           1     -19.382  -4.890  -7.819  0.00  0.00    -0.646 OA
ENDBRANCH   5   6
BRANCH   5   9
HETATM    9  C           1     -21.752  -4.089  -6.883  0.00  0.00     0.036 C 
BRANCH   9  10
HETATM   10  C           1     -23.046  -4.257  -7.671  0.00  0.00     0.003 C 
BRANCH  10  11
HETATM   11 Se           1     -22.671  -4.099  -9.576  0.00  0.00     0.000 Se
HETATM   12  C           1     -24.470  -3.516 -10.048  0.00  0.00     0.000 C 
ENDBRANCH  10  11
ENDBRANCH   9  10
ENDBRANCH   5   9
ENDBRANCH   1   5
BRANCH   2  13
HETATM   13  C           1     -21.274  -6.484  -2.744  0.00  0.00     0.270 C 
HETATM   14  C           1     -21.126  -7.915  -2.242  0.00  0.00     0.050 C 
BRANCH  13  15
HETATM   15  N           1     -22.451  -5.839  -2.074  0.00  0.00    -0.067 N 
HETATM   16  H           1     -22.390  -4.802  -2.183  0.00  0.00     0.275 HD
HETATM   17  H           1     -23.334  -6.184  -2.516  0.00  0.00     0.275 HD
HETATM   18  H           1     -22.450  -6.084  -1.058  0.00  0.00     0.275 HD
ENDBRANCH  13  15
ENDBRANCH   2  13
TORSDOF 7
ENDMDL
MODEL 6
REMARK VINA RESULT:      -4.7     13.433     15.369
REMARK  7 active torsions:
REMARK  status: ('A' for Active; 'I' for Inactive)
REMARK    1  A    between atoms: Se_2  and  C_3 
REMARK    2  A    between atoms: C_3  and  C_17 
REMARK    3  A    between atoms: C_4  and  C_18 
REMARK    4  A    between atoms: N_7  and  C_18 
REMARK       I    between atoms: N_7  and  C_8 
REMARK    5  A    between atoms: C_8  and  C_9 
REMARK    6  A    between atoms: C_9  and  N_11 
REMARK    7  A    between atoms: C_17  and  C_18 
ROOT
HETATM    1  N           1     -21.800  -4.845  -6.991  0.00  0.00    -0.345 N 
HETATM    2  C           1     -21.325  -5.979  -6.388  0.00  0.00     0.248 C 
HETATM    3  O           1     -20.914  -6.894  -7.062  0.00  0.00    -0.271 OA
HETATM    4  H           1     -22.144  -4.078  -6.427  0.00  0.00     0.163 HD
ENDROOT
BRANCH   1   5
HETATM    5  C           1     -21.807  -4.742  -8.438  0.00  0.00     0.185 C 
BRANCH   5   6
HETATM    6  C           1     -20.429  -4.362  -8.921  0.00  0.00     0.196 C 
HETATM    7  O           1     -20.024  -4.768 -10.032  0.00  0.00    -0.646 OA
HETATM    8  O           1     -19.694  -3.641  -8.213  0.00  0.00    -0.646 OA
ENDBRANCH   5   6
BRANCH   5   9
HETATM    9  C           1     -22.808  -3.676  -8.864  0.00  0.00     0.036 C 
BRANCH   9  10
HETATM   10  C           1     -23.964  -4.333  -9.609  0.00  0.00     0.003 C 
BRANCH  10  11
HETATM   11 Se           1     -23.430  -4.693 -11.448  0.00  0.00     0.000 Se
HETATM   12  C           1     -23.944  -2.936 -12.115  0.00  0.00     0.000 C 
ENDBRANCH  10  11
ENDBRANCH   9  10
ENDBRANCH   5   9
ENDBRANCH   1   5
BRANCH   2  13
HETATM   13  C           1     -21.317  -6.086  -4.883  0.00  0.00     0.270 C 
HETATM   14  C           1     -20.553  -7.337  -4.467  0.00  0.00     0.050 C 
BRANCH  13  15
HETATM   15  N           1     -22.728  -6.173  -4.381  0.00  0.00    -0.067 N 
HETATM   16  H           1     -22.763  -6.798  -3.544  0.00  0.00     0.275 HD
HETATM   17  H           1     -23.062  -5.218  -4.116  0.00  0.00     0.275 HD
HETATM   18  H           1     -23.341  -6.561  -5.132  0.00  0.00     0.275 HD
ENDBRANCH  13  15
ENDBRANCH   2  13
TORSDOF 7
ENDMDL
MODEL 7
REMARK VINA RESULT:      -4.6     15.240     16.573
REMARK  7 active torsions:
REMARK  status: ('A' for Active; 'I' for Inactive)
REMARK    1  A    between atoms: Se_2  and  C_3 
REMARK    2  A    between atoms: C_3  and  C_17 
REMARK    3  A    between atoms: C_4  and  C_18 
REMARK    4  A    between atoms: N_7  and  C_18 
REMARK       I    between atoms: N_7  and  C_8 
REMARK    5  A    between atoms: C_8  and  C_9 
REMARK    6  A    between atoms: C_9  and  N_11 
REMARK    7  A    between atoms: C_17  and  C_18 
ROOT
HETATM    1  N           1     -21.225  -6.420  -6.281  0.00  0.00    -0.345 N 
HETATM    2  C           1     -20.947  -5.142  -6.686  0.00  0.00     0.248 C 
HETATM    3  O           1     -20.318  -4.404  -5.964  0.00  0.00    -0.271 OA
HETATM    4  H           1     -21.752  -7.038  -6.885  0.00  0.00     0.163 HD
ENDROOT
BRANCH   1   5
HETATM    5  C           1     -20.764  -6.887  -4.988  0.00  0.00     0.185 C 
BRANCH   5   6
HETATM    6  C           1     -20.284  -8.313  -5.112  0.00  0.00     0.196 C 
HETATM    7  O           1     -19.212  -8.660  -4.571  0.00  0.00    -0.646 OA
HETATM    8  O           1     -20.959  -9.146  -5.754  0.00  0.00    -0.646 OA
ENDBRANCH   5   6
BRANCH   5   9
HETATM    9  C           1     -21.910  -6.821  -3.987  0.00  0.00     0.036 C 
BRANCH   9  10
HETATM   10  C           1     -21.449  -6.084  -2.736  0.00  0.00     0.003 C 
BRANCH  10  11
HETATM   11 Se           1     -22.247  -6.913  -1.163  0.00  0.00     0.000 Se
HETATM   12  C           1     -21.649  -8.714  -1.607  0.00  0.00     0.000 C 
ENDBRANCH  10  11
ENDBRANCH   9  10
ENDBRANCH   5   9
ENDBRANCH   1   5
BRANCH   2  13
HETATM   13  C           1     -21.427  -4.655  -8.031  0.00  0.00     0.270 C 
HETATM   14  C           1     -20.238  -4.168  -8.848  0.00  0.00     0.050 C 
BRANCH  13  15
HETATM   15  N           1     -22.396  -3.526  -7.837  0.00  0.00    -0.067 N 
HETATM   16  H           1     -23.373  -3.887  -7.922  0.00  0.00     0.275 HD
HETATM   17  H           1     -22.259  -3.110  -6.887  0.00  0.00     0.275 HD
HETATM   18  H           1     -22.230  -2.796  -8.565  0.00  0.00     0.275 HD
ENDBRANCH  13  15
ENDBRANCH   2  13
TORSDOF 7
ENDMDL
MODEL 8
REMARK VINA RESULT:      -4.6     25.303     26.672
REMARK  7 active torsions:
REMARK  status: ('A' for Active; 'I' for Inactive)
REMARK    1  A    between atoms: Se_2  and  C_3 
REMARK    2  A    between atoms: C_3  and  C_17 
REMARK    3  A    between atoms: C_4  and  C_18 
REMARK    4  A    between atoms: N_7  and  C_18 
REMARK       I    between atoms: N_7  and  C_8 
REMARK    5  A    between atoms: C_8  and  C_9 
REMARK    6  A    between atoms: C_9  and  N_11 
REMARK    7  A    between atoms: C_17  and  C_18 
ROOT
HETATM    1  N           1     -11.433   5.469 -21.454  0.00  0.00    -0.345 N 
HETATM    2  C           1     -11.824   4.312 -22.071  0.00  0.00     0.248 C 
HETATM    3  O           1     -11.158   3.310 -21.956  0.00  0.00    -0.271 OA
HETATM    4  H           1     -11.991   6.308 -21.550  0.00  0.00     0.163 HD
ENDROOT
BRANCH   1   5
HETATM    5  C           1     -10.220   5.492 -20.659  0.00  0.00     0.185 C 
BRANCH   5   6
HETATM    6  C           1     -10.580   5.481 -19.193  0.00  0.00     0.196 C 
HETATM    7  O           1      -9.718   5.773 -18.337  0.00  0.00    -0.646 OA
HETATM    8  O           1     -11.740   5.181 -18.836  0.00  0.00    -0.646 OA
ENDBRANCH   5   6
BRANCH   5   9
HETATM    9  C           1      -9.428   6.753 -20.979  0.00  0.00     0.036 C 
BRANCH   9  10
HETATM   10  C           1     -10.384   7.856 -21.417  0.00  0.00     0.003 C 
BRANCH  10  11
HETATM   11 Se           1     -10.476   9.224 -20.032  0.00  0.00     0.000 Se
HETATM   12  C           1     -12.316   8.823 -19.529  0.00  0.00     0.000 C 
ENDBRANCH  10  11
ENDBRANCH   9  10
ENDBRANCH   5   9
ENDBRANCH   1   5
BRANCH   2  13
HETATM   13  C           1     -13.086   4.288 -22.899  0.00  0.00     0.270 C 
HETATM   14  C           1     -13.923   5.522 -22.584  0.00  0.00     0.050 C 
BRANCH  13  15
HETATM   15  N           1     -13.874   3.054 -22.573  0.00  0.00    -0.067 N 
HETATM   16  H           1     -13.722   2.336 -23.318  0.00  0.00     0.275 HD
HETATM   17  H           1     -13.558   2.673 -21.652  0.00  0.00     0.275 HD
HETATM   18  H           1     -14.890   3.293 -22.522  0.00  0.00     0.275 HD
ENDBRANCH  13  15
ENDBRANCH   2  13
TORSDOF 7
ENDMDL
MODEL 9
REMARK VINA RESULT:      -4.3     15.611     17.110
REMARK  7 active torsions:
REMARK  status: ('A' for Active; 'I' for Inactive)
REMARK    1  A    between atoms: Se_2  and  C_3 
REMARK    2  A    between atoms: C_3  and  C_17 
REMARK    3  A    between atoms: C_4  and  C_18 
REMARK    4  A    between atoms: N_7  and  C_18 
REMARK       I    between atoms: N_7  and  C_8 
REMARK    5  A    between atoms: C_8  and  C_9 
REMARK    6  A    between atoms: C_9  and  N_11 
REMARK    7  A    between atoms: C_17  and  C_18 
ROOT
HETATM    1  N           1     -20.820  -6.662  -4.861  0.00  0.00    -0.345 N 
HETATM    2  C           1     -21.409  -5.758  -5.703  0.00  0.00     0.248 C 
HETATM    3  O           1     -22.612  -5.635  -5.710  0.00  0.00    -0.271 OA
HETATM    4  H           1     -19.812  -6.766  -4.856  0.00  0.00     0.163 HD
ENDROOT
BRANCH   1   5
HETATM    5  C           1     -21.637  -7.468  -3.975  0.00  0.00     0.185 C 
BRANCH   5   6
HETATM    6  C           1     -21.621  -6.867  -2.591  0.00  0.00     0.196 C 
HETATM    7  O           1     -22.384  -5.916  -2.314  0.00  0.00    -0.646 OA
HETATM    8  O           1     -20.846  -7.320  -1.722  0.00  0.00    -0.646 OA
ENDBRANCH   5   6
BRANCH   5   9
HETATM    9  C           1     -21.079  -8.885  -3.921  0.00  0.00     0.036 C 
BRANCH   9  10
HETATM   10  C           1     -19.750  -8.936  -4.663  0.00  0.00     0.003 C 
BRANCH  10  11
HETATM   11 Se           1     -18.344  -9.504  -3.438  0.00  0.00     0.000 Se
HETATM   12  C           1     -19.538 -10.520  -2.280  0.00  0.00     0.000 C 
ENDBRANCH  10  11
ENDBRANCH   9  10
ENDBRANCH   5   9
ENDBRANCH   1   5
BRANCH   2  13
HETATM   13  C           1     -20.559  -4.919  -6.625  0.00  0.00     0.270 C 
HETATM   14  C           1     -21.407  -3.803  -7.222  0.00  0.00     0.050 C 
BRANCH  13  15
HETATM   15  N           1     -20.019  -5.780  -7.729  0.00  0.00    -0.067 N 
HETATM   16  H           1     -19.603  -6.648  -7.322  0.00  0.00     0.275 HD
HETATM   17  H           1     -20.796  -6.038  -8.380  0.00  0.00     0.275 HD
HETATM   18  H           1     -19.284  -5.254  -8.252  0.00  0.00     0.275 HD
ENDBRANCH  13  15
ENDBRANCH   2  13
TORSDOF 7
ENDMDL
