MODEL 1
REMARK VINA RESULT:      -5.8      0.000      0.000
REMARK  7 active torsions:
REMARK  status: ('A' for Active; 'I' for Inactive)
REMARK    1  A    between atoms: C_1  and  C_9 
REMARK    2  A    between atoms: C_1  and  S_7 
REMARK    3  A    between atoms: N_3  and  C_10 
REMARK    4  A    between atoms: C_9  and  C_10 
REMARK    5  A    between atoms: C_10  and  C_11 
REMARK       I    between atoms: C_11  and  N_12 
REMARK    6  A    between atoms: N_12  and  C_17 
REMARK    7  A    between atoms: C_13  and  C_17 
ROOT
HETATM    1  C           1     -34.320  -2.552 -11.694  0.00  0.00     0.275 C 
ENDROOT
BRANCH   1   2
HETATM    2  N           1     -33.706  -1.654 -10.662  0.00  0.00    -0.066 N 
HETATM    3  H           1     -34.343  -0.846 -10.479  0.00  0.00     0.275 HD
HETATM    4  H           1     -33.562  -2.189  -9.776  0.00  0.00     0.275 HD
HETATM    5  H           1     -32.786  -1.300 -11.010  0.00  0.00     0.275 HD
ENDBRANCH   1   2
BRANCH   1   6
HETATM    6  C           1     -35.106  -3.657 -11.002  0.00  0.00     0.053 C 
BRANCH   6   7
HETATM    7  C           1     -34.142  -4.717 -10.481  0.00  0.00     0.076 C 
BRANCH   7   8
HETATM    8  S           1     -34.526  -6.314 -11.252  0.00  0.00    -0.173 SA
HETATM    9  C           1     -34.861  -7.205  -9.706  0.00  0.00     0.089 C 
ENDBRANCH   7   8
ENDBRANCH   6   7
ENDBRANCH   1   6
BRANCH   1  10
HETATM   10  C           1     -35.249  -1.748 -12.571  0.00  0.00     0.249 C 
HETATM   11  O           1     -36.380  -1.527 -12.210  0.00  0.00    -0.271 OA
HETATM   12  N           1     -34.809  -1.267 -13.775  0.00  0.00    -0.345 N 
HETATM   13  H           1     -33.861  -1.452 -14.078  0.00  0.00     0.163 HD
BRANCH  12  14
HETATM   14  C           1     -35.701  -0.495 -14.618  0.00  0.00     0.181 C 
HETATM   15  C           1     -35.249   0.959 -14.636  0.00  0.00     0.043 C 
BRANCH  14  16
HETATM   16  C           1     -35.672  -1.049 -16.020  0.00  0.00     0.196 C 
HETATM   17  O           1     -36.289  -0.465 -16.937  0.00  0.00    -0.646 OA
HETATM   18  O           1     -35.031  -2.095 -16.266  0.00  0.00    -0.646 OA
ENDBRANCH  14  16
ENDBRANCH  12  14
ENDBRANCH   1  10
TORSDOF 7
ENDMDL
MODEL 2
REMARK VINA RESULT:      -5.6     12.464     13.200
REMARK  7 active torsions:
REMARK  status: ('A' for Active; 'I' for Inactive)
REMARK    1  A    between atoms: C_1  and  C_9 
REMARK    2  A    between atoms: C_1  and  S_7 
REMARK    3  A    between atoms: N_3  and  C_10 
REMARK    4  A    between atoms: C_9  and  C_10 
REMARK    5  A    between atoms: C_10  and  C_11 
REMARK       I    between atoms: C_11  and  N_12 
REMARK    6  A    between atoms: N_12  and  C_17 
REMARK    7  A    between atoms: C_13  and  C_17 
ROOT
HETATM    1  C           1     -20.829  -4.191 -10.959  0.00  0.00     0.275 C 
ENDROOT
BRANCH   1   2
HETATM    2  N           1     -20.000  -2.994 -11.321  0.00  0.00    -0.066 N 
HETATM    3  H           1     -20.547  -2.371 -11.958  0.00  0.00     0.275 HD
HETATM    4  H           1     -19.750  -2.469 -10.453  0.00  0.00     0.275 HD
HETATM    5  H           1     -19.128  -3.307 -11.804  0.00  0.00     0.275 HD
ENDBRANCH   1   2
BRANCH   1   6
HETATM    6  C           1     -21.175  -4.139  -9.477  0.00  0.00     0.053 C 
BRANCH   6   7
HETATM    7  C           1     -20.167  -4.968  -8.690  0.00  0.00     0.076 C 
BRANCH   7   8
HETATM    8  S           1     -20.939  -5.569  -7.162  0.00  0.00    -0.173 SA
HETATM    9  C           1     -22.412  -4.512  -7.255  0.00  0.00     0.089 C 
ENDBRANCH   7   8
ENDBRANCH   6   7
ENDBRANCH   1   6
BRANCH   1  10
HETATM   10  C           1     -22.100  -4.185 -11.773  0.00  0.00     0.249 C 
HETATM   11  O           1     -22.986  -4.965 -11.515  0.00  0.00    -0.271 OA
HETATM   12  N           1     -22.250  -3.296 -12.803  0.00  0.00    -0.345 N 
HETATM   13  H           1     -21.507  -2.643 -13.019  0.00  0.00     0.163 HD
BRANCH  12  14
HETATM   14  C           1     -23.471  -3.290 -13.585  0.00  0.00     0.181 C 
HETATM   15  C           1     -24.639  -2.877 -12.700  0.00  0.00     0.043 C 
BRANCH  14  16
HETATM   16  C           1     -23.332  -2.312 -14.725  0.00  0.00     0.196 C 
HETATM   17  O           1     -22.422  -2.460 -15.569  0.00  0.00    -0.646 OA
HETATM   18  O           1     -24.128  -1.353 -14.826  0.00  0.00    -0.646 OA
ENDBRANCH  14  16
ENDBRANCH  12  14
ENDBRANCH   1  10
TORSDOF 7
ENDMDL
MODEL 3
REMARK VINA RESULT:      -5.4     13.233     14.306
REMARK  7 active torsions:
REMARK  status: ('A' for Active; 'I' for Inactive)
REMARK    1  A    between atoms: C_1  and  C_9 
REMARK    2  A    between atoms: C_1  and  S_7 
REMARK    3  A    between atoms: N_3  and  C_10 
REMARK    4  A    between atoms: C_9  and  C_10 
REMARK    5  A    between atoms: C_10  and  C_11 
REMARK       I    between atoms: C_11  and  N_12 
REMARK    6  A    between atoms: N_12  and  C_17 
REMARK    7  A    between atoms: C_13  and  C_17 
ROOT
HETATM    1  C           1     -21.270  -5.832  -7.049  0.00  0.00     0.275 C 
ENDROOT
BRANCH   1   2
HETATM    2  N           1     -19.866  -6.185  -7.440  0.00  0.00    -0.066 N 
HETATM    3  H           1     -19.364  -5.323  -7.753  0.00  0.00     0.275 HD
HETATM    4  H           1     -19.368  -6.597  -6.619  0.00  0.00     0.275 HD
HETATM    5  H           1     -19.885  -6.880  -8.221  0.00  0.00     0.275 HD
ENDBRANCH   1   2
BRANCH   1   6
HETATM    6  C           1     -21.319  -5.526  -5.558  0.00  0.00     0.053 C 
BRANCH   6   7
HETATM    7  C           1     -22.199  -6.553  -4.856  0.00  0.00     0.076 C 
BRANCH   7   8
HETATM    8  S           1     -21.300  -7.259  -3.446  0.00  0.00    -0.173 SA
HETATM    9  C           1     -22.087  -6.231  -2.174  0.00  0.00     0.089 C 
ENDBRANCH   7   8
ENDBRANCH   6   7
ENDBRANCH   1   6
BRANCH   1  10
HETATM   10  C           1     -21.718  -4.619  -7.826  0.00  0.00     0.249 C 
HETATM   11  O           1     -21.633  -3.520  -7.333  0.00  0.00    -0.271 OA
HETATM   12  N           1     -22.220  -4.763  -9.092  0.00  0.00    -0.345 N 
HETATM   13  H           1     -22.292  -5.685  -9.505  0.00  0.00     0.163 HD
BRANCH  12  14
HETATM   14  C           1     -22.651  -3.598  -9.839  0.00  0.00     0.181 C 
HETATM   15  C           1     -21.751  -3.413 -11.054  0.00  0.00     0.043 C 
BRANCH  14  16
HETATM   16  C           1     -24.077  -3.792 -10.293  0.00  0.00     0.196 C 
HETATM   17  O           1     -24.744  -4.758  -9.864  0.00  0.00    -0.646 OA
HETATM   18  O           1     -24.591  -2.986 -11.099  0.00  0.00    -0.646 OA
ENDBRANCH  14  16
ENDBRANCH  12  14
ENDBRANCH   1  10
TORSDOF 7
ENDMDL
MODEL 4
REMARK VINA RESULT:      -5.3     13.663     15.404
REMARK  7 active torsions:
REMARK  status: ('A' for Active; 'I' for Inactive)
REMARK    1  A    between atoms: C_1  and  C_9 
REMARK    2  A    between atoms: C_1  and  S_7 
REMARK    3  A    between atoms: N_3  and  C_10 
REMARK    4  A    between atoms: C_9  and  C_10 
REMARK    5  A    between atoms: C_10  and  C_11 
REMARK       I    between atoms: C_11  and  N_12 
REMARK    6  A    between atoms: N_12  and  C_17 
REMARK    7  A    between atoms: C_13  and  C_17 
ROOT
HETATM    1  C           1     -22.957  -4.527  -9.278  0.00  0.00     0.275 C 
ENDROOT
BRANCH   1   2
HETATM    2  N           1     -23.881  -3.816  -8.334  0.00  0.00    -0.066 N 
HETATM    3  H           1     -23.500  -3.876  -7.363  0.00  0.00     0.275 HD
HETATM    4  H           1     -23.960  -2.812  -8.615  0.00  0.00     0.275 HD
HETATM    5  H           1     -24.825  -4.263  -8.367  0.00  0.00     0.275 HD
ENDBRANCH   1   2
BRANCH   1   6
HETATM    6  C           1     -22.639  -3.619 -10.458  0.00  0.00     0.053 C 
BRANCH   6   7
HETATM    7  C           1     -23.178  -4.242 -11.739  0.00  0.00     0.076 C 
BRANCH   7   8
HETATM    8  S           1     -24.234  -3.042 -12.598  0.00  0.00    -0.173 SA
HETATM    9  C           1     -23.127  -2.779 -14.013  0.00  0.00     0.089 C 
ENDBRANCH   7   8
ENDBRANCH   6   7
ENDBRANCH   1   6
BRANCH   1  10
HETATM   10  C           1     -21.679  -4.882  -8.557  0.00  0.00     0.249 C 
HETATM   11  O           1     -20.614  -4.720  -9.101  0.00  0.00    -0.271 OA
HETATM   12  N           1     -21.728  -5.388  -7.286  0.00  0.00    -0.345 N 
HETATM   13  H           1     -22.622  -5.524  -6.830  0.00  0.00     0.163 HD
BRANCH  12  14
HETATM   14  C           1     -20.501  -5.729  -6.593  0.00  0.00     0.181 C 
HETATM   15  C           1     -20.166  -4.637  -5.586  0.00  0.00     0.043 C 
BRANCH  14  16
HETATM   16  C           1     -20.681  -7.042  -5.871  0.00  0.00     0.196 C 
HETATM   17  O           1     -21.786  -7.330  -5.363  0.00  0.00    -0.646 OA
HETATM   18  O           1     -19.724  -7.842  -5.780  0.00  0.00    -0.646 OA
ENDBRANCH  14  16
ENDBRANCH  12  14
ENDBRANCH   1  10
TORSDOF 7
ENDMDL
MODEL 5
REMARK VINA RESULT:      -5.2      2.951      5.744
REMARK  7 active torsions:
REMARK  status: ('A' for Active; 'I' for Inactive)
REMARK    1  A    between atoms: C_1  and  C_9 
REMARK    2  A    between atoms: C_1  and  S_7 
REMARK    3  A    between atoms: N_3  and  C_10 
REMARK    4  A    between atoms: C_9  and  C_10 
REMARK    5  A    between atoms: C_10  and  C_11 
REMARK       I    between atoms: C_11  and  N_12 
REMARK    6  A    between atoms: N_12  and  C_17 
REMARK    7  A    between atoms: C_13  and  C_17 
ROOT
HETATM    1  C           1     -35.758  -0.051 -13.005  0.00  0.00     0.275 C 
ENDROOT
BRANCH   1   2
HETATM    2  N           1     -34.863   0.868 -13.781  0.00  0.00    -0.066 N 
HETATM    3  H           1     -35.244   0.993 -14.747  0.00  0.00     0.275 HD
HETATM    4  H           1     -34.818   1.797 -13.304  0.00  0.00     0.275 HD
HETATM    5  H           1     -33.904   0.457 -13.835  0.00  0.00     0.275 HD
ENDBRANCH   1   2
BRANCH   1   6
HETATM    6  C           1     -37.142  -0.069 -13.642  0.00  0.00     0.053 C 
BRANCH   6   7
HETATM    7  C           1     -37.057   0.493 -15.056  0.00  0.00     0.076 C 
BRANCH   7   8
HETATM    8  S           1     -37.660  -0.746 -16.237  0.00  0.00    -0.173 SA
HETATM    9  C           1     -36.041  -1.136 -16.959  0.00  0.00     0.089 C 
ENDBRANCH   7   8
ENDBRANCH   6   7
ENDBRANCH   1   6
BRANCH   1  10
HETATM   10  C           1     -35.180  -1.445 -13.018  0.00  0.00     0.249 C 
HETATM   11  O           1     -34.918  -1.980 -14.068  0.00  0.00    -0.271 OA
HETATM   12  N           1     -34.951  -2.102 -11.839  0.00  0.00    -0.345 N 
HETATM   13  H           1     -35.171  -1.653 -10.958  0.00  0.00     0.163 HD
BRANCH  12  14
HETATM   14  C           1     -34.396  -3.441 -11.851  0.00  0.00     0.181 C 
HETATM   15  C           1     -32.947  -3.394 -11.382  0.00  0.00     0.043 C 
BRANCH  14  16
HETATM   16  C           1     -35.196  -4.324 -10.926  0.00  0.00     0.196 C 
HETATM   17  O           1     -36.354  -3.994 -10.592  0.00  0.00    -0.646 OA
HETATM   18  O           1     -34.701  -5.388 -10.493  0.00  0.00    -0.646 OA
ENDBRANCH  14  16
ENDBRANCH  12  14
ENDBRANCH   1  10
TORSDOF 7
ENDMDL
MODEL 6
REMARK VINA RESULT:      -5.1     12.730     13.767
REMARK  7 active torsions:
REMARK  status: ('A' for Active; 'I' for Inactive)
REMARK    1  A    between atoms: C_1  and  C_9 
REMARK    2  A    between atoms: C_1  and  S_7 
REMARK    3  A    between atoms: N_3  and  C_10 
REMARK    4  A    between atoms: C_9  and  C_10 
REMARK    5  A    between atoms: C_10  and  C_11 
REMARK       I    between atoms: C_11  and  N_12 
REMARK    6  A    between atoms: N_12  and  C_17 
REMARK    7  A    between atoms: C_13  and  C_17 
ROOT
HETATM    1  C           1     -20.832  -3.985  -8.131  0.00  0.00     0.275 C 
ENDROOT
BRANCH   1   2
HETATM    2  N           1     -21.846  -3.391  -7.201  0.00  0.00    -0.066 N 
HETATM    3  H           1     -22.101  -4.092  -6.468  0.00  0.00     0.275 HD
HETATM    4  H           1     -21.444  -2.542  -6.743  0.00  0.00     0.275 HD
HETATM    5  H           1     -22.701  -3.125  -7.740  0.00  0.00     0.275 HD
ENDBRANCH   1   2
BRANCH   1   6
HETATM    6  C           1     -20.521  -5.412  -7.699  0.00  0.00     0.053 C 
BRANCH   6   7
HETATM    7  C           1     -20.185  -5.431  -6.213  0.00  0.00     0.076 C 
BRANCH   7   8
HETATM    8  S           1     -20.593  -7.059  -5.521  0.00  0.00    -0.173 SA
HETATM    9  C           1     -22.084  -6.528  -4.632  0.00  0.00     0.089 C 
ENDBRANCH   7   8
ENDBRANCH   6   7
ENDBRANCH   1   6
BRANCH   1  10
HETATM   10  C           1     -21.383  -3.994  -9.536  0.00  0.00     0.249 C 
HETATM   11  O           1     -20.631  -4.001 -10.481  0.00  0.00    -0.271 OA
HETATM   12  N           1     -22.737  -3.994  -9.740  0.00  0.00    -0.345 N 
HETATM   13  H           1     -23.368  -3.987  -8.948  0.00  0.00     0.163 HD
BRANCH  12  14
HETATM   14  C           1     -23.268  -4.002 -11.089  0.00  0.00     0.181 C 
HETATM   15  C           1     -23.461  -5.440 -11.550  0.00  0.00     0.043 C 
BRANCH  14  16
HETATM   16  C           1     -24.594  -3.283 -11.112  0.00  0.00     0.196 C 
HETATM   17  O           1     -25.076  -2.894 -12.197  0.00  0.00    -0.646 OA
HETATM   18  O           1     -25.210  -3.075 -10.044  0.00  0.00    -0.646 OA
ENDBRANCH  14  16
ENDBRANCH  12  14
ENDBRANCH   1  10
TORSDOF 7
ENDMDL
MODEL 7
REMARK VINA RESULT:      -4.8     12.955     14.518
REMARK  7 active torsions:
REMARK  status: ('A' for Active; 'I' for Inactive)
REMARK    1  A    between atoms: C_1  and  C_9 
REMARK    2  A    between atoms: C_1  and  S_7 
REMARK    3  A    between atoms: N_3  and  C_10 
REMARK    4  A    between atoms: C_9  and  C_10 
REMARK    5  A    between atoms: C_10  and  C_11 
REMARK       I    between atoms: C_11  and  N_12 
REMARK    6  A    between atoms: N_12  and  C_17 
REMARK    7  A    between atoms: C_13  and  C_17 
ROOT
HETATM    1  C           1     -24.003  -4.211 -10.074  0.00  0.00     0.275 C 
ENDROOT
BRANCH   1   2
HETATM    2  N           1     -25.366  -3.653  -9.790  0.00  0.00    -0.066 N 
HETATM    3  H           1     -26.038  -3.985 -10.519  0.00  0.00     0.275 HD
HETATM    4  H           1     -25.687  -3.977  -8.850  0.00  0.00     0.275 HD
HETATM    5  H           1     -25.326  -2.608  -9.804  0.00  0.00     0.275 HD
ENDBRANCH   1   2
BRANCH   1   6
HETATM    6  C           1     -23.267  -3.286 -11.033  0.00  0.00     0.053 C 
BRANCH   6   7
HETATM    7  C           1     -24.124  -3.049 -12.271  0.00  0.00     0.076 C 
BRANCH   7   8
HETATM    8  S           1     -23.057  -2.944 -13.735  0.00  0.00    -0.173 SA
HETATM    9  C           1     -23.907  -1.533 -14.498  0.00  0.00     0.089 C 
ENDBRANCH   7   8
ENDBRANCH   6   7
ENDBRANCH   1   6
BRANCH   1  10
HETATM   10  C           1     -23.227  -4.319  -8.784  0.00  0.00     0.249 C 
HETATM   11  O           1     -23.782  -4.134  -7.727  0.00  0.00    -0.271 OA
HETATM   12  N           1     -21.893  -4.629  -8.812  0.00  0.00    -0.345 N 
HETATM   13  H           1     -21.429  -4.784  -9.698  0.00  0.00     0.163 HD
BRANCH  12  14
HETATM   14  C           1     -21.147  -4.733  -7.573  0.00  0.00     0.181 C 
HETATM   15  C           1     -21.140  -6.182  -7.106  0.00  0.00     0.043 C 
BRANCH  14  16
HETATM   16  C           1     -19.729  -4.270  -7.801  0.00  0.00     0.196 C 
HETATM   17  O           1     -18.812  -4.673  -7.054  0.00  0.00    -0.646 OA
HETATM   18  O           1     -19.472  -3.483  -8.738  0.00  0.00    -0.646 OA
ENDBRANCH  14  16
ENDBRANCH  12  14
ENDBRANCH   1  10
TORSDOF 7
ENDMDL
MODEL 8
REMARK VINA RESULT:      -4.8     14.666     16.753
REMARK  7 active torsions:
REMARK  status: ('A' for Active; 'I' for Inactive)
REMARK    1  A    between atoms: C_1  and  C_9 
REMARK    2  A    between atoms: C_1  and  S_7 
REMARK    3  A    between atoms: N_3  and  C_10 
REMARK    4  A    between atoms: C_9  and  C_10 
REMARK    5  A    between atoms: C_10  and  C_11 
REMARK       I    between atoms: C_11  and  N_12 
REMARK    6  A    between atoms: N_12  and  C_17 
REMARK    7  A    between atoms: C_13  and  C_17 
ROOT
HETATM    1  C           1     -20.646  -4.427  -6.565  0.00  0.00     0.275 C 
ENDROOT
BRANCH   1   2
HETATM    2  N           1     -19.496  -5.136  -7.217  0.00  0.00    -0.066 N 
HETATM    3  H           1     -19.290  -6.018  -6.696  0.00  0.00     0.275 HD
HETATM    4  H           1     -19.744  -5.367  -8.206  0.00  0.00     0.275 HD
HETATM    5  H           1     -18.653  -4.519  -7.205  0.00  0.00     0.275 HD
ENDBRANCH   1   2
BRANCH   1   6
HETATM    6  C           1     -21.522  -3.792  -7.637  0.00  0.00     0.053 C 
BRANCH   6   7
HETATM    7  C           1     -21.291  -4.497  -8.967  0.00  0.00     0.076 C 
BRANCH   7   8
HETATM    8  S           1     -22.361  -3.763 -10.235  0.00  0.00    -0.173 SA
HETATM    9  C           1     -23.885  -3.787  -9.249  0.00  0.00     0.089 C 
ENDBRANCH   7   8
ENDBRANCH   6   7
ENDBRANCH   1   6
BRANCH   1  10
HETATM   10  C           1     -21.461  -5.418  -5.771  0.00  0.00     0.249 C 
HETATM   11  O           1     -22.664  -5.428  -5.871  0.00  0.00    -0.271 OA
HETATM   12  N           1     -20.836  -6.305  -4.936  0.00  0.00    -0.345 N 
HETATM   13  H           1     -19.827  -6.296  -4.852  0.00  0.00     0.163 HD
BRANCH  12  14
HETATM   14  C           1     -21.619  -7.257  -4.172  0.00  0.00     0.181 C 
HETATM   15  C           1     -21.002  -8.643  -4.305  0.00  0.00     0.043 C 
BRANCH  14  16
HETATM   16  C           1     -21.629  -6.847  -2.720  0.00  0.00     0.196 C 
HETATM   17  O           1     -20.841  -7.386  -1.913  0.00  0.00    -0.646 OA
HETATM   18  O           1     -22.426  -5.969  -2.324  0.00  0.00    -0.646 OA
ENDBRANCH  14  16
ENDBRANCH  12  14
ENDBRANCH   1  10
TORSDOF 7
ENDMDL
MODEL 9
REMARK VINA RESULT:      -4.7     15.897     17.011
REMARK  7 active torsions:
REMARK  status: ('A' for Active; 'I' for Inactive)
REMARK    1  A    between atoms: C_1  and  C_9 
REMARK    2  A    between atoms: C_1  and  S_7 
REMARK    3  A    between atoms: N_3  and  C_10 
REMARK    4  A    between atoms: C_9  and  C_10 
REMARK    5  A    between atoms: C_10  and  C_11 
REMARK       I    between atoms: C_11  and  N_12 
REMARK    6  A    between atoms: N_12  and  C_17 
REMARK    7  A    between atoms: C_13  and  C_17 
ROOT
HETATM    1  C           1     -21.300  -6.406  -3.037  0.00  0.00     0.275 C 
ENDROOT
BRANCH   1   2
HETATM    2  N           1     -22.372  -5.801  -2.179  0.00  0.00    -0.066 N 
HETATM    3  H           1     -22.264  -4.762  -2.167  0.00  0.00     0.275 HD
HETATM    4  H           1     -23.310  -6.049  -2.567  0.00  0.00     0.275 HD
HETATM    5  H           1     -22.289  -6.171  -1.205  0.00  0.00     0.275 HD
ENDBRANCH   1   2
BRANCH   1   6
HETATM    6  C           1     -21.202  -7.898  -2.748  0.00  0.00     0.053 C 
BRANCH   6   7
HETATM    7  C           1     -20.935  -8.113  -1.263  0.00  0.00     0.076 C 
BRANCH   7   8
HETATM    8  S           1     -22.092  -9.351  -0.614  0.00  0.00    -0.173 SA
HETATM    9  C           1     -21.015  -9.946   0.721  0.00  0.00     0.089 C 
ENDBRANCH   7   8
ENDBRANCH   6   7
ENDBRANCH   1   6
BRANCH   1  10
HETATM   10  C           1     -21.643  -6.196  -4.491  0.00  0.00     0.249 C 
HETATM   11  O           1     -22.557  -6.807  -4.990  0.00  0.00    -0.271 OA
HETATM   12  N           1     -20.919  -5.312  -5.245  0.00  0.00    -0.345 N 
HETATM   13  H           1     -20.152  -4.800  -4.826  0.00  0.00     0.163 HD
BRANCH  12  14
HETATM   14  C           1     -21.248  -5.110  -6.642  0.00  0.00     0.181 C 
HETATM   15  C           1     -21.355  -3.618  -6.928  0.00  0.00     0.043 C 
BRANCH  14  16
HETATM   16  C           1     -20.166  -5.712  -7.505  0.00  0.00     0.196 C 
HETATM   17  O           1     -19.523  -6.704  -7.100  0.00  0.00    -0.646 OA
HETATM   18  O           1     -19.913  -5.218  -8.625  0.00  0.00    -0.646 OA
ENDBRANCH  14  16
ENDBRANCH  12  14
ENDBRANCH   1  10
TORSDOF 7
ENDMDL
