MODEL 1
REMARK VINA RESULT:      -6.1      0.000      0.000
REMARK  8 active torsions:
REMARK  status: ('A' for Active; 'I' for Inactive)
REMARK    1  A    between atoms: N_1  and  C_11 
REMARK       I    between atoms: N_1  and  C_2 
REMARK    2  A    between atoms: C_2  and  C_3 
REMARK    3  A    between atoms: C_3  and  C_4 
REMARK    4  A    between atoms: C_3  and  N_8 
REMARK    5  A    between atoms: C_4  and  C_5 
REMARK       I    between atoms: C_5  and  N_6 
REMARK    6  A    between atoms: C_9  and  O_10 
REMARK    7  A    between atoms: C_9  and  C_11 
REMARK    8  A    between atoms: C_11  and  C_12 
ROOT
HETATM    1  N           1     -22.167  -4.824  -9.087  0.00  0.00    -0.343 N 
HETATM    2  C           1     -21.722  -4.604  -7.811  0.00  0.00     0.249 C 
HETATM    3  O           1     -21.679  -3.479  -7.372  0.00  0.00    -0.271 OA
HETATM    4  H           1     -22.203  -5.766  -9.455  0.00  0.00     0.163 HD
ENDROOT
BRANCH   2   5
HETATM    5  C           1     -21.283  -5.765  -6.954  0.00  0.00     0.283 C 
BRANCH   5   6
HETATM    6  C           1     -21.165  -5.312  -5.505  0.00  0.00     0.145 C 
BRANCH   6   7
HETATM    7  C           1     -21.603  -6.430  -4.591  0.00  0.00     0.217 C 
HETATM    8  N           1     -22.086  -6.145  -3.343  0.00  0.00    -0.370 N 
HETATM    9  H           1     -22.380  -6.894  -2.730  0.00  0.00     0.159 HD
HETATM   10  H           1     -22.150  -5.183  -3.033  0.00  0.00     0.159 HD
HETATM   11  O           1     -21.528  -7.578  -4.962  0.00  0.00    -0.274 OA
ENDBRANCH   6   7
ENDBRANCH   5   6
BRANCH   5  12
HETATM   12  N           1     -19.951  -6.264  -7.432  0.00  0.00    -0.066 N 
HETATM   13  H           1     -19.367  -5.455  -7.742  0.00  0.00     0.275 HD
HETATM   14  H           1     -19.467  -6.764  -6.652  0.00  0.00     0.275 HD
HETATM   15  H           1     -20.092  -6.920  -8.233  0.00  0.00     0.275 HD
ENDBRANCH   5  12
ENDBRANCH   2   5
BRANCH   1  16
HETATM   16  C           1     -22.588  -3.708  -9.911  0.00  0.00     0.214 C 
BRANCH  16  17
HETATM   17  C           1     -21.788  -3.702 -11.207  0.00  0.00     0.147 C 
HETATM   18  C           1     -20.391  -4.248 -10.941  0.00  0.00     0.042 C 
BRANCH  17  19
HETATM   19  O           1     -22.432  -4.508 -12.156  0.00  0.00    -0.393 OA
HETATM   20  H           1     -22.591  -5.341 -11.746  0.00  0.00     0.210 HD
ENDBRANCH  17  19
ENDBRANCH  16  17
BRANCH  16  21
HETATM   21  C           1     -24.058  -3.844 -10.228  0.00  0.00     0.199 C 
HETATM   22  O           1     -24.678  -4.873  -9.886  0.00  0.00    -0.646 OA
HETATM   23  O           1     -24.655  -2.926 -10.831  0.00  0.00    -0.646 OA
ENDBRANCH  16  21
ENDBRANCH   1  16
TORSDOF 8
ENDMDL
MODEL 2
REMARK VINA RESULT:      -5.6      2.406      5.981
REMARK  8 active torsions:
REMARK  status: ('A' for Active; 'I' for Inactive)
REMARK    1  A    between atoms: N_1  and  C_11 
REMARK       I    between atoms: N_1  and  C_2 
REMARK    2  A    between atoms: C_2  and  C_3 
REMARK    3  A    between atoms: C_3  and  C_4 
REMARK    4  A    between atoms: C_3  and  N_8 
REMARK    5  A    between atoms: C_4  and  C_5 
REMARK       I    between atoms: C_5  and  N_6 
REMARK    6  A    between atoms: C_9  and  O_10 
REMARK    7  A    between atoms: C_9  and  C_11 
REMARK    8  A    between atoms: C_11  and  C_12 
ROOT
HETATM    1  N           1     -22.268  -4.908  -8.456  0.00  0.00    -0.343 N 
HETATM    2  C           1     -23.085  -4.058  -9.150  0.00  0.00     0.249 C 
HETATM    3  O           1     -22.936  -2.863  -9.053  0.00  0.00    -0.271 OA
HETATM    4  H           1     -22.393  -5.909  -8.537  0.00  0.00     0.163 HD
ENDROOT
BRANCH   2   5
HETATM    5  C           1     -24.175  -4.612 -10.034  0.00  0.00     0.283 C 
BRANCH   5   6
HETATM    6  C           1     -23.695  -4.635 -11.479  0.00  0.00     0.145 C 
BRANCH   6   7
HETATM    7  C           1     -24.064  -3.336 -12.152  0.00  0.00     0.217 C 
HETATM    8  N           1     -23.169  -2.301 -12.181  0.00  0.00    -0.370 N 
HETATM    9  H           1     -23.415  -1.430 -12.632  0.00  0.00     0.159 HD
HETATM   10  H           1     -22.259  -2.407 -11.750  0.00  0.00     0.159 HD
HETATM   11  O           1     -25.150  -3.210 -12.667  0.00  0.00    -0.274 OA
ENDBRANCH   6   7
ENDBRANCH   5   6
BRANCH   5  12
HETATM   12  N           1     -25.395  -3.747  -9.926  0.00  0.00    -0.066 N 
HETATM   13  H           1     -25.792  -3.822  -8.963  0.00  0.00     0.275 HD
HETATM   14  H           1     -25.136  -2.753 -10.119  0.00  0.00     0.275 HD
HETATM   15  H           1     -26.109  -4.063 -10.622  0.00  0.00     0.275 HD
ENDBRANCH   5  12
ENDBRANCH   2   5
BRANCH   1  16
HETATM   16  C           1     -21.222  -4.375  -7.605  0.00  0.00     0.214 C 
BRANCH  16  17
HETATM   17  C           1     -21.232  -5.107  -6.269  0.00  0.00     0.147 C 
HETATM   18  C           1     -20.901  -6.577  -6.493  0.00  0.00     0.042 C 
BRANCH  17  19
HETATM   19  O           1     -20.275  -4.537  -5.417  0.00  0.00    -0.393 OA
HETATM   20  H           1     -19.919  -5.237  -4.898  0.00  0.00     0.210 HD
ENDBRANCH  17  19
ENDBRANCH  16  17
BRANCH  16  21
HETATM   21  C           1     -19.883  -4.569  -8.275  0.00  0.00     0.199 C 
HETATM   22  O           1     -18.833  -4.252  -7.676  0.00  0.00    -0.646 OA
HETATM   23  O           1     -19.825  -5.050  -9.428  0.00  0.00    -0.646 OA
ENDBRANCH  16  21
ENDBRANCH   1  16
TORSDOF 8
ENDMDL
MODEL 3
REMARK VINA RESULT:      -5.6     10.434     12.748
REMARK  8 active torsions:
REMARK  status: ('A' for Active; 'I' for Inactive)
REMARK    1  A    between atoms: N_1  and  C_11 
REMARK       I    between atoms: N_1  and  C_2 
REMARK    2  A    between atoms: C_2  and  C_3 
REMARK    3  A    between atoms: C_3  and  C_4 
REMARK    4  A    between atoms: C_3  and  N_8 
REMARK    5  A    between atoms: C_4  and  C_5 
REMARK       I    between atoms: C_5  and  N_6 
REMARK    6  A    between atoms: C_9  and  O_10 
REMARK    7  A    between atoms: C_9  and  C_11 
REMARK    8  A    between atoms: C_11  and  C_12 
ROOT
HETATM    1  N           1     -27.391  -6.868 -17.751  0.00  0.00    -0.343 N 
HETATM    2  C           1     -27.079  -6.330 -18.971  0.00  0.00     0.249 C 
HETATM    3  O           1     -27.878  -5.628 -19.544  0.00  0.00    -0.271 OA
HETATM    4  H           1     -26.721  -7.456 -17.272  0.00  0.00     0.163 HD
ENDROOT
BRANCH   2   5
HETATM    5  C           1     -25.738  -6.616 -19.601  0.00  0.00     0.283 C 
BRANCH   5   6
HETATM    6  C           1     -25.899  -7.680 -20.678  0.00  0.00     0.145 C 
BRANCH   6   7
HETATM    7  C           1     -24.604  -7.826 -21.439  0.00  0.00     0.217 C 
HETATM    8  N           1     -23.673  -8.745 -21.037  0.00  0.00    -0.370 N 
HETATM    9  H           1     -22.805  -8.843 -21.547  0.00  0.00     0.159 HD
HETATM   10  H           1     -23.853  -9.327 -20.229  0.00  0.00     0.159 HD
HETATM   11  O           1     -24.389  -7.131 -22.405  0.00  0.00    -0.274 OA
ENDBRANCH   6   7
ENDBRANCH   5   6
BRANCH   5  12
HETATM   12  N           1     -24.786  -7.107 -18.552  0.00  0.00    -0.066 N 
HETATM   13  H           1     -23.823  -6.763 -18.766  0.00  0.00     0.275 HD
HETATM   14  H           1     -25.083  -6.748 -17.616  0.00  0.00     0.275 HD
HETATM   15  H           1     -24.789  -8.152 -18.541  0.00  0.00     0.275 HD
ENDBRANCH   5  12
ENDBRANCH   2   5
BRANCH   1  16
HETATM   16  C           1     -28.680  -6.595 -17.146  0.00  0.00     0.214 C 
BRANCH  16  17
HETATM   17  C           1     -29.654  -7.710 -17.502  0.00  0.00     0.147 C 
HETATM   18  C           1     -31.058  -7.134 -17.635  0.00  0.00     0.042 C 
BRANCH  17  19
HETATM   19  O           1     -29.271  -8.294 -18.718  0.00  0.00    -0.393 OA
HETATM   20  H           1     -28.829  -9.099 -18.507  0.00  0.00     0.210 HD
ENDBRANCH  17  19
ENDBRANCH  16  17
BRANCH  16  21
HETATM   21  C           1     -28.525  -6.521 -15.647  0.00  0.00     0.199 C 
HETATM   22  O           1     -27.896  -7.413 -15.039  0.00  0.00    -0.646 OA
HETATM   23  O           1     -29.024  -5.565 -15.013  0.00  0.00    -0.646 OA
ENDBRANCH  16  21
ENDBRANCH   1  16
TORSDOF 8
ENDMDL
MODEL 4
REMARK VINA RESULT:      -5.5      1.961      2.947
REMARK  8 active torsions:
REMARK  status: ('A' for Active; 'I' for Inactive)
REMARK    1  A    between atoms: N_1  and  C_11 
REMARK       I    between atoms: N_1  and  C_2 
REMARK    2  A    between atoms: C_2  and  C_3 
REMARK    3  A    between atoms: C_3  and  C_4 
REMARK    4  A    between atoms: C_3  and  N_8 
REMARK    5  A    between atoms: C_4  and  C_5 
REMARK       I    between atoms: C_5  and  N_6 
REMARK    6  A    between atoms: C_9  and  O_10 
REMARK    7  A    between atoms: C_9  and  C_11 
REMARK    8  A    between atoms: C_11  and  C_12 
ROOT
HETATM    1  N           1     -22.211  -3.601  -9.706  0.00  0.00    -0.343 N 
HETATM    2  C           1     -20.985  -4.097  -9.350  0.00  0.00     0.249 C 
HETATM    3  O           1     -20.413  -4.873 -10.079  0.00  0.00    -0.271 OA
HETATM    4  H           1     -22.689  -2.952  -9.096  0.00  0.00     0.163 HD
ENDROOT
BRANCH   2   5
HETATM    5  C           1     -20.350  -3.678  -8.048  0.00  0.00     0.283 C 
BRANCH   5   6
HETATM    6  C           1     -19.498  -4.818  -7.507  0.00  0.00     0.145 C 
BRANCH   6   7
HETATM    7  C           1     -20.283  -5.586  -6.472  0.00  0.00     0.217 C 
HETATM    8  N           1     -20.991  -6.699  -6.836  0.00  0.00    -0.370 N 
HETATM    9  H           1     -21.517  -7.214  -6.142  0.00  0.00     0.159 HD
HETATM   10  H           1     -20.989  -7.007  -7.800  0.00  0.00     0.159 HD
HETATM   11  O           1     -20.285  -5.218  -5.320  0.00  0.00    -0.274 OA
ENDBRANCH   6   7
ENDBRANCH   5   6
BRANCH   5  12
HETATM   12  N           1     -21.422  -3.340  -7.054  0.00  0.00    -0.066 N 
HETATM   13  H           1     -22.360  -3.488  -7.489  0.00  0.00     0.275 HD
HETATM   14  H           1     -21.326  -3.957  -6.216  0.00  0.00     0.275 HD
HETATM   15  H           1     -21.325  -2.340  -6.764  0.00  0.00     0.275 HD
ENDBRANCH   5  12
ENDBRANCH   2   5
BRANCH   1  16
HETATM   16  C           1     -22.821  -4.005 -10.957  0.00  0.00     0.214 C 
BRANCH  16  17
HETATM   17  C           1     -24.338  -3.933 -10.828  0.00  0.00     0.147 C 
HETATM   18  C           1     -24.704  -3.365  -9.464  0.00  0.00     0.042 C 
BRANCH  17  19
HETATM   19  O           1     -24.852  -3.103 -11.835  0.00  0.00    -0.393 OA
HETATM   20  H           1     -25.789  -3.106 -11.739  0.00  0.00     0.210 HD
ENDBRANCH  17  19
ENDBRANCH  16  17
BRANCH  16  21
HETATM   21  C           1     -22.366  -3.080 -12.059  0.00  0.00     0.199 C 
HETATM   22  O           1     -22.328  -3.487 -13.240  0.00  0.00    -0.646 OA
HETATM   23  O           1     -22.027  -1.907 -11.791  0.00  0.00    -0.646 OA
ENDBRANCH  16  21
ENDBRANCH   1  16
TORSDOF 8
ENDMDL
MODEL 5
REMARK VINA RESULT:      -5.5      2.054      5.929
REMARK  8 active torsions:
REMARK  status: ('A' for Active; 'I' for Inactive)
REMARK    1  A    between atoms: N_1  and  C_11 
REMARK       I    between atoms: N_1  and  C_2 
REMARK    2  A    between atoms: C_2  and  C_3 
REMARK    3  A    between atoms: C_3  and  C_4 
REMARK    4  A    between atoms: C_3  and  N_8 
REMARK    5  A    between atoms: C_4  and  C_5 
REMARK       I    between atoms: C_5  and  N_6 
REMARK    6  A    between atoms: C_9  and  O_10 
REMARK    7  A    between atoms: C_9  and  C_11 
REMARK    8  A    between atoms: C_11  and  C_12 
ROOT
HETATM    1  N           1     -22.397  -5.043  -7.959  0.00  0.00    -0.343 N 
HETATM    2  C           1     -22.325  -4.669  -9.274  0.00  0.00     0.249 C 
HETATM    3  O           1     -21.278  -4.759  -9.872  0.00  0.00    -0.271 OA
HETATM    4  H           1     -23.273  -4.967  -7.459  0.00  0.00     0.163 HD
ENDROOT
BRANCH   2   5
HETATM    5  C           1     -23.552  -4.141  -9.977  0.00  0.00     0.283 C 
BRANCH   5   6
HETATM    6  C           1     -23.131  -3.204 -11.100  0.00  0.00     0.145 C 
BRANCH   6   7
HETATM    7  C           1     -24.105  -3.322 -12.246  0.00  0.00     0.217 C 
HETATM    8  N           1     -23.691  -3.831 -13.448  0.00  0.00    -0.370 N 
HETATM    9  H           1     -24.344  -3.910 -14.216  0.00  0.00     0.159 HD
HETATM   10  H           1     -22.731  -4.128 -13.567  0.00  0.00     0.159 HD
HETATM   11  O           1     -25.252  -2.967 -12.103  0.00  0.00    -0.274 OA
ENDBRANCH   6   7
ENDBRANCH   5   6
BRANCH   5  12
HETATM   12  N           1     -24.407  -3.395  -8.997  0.00  0.00    -0.066 N 
HETATM   13  H           1     -25.304  -3.118  -9.457  0.00  0.00     0.275 HD
HETATM   14  H           1     -24.612  -4.008  -8.176  0.00  0.00     0.275 HD
HETATM   15  H           1     -23.902  -2.538  -8.676  0.00  0.00     0.275 HD
ENDBRANCH   5  12
ENDBRANCH   2   5
BRANCH   1  16
HETATM   16  C           1     -21.217  -5.549  -7.284  0.00  0.00     0.214 C 
BRANCH  16  17
HETATM   17  C           1     -20.411  -4.381  -6.728  0.00  0.00     0.147 C 
HETATM   18  C           1     -19.021  -4.384  -7.350  0.00  0.00     0.042 C 
BRANCH  17  19
HETATM   19  O           1     -21.060  -3.177  -7.037  0.00  0.00    -0.393 OA
HETATM   20  H           1     -21.897  -3.199  -6.604  0.00  0.00     0.210 HD
ENDBRANCH  17  19
ENDBRANCH  16  17
BRANCH  16  21
HETATM   21  C           1     -21.637  -6.455  -6.153  0.00  0.00     0.199 C 
HETATM   22  O           1     -22.390  -6.025  -5.254  0.00  0.00    -0.646 OA
HETATM   23  O           1     -21.232  -7.637  -6.116  0.00  0.00    -0.646 OA
ENDBRANCH  16  21
ENDBRANCH   1  16
TORSDOF 8
ENDMDL
MODEL 6
REMARK VINA RESULT:      -5.3     17.758     19.864
REMARK  8 active torsions:
REMARK  status: ('A' for Active; 'I' for Inactive)
REMARK    1  A    between atoms: N_1  and  C_11 
REMARK       I    between atoms: N_1  and  C_2 
REMARK    2  A    between atoms: C_2  and  C_3 
REMARK    3  A    between atoms: C_3  and  C_4 
REMARK    4  A    between atoms: C_3  and  N_8 
REMARK    5  A    between atoms: C_4  and  C_5 
REMARK       I    between atoms: C_5  and  N_6 
REMARK    6  A    between atoms: C_9  and  O_10 
REMARK    7  A    between atoms: C_9  and  C_11 
REMARK    8  A    between atoms: C_11  and  C_12 
ROOT
HETATM    1  N           1     -12.244   6.953 -20.421  0.00  0.00    -0.343 N 
HETATM    2  C           1     -12.631   6.221 -21.511  0.00  0.00     0.249 C 
HETATM    3  O           1     -11.878   6.087 -22.447  0.00  0.00    -0.271 OA
HETATM    4  H           1     -12.874   7.065 -19.637  0.00  0.00     0.163 HD
ENDROOT
BRANCH   2   5
HETATM    5  C           1     -13.998   5.584 -21.546  0.00  0.00     0.283 C 
BRANCH   5   6
HETATM    6  C           1     -14.079   4.495 -20.484  0.00  0.00     0.145 C 
BRANCH   6   7
HETATM    7  C           1     -13.098   3.396 -20.815  0.00  0.00     0.217 C 
HETATM    8  N           1     -11.816   3.457 -20.340  0.00  0.00    -0.370 N 
HETATM    9  H           1     -11.159   2.721 -20.561  0.00  0.00     0.159 HD
HETATM   10  H           1     -11.525   4.240 -19.767  0.00  0.00     0.159 HD
HETATM   11  O           1     -13.446   2.462 -21.498  0.00  0.00    -0.274 OA
ENDBRANCH   6   7
ENDBRANCH   5   6
BRANCH   5  12
HETATM   12  N           1     -14.235   4.982 -22.899  0.00  0.00    -0.066 N 
HETATM   13  H           1     -13.464   5.262 -23.546  0.00  0.00     0.275 HD
HETATM   14  H           1     -14.260   3.940 -22.817  0.00  0.00     0.275 HD
HETATM   15  H           1     -15.148   5.323 -23.276  0.00  0.00     0.275 HD
ENDBRANCH   5  12
ENDBRANCH   2   5
BRANCH   1  16
HETATM   16  C           1     -10.930   7.566 -20.388  0.00  0.00     0.214 C 
BRANCH  16  17
HETATM   17  C           1     -10.971   8.807 -19.506  0.00  0.00     0.147 C 
HETATM   18  C           1     -12.414   9.111 -19.126  0.00  0.00     0.042 C 
BRANCH  17  19
HETATM   19  O           1     -10.220   8.578 -18.344  0.00  0.00    -0.393 OA
HETATM   20  H           1      -9.939   7.679 -18.372  0.00  0.00     0.210 HD
ENDBRANCH  17  19
ENDBRANCH  16  17
BRANCH  16  21
HETATM   21  C           1      -9.931   6.583 -19.828  0.00  0.00     0.199 C 
HETATM   22  O           1      -8.805   6.468 -20.355  0.00  0.00    -0.646 OA
HETATM   23  O           1     -10.231   5.885 -18.835  0.00  0.00    -0.646 OA
ENDBRANCH  16  21
ENDBRANCH   1  16
TORSDOF 8
ENDMDL
MODEL 7
REMARK VINA RESULT:      -5.2     17.978     19.706
REMARK  8 active torsions:
REMARK  status: ('A' for Active; 'I' for Inactive)
REMARK    1  A    between atoms: N_1  and  C_11 
REMARK       I    between atoms: N_1  and  C_2 
REMARK    2  A    between atoms: C_2  and  C_3 
REMARK    3  A    between atoms: C_3  and  C_4 
REMARK    4  A    between atoms: C_3  and  N_8 
REMARK    5  A    between atoms: C_4  and  C_5 
REMARK       I    between atoms: C_5  and  N_6 
REMARK    6  A    between atoms: C_9  and  O_10 
REMARK    7  A    between atoms: C_9  and  C_11 
REMARK    8  A    between atoms: C_11  and  C_12 
ROOT
HETATM    1  N           1     -12.049   5.373 -20.767  0.00  0.00    -0.343 N 
HETATM    2  C           1     -11.267   6.418 -21.179  0.00  0.00     0.249 C 
HETATM    3  O           1     -11.451   6.920 -22.263  0.00  0.00    -0.271 OA
HETATM    4  H           1     -11.895   4.953 -19.860  0.00  0.00     0.163 HD
ENDROOT
BRANCH   2   5
HETATM    5  C           1     -10.173   6.942 -20.282  0.00  0.00     0.283 C 
BRANCH   5   6
HETATM    6  C           1     -10.150   8.464 -20.343  0.00  0.00     0.145 C 
BRANCH   6   7
HETATM    7  C           1     -10.792   9.028 -19.100  0.00  0.00     0.217 C 
HETATM    8  N           1     -12.096   9.443 -19.130  0.00  0.00    -0.370 N 
HETATM    9  H           1     -12.527   9.821 -18.297  0.00  0.00     0.159 HD
HETATM   10  H           1     -12.630   9.371 -19.987  0.00  0.00     0.159 HD
HETATM   11  O           1     -10.155   9.113 -18.077  0.00  0.00    -0.274 OA
ENDBRANCH   6   7
ENDBRANCH   5   6
BRANCH   5  12
HETATM   12  N           1      -8.850   6.403 -20.738  0.00  0.00    -0.066 N 
HETATM   13  H           1      -8.365   7.120 -21.323  0.00  0.00     0.275 HD
HETATM   14  H           1      -8.261   6.177 -19.905  0.00  0.00     0.275 HD
HETATM   15  H           1      -9.003   5.537 -21.303  0.00  0.00     0.275 HD
ENDBRANCH   5  12
ENDBRANCH   2   5
BRANCH   1  16
HETATM   16  C           1     -13.099   4.869 -21.630  0.00  0.00     0.214 C 
BRANCH  16  17
HETATM   17  C           1     -12.800   3.422 -22.001  0.00  0.00     0.147 C 
HETATM   18  C           1     -11.882   2.809 -20.952  0.00  0.00     0.042 C 
BRANCH  17  19
HETATM   19  O           1     -13.999   2.696 -22.054  0.00  0.00    -0.393 OA
HETATM   20  H           1     -13.769   1.784 -22.010  0.00  0.00     0.210 HD
ENDBRANCH  17  19
ENDBRANCH  16  17
BRANCH  16  21
HETATM   21  C           1     -14.422   4.939 -20.905  0.00  0.00     0.199 C 
HETATM   22  O           1     -14.484   4.659 -19.690  0.00  0.00    -0.646 OA
HETATM   23  O           1     -15.454   5.281 -21.522  0.00  0.00    -0.646 OA
ENDBRANCH  16  21
ENDBRANCH   1  16
TORSDOF 8
ENDMDL
MODEL 8
REMARK VINA RESULT:      -5.2      9.412     12.294
REMARK  8 active torsions:
REMARK  status: ('A' for Active; 'I' for Inactive)
REMARK    1  A    between atoms: N_1  and  C_11 
REMARK       I    between atoms: N_1  and  C_2 
REMARK    2  A    between atoms: C_2  and  C_3 
REMARK    3  A    between atoms: C_3  and  C_4 
REMARK    4  A    between atoms: C_3  and  N_8 
REMARK    5  A    between atoms: C_4  and  C_5 
REMARK       I    between atoms: C_5  and  N_6 
REMARK    6  A    between atoms: C_9  and  O_10 
REMARK    7  A    between atoms: C_9  and  C_11 
REMARK    8  A    between atoms: C_11  and  C_12 
ROOT
HETATM    1  N           1     -26.424  -6.638 -18.094  0.00  0.00    -0.343 N 
HETATM    2  C           1     -27.093  -6.099 -19.160  0.00  0.00     0.249 C 
HETATM    3  O           1     -27.998  -5.320 -18.974  0.00  0.00    -0.271 OA
HETATM    4  H           1     -25.667  -7.290 -18.250  0.00  0.00     0.163 HD
ENDROOT
BRANCH   2   5
HETATM    5  C           1     -26.702  -6.479 -20.567  0.00  0.00     0.283 C 
BRANCH   5   6
HETATM    6  C           1     -26.237  -7.928 -20.592  0.00  0.00     0.145 C 
BRANCH   6   7
HETATM    7  C           1     -24.734  -7.973 -20.718  0.00  0.00     0.217 C 
HETATM    8  N           1     -24.156  -8.457 -21.860  0.00  0.00    -0.370 N 
HETATM    9  H           1     -23.149  -8.487 -21.945  0.00  0.00     0.159 HD
HETATM   10  H           1     -24.738  -8.786 -22.621  0.00  0.00     0.159 HD
HETATM   11  O           1     -24.040  -7.580 -19.809  0.00  0.00    -0.274 OA
ENDBRANCH   6   7
ENDBRANCH   5   6
BRANCH   5  12
HETATM   12  N           1     -25.589  -5.589 -21.035  0.00  0.00    -0.066 N 
HETATM   13  H           1     -25.679  -5.430 -22.064  0.00  0.00     0.275 HD
HETATM   14  H           1     -25.643  -4.672 -20.535  0.00  0.00     0.275 HD
HETATM   15  H           1     -24.671  -6.043 -20.831  0.00  0.00     0.275 HD
ENDBRANCH   5  12
ENDBRANCH   2   5
BRANCH   1  16
HETATM   16  C           1     -26.801  -6.273 -16.742  0.00  0.00     0.214 C 
BRANCH  16  17
HETATM   17  C           1     -27.943  -7.167 -16.275  0.00  0.00     0.147 C 
HETATM   18  C           1     -28.865  -6.373 -15.360  0.00  0.00     0.042 C 
BRANCH  17  19
HETATM   19  O           1     -28.665  -7.621 -17.388  0.00  0.00    -0.393 OA
HETATM   20  H           1     -29.577  -7.475 -17.201  0.00  0.00     0.210 HD
ENDBRANCH  17  19
ENDBRANCH  16  17
BRANCH  16  21
HETATM   21  C           1     -25.615  -6.451 -15.826  0.00  0.00     0.199 C 
HETATM   22  O           1     -25.006  -5.451 -15.390  0.00  0.00    -0.646 OA
HETATM   23  O           1     -25.244  -7.600 -15.500  0.00  0.00    -0.646 OA
ENDBRANCH  16  21
ENDBRANCH   1  16
TORSDOF 8
ENDMDL
MODEL 9
REMARK VINA RESULT:      -5.1     17.693     19.876
REMARK  8 active torsions:
REMARK  status: ('A' for Active; 'I' for Inactive)
REMARK    1  A    between atoms: N_1  and  C_11 
REMARK       I    between atoms: N_1  and  C_2 
REMARK    2  A    between atoms: C_2  and  C_3 
REMARK    3  A    between atoms: C_3  and  C_4 
REMARK    4  A    between atoms: C_3  and  N_8 
REMARK    5  A    between atoms: C_4  and  C_5 
REMARK       I    between atoms: C_5  and  N_6 
REMARK    6  A    between atoms: C_9  and  O_10 
REMARK    7  A    between atoms: C_9  and  C_11 
REMARK    8  A    between atoms: C_11  and  C_12 
ROOT
HETATM    1  N           1     -12.763   6.793 -20.239  0.00  0.00    -0.343 N 
HETATM    2  C           1     -12.431   7.668 -21.238  0.00  0.00     0.249 C 
HETATM    3  O           1     -12.373   7.284 -22.382  0.00  0.00    -0.271 OA
HETATM    4  H           1     -12.812   7.114 -19.281  0.00  0.00     0.163 HD
ENDROOT
BRANCH   2   5
HETATM    5  C           1     -12.136   9.111 -20.910  0.00  0.00     0.283 C 
BRANCH   5   6
HETATM    6  C           1     -10.630   9.312 -20.811  0.00  0.00     0.145 C 
BRANCH   6   7
HETATM    7  C           1     -10.039   8.254 -19.912  0.00  0.00     0.217 C 
HETATM    8  N           1      -9.229   7.283 -20.437  0.00  0.00    -0.370 N 
HETATM    9  H           1      -8.832   6.574 -19.835  0.00  0.00     0.159 HD
HETATM   10  H           1      -9.026   7.275 -21.429  0.00  0.00     0.159 HD
HETATM   11  O           1     -10.280   8.264 -18.728  0.00  0.00    -0.274 OA
ENDBRANCH   6   7
ENDBRANCH   5   6
BRANCH   5  12
HETATM   12  N           1     -12.775   9.468 -19.601  0.00  0.00    -0.066 N 
HETATM   13  H           1     -13.541  10.159 -19.764  0.00  0.00     0.275 HD
HETATM   14  H           1     -13.171   8.607 -19.161  0.00  0.00     0.275 HD
HETATM   15  H           1     -12.057   9.886 -18.966  0.00  0.00     0.275 HD
ENDBRANCH   5  12
ENDBRANCH   2   5
BRANCH   1  16
HETATM   16  C           1     -13.046   5.406 -20.553  0.00  0.00     0.214 C 
BRANCH  16  17
HETATM   17  C           1     -12.194   4.502 -19.673  0.00  0.00     0.147 C 
HETATM   18  C           1     -11.336   3.601 -20.551  0.00  0.00     0.042 C 
BRANCH  17  19
HETATM   19  O           1     -11.365   5.289 -18.860  0.00  0.00    -0.393 OA
HETATM   20  H           1     -11.700   5.222 -17.982  0.00  0.00     0.210 HD
ENDBRANCH  17  19
ENDBRANCH  16  17
BRANCH  16  21
HETATM   21  C           1     -14.507   5.123 -20.302  0.00  0.00     0.199 C 
HETATM   22  O           1     -15.346   5.312 -21.208  0.00  0.00    -0.646 OA
HETATM   23  O           1     -14.877   4.696 -19.186  0.00  0.00    -0.646 OA
ENDBRANCH  16  21
ENDBRANCH   1  16
TORSDOF 8
ENDMDL
