MODEL 1
REMARK VINA RESULT:      -6.8      0.000      0.000
REMARK  8 active torsions:
REMARK  status: ('A' for Active; 'I' for Inactive)
REMARK       I    between atoms: N_2  and  C_5 
REMARK    1  A    between atoms: C_5  and  C_12 
REMARK    2  A    between atoms: C_9  and  C_12 
REMARK    3  A    between atoms: C_9  and  C_10 
REMARK    4  A    between atoms: C_9  and  N_13 
REMARK       I    between atoms: N_13  and  C_14 
REMARK    5  A    between atoms: C_14  and  C_15 
REMARK    6  A    between atoms: C_15  and  C_16 
REMARK    7  A    between atoms: C_15  and  N_19 
REMARK    8  A    between atoms: C_16  and  C_17 
ROOT
HETATM    1  H           1     -35.469  -1.938 -13.674  0.00  0.00     0.163 HD
HETATM    2  N           1     -34.994  -1.611 -12.842  0.00  0.00    -0.344 N 
HETATM    3  C           1     -34.292  -2.492 -12.065  0.00  0.00     0.249 C 
HETATM    4  O           1     -33.725  -2.103 -11.072  0.00  0.00    -0.271 OA
ENDROOT
BRANCH   3   5
HETATM    5  C           1     -34.226  -3.951 -12.448  0.00  0.00     0.280 C 
BRANCH   5   6
HETATM    6  C           1     -33.167  -4.651 -11.607  0.00  0.00     0.101 C 
BRANCH   6   7
HETATM    7  C           1     -33.780  -5.825 -10.910  0.00  0.00     0.028 A 
HETATM    8  C           1     -34.945  -5.782 -10.182  0.00  0.00     0.114 A 
HETATM    9  N           1     -35.129  -7.059  -9.731  0.00  0.00    -0.360 N 
HETATM   10  C           1     -34.088  -7.812 -10.195  0.00  0.00     0.180 A 
HETATM   11  H           1     -35.925  -7.399  -9.136  0.00  0.00     0.166 HD
HETATM   12  N           1     -33.256  -7.093 -10.911  0.00  0.00    -0.355 N 
ATOM     13  HN          1     -32.402  -7.409 -11.370  1.00  0.00     0.166 HD
ENDBRANCH   6   7
ENDBRANCH   5   6
BRANCH   5  14
HETATM   14  N           1     -33.869  -4.070 -13.900  0.00  0.00    -0.066 N 
HETATM   15  H           1     -33.671  -3.121 -14.290  0.00  0.00     0.275 HD
HETATM   16  H           1     -33.020  -4.670 -14.001  0.00  0.00     0.275 HD
HETATM   17  H           1     -34.666  -4.502 -14.421  0.00  0.00     0.275 HD
ENDBRANCH   5  14
ENDBRANCH   3   5
BRANCH   2  18
HETATM   18  C           1     -35.056  -0.210 -12.473  0.00  0.00     0.194 C 
BRANCH  18  19
HETATM   19  C           1     -35.042   0.648 -13.731  0.00  0.00     0.138 C 
BRANCH  19  20
HETATM   20  C           1     -35.577  -0.153 -14.894  0.00  0.00     0.217 C 
HETATM   21  N           1     -36.905  -0.083 -15.219  0.00  0.00    -0.370 N 
HETATM   22  H           1     -37.527   0.505 -14.680  0.00  0.00     0.159 HD
HETATM   23  H           1     -37.264  -0.620 -15.998  0.00  0.00     0.159 HD
HETATM   24  O           1     -34.834  -0.856 -15.536  0.00  0.00    -0.274 OA
ENDBRANCH  19  20
ENDBRANCH  18  19
BRANCH  18  25
HETATM   25  C           1     -36.328   0.049 -11.703  0.00  0.00     0.197 C 
HETATM   26  O           1     -36.270   0.468 -10.526  0.00  0.00    -0.646 OA
HETATM   27  O           1     -37.438  -0.154 -12.240  0.00  0.00    -0.646 OA
ENDBRANCH  18  25
ENDBRANCH   2  18
TORSDOF 8
ENDMDL
MODEL 2
REMARK VINA RESULT:      -6.6     11.898     13.566
REMARK  8 active torsions:
REMARK  status: ('A' for Active; 'I' for Inactive)
REMARK       I    between atoms: N_2  and  C_5 
REMARK    1  A    between atoms: C_5  and  C_12 
REMARK    2  A    between atoms: C_9  and  C_12 
REMARK    3  A    between atoms: C_9  and  C_10 
REMARK    4  A    between atoms: C_9  and  N_13 
REMARK       I    between atoms: N_13  and  C_14 
REMARK    5  A    between atoms: C_14  and  C_15 
REMARK    6  A    between atoms: C_15  and  C_16 
REMARK    7  A    between atoms: C_15  and  N_19 
REMARK    8  A    between atoms: C_16  and  C_17 
ROOT
HETATM    1  H           1     -24.203  -4.719  -8.474  0.00  0.00     0.163 HD
HETATM    2  N           1     -23.357  -4.247  -8.766  0.00  0.00    -0.344 N 
HETATM    3  C           1     -22.290  -4.166  -7.913  0.00  0.00     0.249 C 
HETATM    4  O           1     -21.279  -3.602  -8.260  0.00  0.00    -0.271 OA
ENDROOT
BRANCH   3   5
HETATM    5  C           1     -22.374  -4.783  -6.538  0.00  0.00     0.280 C 
BRANCH   5   6
HETATM    6  C           1     -21.492  -6.022  -6.481  0.00  0.00     0.101 C 
BRANCH   6   7
HETATM    7  C           1     -21.489  -6.570  -5.087  0.00  0.00     0.028 A 
HETATM    8  C           1     -21.611  -7.902  -4.771  0.00  0.00     0.114 A 
HETATM    9  N           1     -21.557  -7.948  -3.405  0.00  0.00    -0.360 N 
HETATM   10  C           1     -21.407  -6.666  -2.957  0.00  0.00     0.180 A 
HETATM   11  H           1     -21.620  -8.811  -2.810  0.00  0.00     0.166 HD
HETATM   12  N           1     -21.362  -5.811  -3.952  0.00  0.00    -0.355 N 
ATOM     13  HN          1     -21.256  -4.798  -3.892  1.00  0.00     0.166 HD
ENDBRANCH   6   7
ENDBRANCH   5   6
BRANCH   5  14
HETATM   14  N           1     -23.795  -5.168  -6.250  0.00  0.00    -0.066 N 
HETATM   15  H           1     -23.828  -6.158  -5.915  0.00  0.00     0.275 HD
HETATM   16  H           1     -24.184  -4.539  -5.512  0.00  0.00     0.275 HD
HETATM   17  H           1     -24.365  -5.077  -7.122  0.00  0.00     0.275 HD
ENDBRANCH   5  14
ENDBRANCH   3   5
BRANCH   2  18
HETATM   18  C           1     -23.275  -3.654 -10.087  0.00  0.00     0.194 C 
BRANCH  18  19
HETATM   19  C           1     -22.674  -4.659 -11.059  0.00  0.00     0.138 C 
BRANCH  19  20
HETATM   20  C           1     -21.607  -3.984 -11.887  0.00  0.00     0.217 C 
HETATM   21  N           1     -21.928  -3.438 -13.100  0.00  0.00    -0.370 N 
HETATM   22  H           1     -22.879  -3.488 -13.442  0.00  0.00     0.159 HD
HETATM   23  H           1     -21.213  -2.986 -13.656  0.00  0.00     0.159 HD
HETATM   24  O           1     -20.472  -3.927 -11.479  0.00  0.00    -0.274 OA
ENDBRANCH  19  20
ENDBRANCH  18  19
BRANCH  18  25
HETATM   25  C           1     -24.659  -3.271 -10.552  0.00  0.00     0.197 C 
HETATM   26  O           1     -25.579  -3.123  -9.718  0.00  0.00    -0.646 OA
HETATM   27  O           1     -24.886  -3.102 -11.769  0.00  0.00    -0.646 OA
ENDBRANCH  18  25
ENDBRANCH   2  18
TORSDOF 8
ENDMDL
MODEL 3
REMARK VINA RESULT:      -6.3      1.350      2.583
REMARK  8 active torsions:
REMARK  status: ('A' for Active; 'I' for Inactive)
REMARK       I    between atoms: N_2  and  C_5 
REMARK    1  A    between atoms: C_5  and  C_12 
REMARK    2  A    between atoms: C_9  and  C_12 
REMARK    3  A    between atoms: C_9  and  C_10 
REMARK    4  A    between atoms: C_9  and  N_13 
REMARK       I    between atoms: N_13  and  C_14 
REMARK    5  A    between atoms: C_14  and  C_15 
REMARK    6  A    between atoms: C_15  and  C_16 
REMARK    7  A    between atoms: C_15  and  N_19 
REMARK    8  A    between atoms: C_16  and  C_17 
ROOT
HETATM    1  H           1     -33.939  -2.270 -13.823  0.00  0.00     0.163 HD
HETATM    2  N           1     -34.729  -2.204 -13.193  0.00  0.00    -0.344 N 
HETATM    3  C           1     -35.006  -3.233 -12.334  0.00  0.00     0.249 C 
HETATM    4  O           1     -35.948  -3.157 -11.582  0.00  0.00    -0.271 OA
ENDROOT
BRANCH   3   5
HETATM    5  C           1     -34.132  -4.465 -12.325  0.00  0.00     0.280 C 
BRANCH   5   6
HETATM    6  C           1     -33.640  -4.729 -10.908  0.00  0.00     0.101 C 
BRANCH   6   7
HETATM    7  C           1     -34.063  -6.099 -10.480  0.00  0.00     0.028 A 
HETATM    8  C           1     -35.173  -6.371  -9.717  0.00  0.00     0.114 A 
HETATM    9  N           1     -35.176  -7.731  -9.568  0.00  0.00    -0.360 N 
HETATM   10  C           1     -34.088  -8.219 -10.234  0.00  0.00     0.180 A 
HETATM   11  H           1     -35.885  -8.295  -9.038  0.00  0.00     0.166 HD
HETATM   12  N           1     -33.396  -7.256 -10.795  0.00  0.00    -0.355 N 
ATOM     13  HN          1     -32.544  -7.348 -11.349  1.00  0.00     0.166 HD
ENDBRANCH   6   7
ENDBRANCH   5   6
BRANCH   5  14
HETATM   14  N           1     -32.956  -4.249 -13.230  0.00  0.00    -0.066 N 
HETATM   15  H           1     -32.630  -3.260 -13.150  0.00  0.00     0.275 HD
HETATM   16  H           1     -32.181  -4.894 -12.953  0.00  0.00     0.275 HD
HETATM   17  H           1     -33.237  -4.445 -14.218  0.00  0.00     0.275 HD
ENDBRANCH   5  14
ENDBRANCH   3   5
BRANCH   2  18
HETATM   18  C           1     -35.568  -1.022 -13.201  0.00  0.00     0.194 C 
BRANCH  18  19
HETATM   19  C           1     -35.162  -0.103 -12.058  0.00  0.00     0.138 C 
BRANCH  19  20
HETATM   20  C           1     -36.353   0.145 -11.163  0.00  0.00     0.217 C 
HETATM   21  N           1     -37.576  -0.371 -11.495  0.00  0.00    -0.370 N 
HETATM   22  H           1     -37.683  -0.917 -12.340  0.00  0.00     0.159 HD
HETATM   23  H           1     -38.375  -0.205 -10.896  0.00  0.00     0.159 HD
HETATM   24  O           1     -36.226   0.798 -10.155  0.00  0.00    -0.274 OA
ENDBRANCH  19  20
ENDBRANCH  18  19
BRANCH  18  25
HETATM   25  C           1     -35.400  -0.296 -14.514  0.00  0.00     0.197 C 
HETATM   26  O           1     -35.041  -0.925 -15.533  0.00  0.00    -0.646 OA
HETATM   27  O           1     -35.619   0.932 -14.582  0.00  0.00    -0.646 OA
ENDBRANCH  18  25
ENDBRANCH   2  18
TORSDOF 8
ENDMDL
MODEL 4
REMARK VINA RESULT:      -5.9     13.318     16.058
REMARK  8 active torsions:
REMARK  status: ('A' for Active; 'I' for Inactive)
REMARK       I    between atoms: N_2  and  C_5 
REMARK    1  A    between atoms: C_5  and  C_12 
REMARK    2  A    between atoms: C_9  and  C_12 
REMARK    3  A    between atoms: C_9  and  C_10 
REMARK    4  A    between atoms: C_9  and  N_13 
REMARK       I    between atoms: N_13  and  C_14 
REMARK    5  A    between atoms: C_14  and  C_15 
REMARK    6  A    between atoms: C_15  and  C_16 
REMARK    7  A    between atoms: C_15  and  N_19 
REMARK    8  A    between atoms: C_16  and  C_17 
ROOT
HETATM    1  H           1     -22.258  -6.172  -6.375  0.00  0.00     0.163 HD
HETATM    2  N           1     -21.414  -5.905  -5.882  0.00  0.00    -0.344 N 
HETATM    3  C           1     -20.646  -4.874  -6.351  0.00  0.00     0.249 C 
HETATM    4  O           1     -19.639  -4.555  -5.765  0.00  0.00    -0.271 OA
ENDROOT
BRANCH   3   5
HETATM    5  C           1     -21.058  -4.133  -7.600  0.00  0.00     0.280 C 
BRANCH   5   6
HETATM    6  C           1     -21.844  -5.067  -8.511  0.00  0.00     0.101 C 
BRANCH   6   7
HETATM    7  C           1     -22.922  -4.296  -9.206  0.00  0.00     0.028 A 
HETATM    8  C           1     -22.896  -3.941 -10.534  0.00  0.00     0.114 A 
HETATM    9  N           1     -24.062  -3.259 -10.742  0.00  0.00    -0.360 N 
HETATM   10  C           1     -24.736  -3.228  -9.554  0.00  0.00     0.180 A 
HETATM   11  H           1     -24.381  -2.836 -11.648  0.00  0.00     0.166 HD
HETATM   12  N           1     -24.071  -3.847  -8.607  0.00  0.00    -0.355 N 
ATOM     13  HN          1     -24.349  -3.969  -7.634  1.00  0.00     0.166 HD
ENDBRANCH   6   7
ENDBRANCH   5   6
BRANCH   5  14
HETATM   14  N           1     -19.834  -3.648  -8.320  0.00  0.00    -0.066 N 
HETATM   15  H           1     -19.079  -4.367  -8.248  0.00  0.00     0.275 HD
HETATM   16  H           1     -20.064  -3.485  -9.326  0.00  0.00     0.275 HD
HETATM   17  H           1     -19.506  -2.755  -7.886  0.00  0.00     0.275 HD
ENDBRANCH   5  14
ENDBRANCH   3   5
BRANCH   2  18
HETATM   18  C           1     -21.018  -6.617  -4.683  0.00  0.00     0.194 C 
BRANCH  18  19
HETATM   19  C           1     -22.230  -6.810  -3.783  0.00  0.00     0.138 C 
BRANCH  19  20
HETATM   20  C           1     -21.826  -6.614  -2.342  0.00  0.00     0.217 C 
HETATM   21  N           1     -21.136  -7.597  -1.686  0.00  0.00    -0.370 N 
HETATM   22  H           1     -20.898  -8.455  -2.166  0.00  0.00     0.159 HD
HETATM   23  H           1     -20.864  -7.466  -0.720  0.00  0.00     0.159 HD
HETATM   24  O           1     -22.110  -5.590  -1.769  0.00  0.00    -0.274 OA
ENDBRANCH  19  20
ENDBRANCH  18  19
BRANCH  18  25
HETATM   25  C           1     -20.453  -7.964  -5.062  0.00  0.00     0.197 C 
HETATM   26  O           1     -19.488  -8.439  -4.424  0.00  0.00    -0.646 OA
HETATM   27  O           1     -20.950  -8.606  -6.013  0.00  0.00    -0.646 OA
ENDBRANCH  18  25
ENDBRANCH   2  18
TORSDOF 8
ENDMDL
MODEL 5
REMARK VINA RESULT:      -5.8     14.018     16.593
REMARK  8 active torsions:
REMARK  status: ('A' for Active; 'I' for Inactive)
REMARK       I    between atoms: N_2  and  C_5 
REMARK    1  A    between atoms: C_5  and  C_12 
REMARK    2  A    between atoms: C_9  and  C_12 
REMARK    3  A    between atoms: C_9  and  C_10 
REMARK    4  A    between atoms: C_9  and  N_13 
REMARK       I    between atoms: N_13  and  C_14 
REMARK    5  A    between atoms: C_14  and  C_15 
REMARK    6  A    between atoms: C_15  and  C_16 
REMARK    7  A    between atoms: C_15  and  N_19 
REMARK    8  A    between atoms: C_16  and  C_17 
ROOT
HETATM    1  H           1     -22.393  -7.412  -5.539  0.00  0.00     0.163 HD
HETATM    2  N           1     -21.650  -6.819  -5.191  0.00  0.00    -0.344 N 
HETATM    3  C           1     -21.432  -5.593  -5.759  0.00  0.00     0.249 C 
HETATM    4  O           1     -20.545  -4.885  -5.346  0.00  0.00    -0.271 OA
ENDROOT
BRANCH   3   5
HETATM    5  C           1     -22.299  -5.125  -6.903  0.00  0.00     0.280 C 
BRANCH   5   6
HETATM    6  C           1     -21.714  -3.851  -7.497  0.00  0.00     0.101 C 
BRANCH   6   7
HETATM    7  C           1     -21.425  -4.065  -8.950  0.00  0.00     0.028 A 
HETATM    8  C           1     -22.368  -4.018  -9.949  0.00  0.00     0.114 A 
HETATM    9  N           1     -21.676  -4.265 -11.102  0.00  0.00    -0.360 N 
HETATM   10  C           1     -20.366  -4.449 -10.762  0.00  0.00     0.180 A 
HETATM   11  H           1     -22.079  -4.307 -12.071  0.00  0.00     0.166 HD
HETATM   12  N           1     -20.184  -4.334  -9.468  0.00  0.00    -0.355 N 
ATOM     13  HN          1     -19.306  -4.425  -8.956  1.00  0.00     0.166 HD
ENDBRANCH   6   7
ENDBRANCH   5   6
BRANCH   5  14
HETATM   14  N           1     -23.685  -4.849  -6.398  0.00  0.00    -0.066 N 
HETATM   15  H           1     -24.294  -4.552  -7.193  0.00  0.00     0.275 HD
HETATM   16  H           1     -24.076  -5.717  -5.966  0.00  0.00     0.275 HD
HETATM   17  H           1     -23.649  -4.088  -5.682  0.00  0.00     0.275 HD
ENDBRANCH   5  14
ENDBRANCH   3   5
BRANCH   2  18
HETATM   18  C           1     -20.816  -7.269  -4.093  0.00  0.00     0.194 C 
BRANCH  18  19
HETATM   19  C           1     -21.696  -7.829  -2.984  0.00  0.00     0.138 C 
BRANCH  19  20
HETATM   20  C           1     -22.022  -6.735  -1.997  0.00  0.00     0.217 C 
HETATM   21  N           1     -22.388  -7.056  -0.718  0.00  0.00    -0.370 N 
HETATM   22  H           1     -22.440  -8.025  -0.434  0.00  0.00     0.159 HD
HETATM   23  H           1     -22.607  -6.322  -0.055  0.00  0.00     0.159 HD
HETATM   24  O           1     -21.961  -5.578  -2.336  0.00  0.00    -0.274 OA
ENDBRANCH  19  20
ENDBRANCH  18  19
BRANCH  18  25
HETATM   25  C           1     -19.878  -8.344  -4.583  0.00  0.00     0.197 C 
HETATM   26  O           1     -19.436  -8.301  -5.752  0.00  0.00    -0.646 OA
HETATM   27  O           1     -19.543  -9.277  -3.822  0.00  0.00    -0.646 OA
ENDBRANCH  18  25
ENDBRANCH   2  18
TORSDOF 8
ENDMDL
MODEL 6
REMARK VINA RESULT:      -5.7     15.170     17.928
REMARK  8 active torsions:
REMARK  status: ('A' for Active; 'I' for Inactive)
REMARK       I    between atoms: N_2  and  C_5 
REMARK    1  A    between atoms: C_5  and  C_12 
REMARK    2  A    between atoms: C_9  and  C_12 
REMARK    3  A    between atoms: C_9  and  C_10 
REMARK    4  A    between atoms: C_9  and  N_13 
REMARK       I    between atoms: N_13  and  C_14 
REMARK    5  A    between atoms: C_14  and  C_15 
REMARK    6  A    between atoms: C_15  and  C_16 
REMARK    7  A    between atoms: C_15  and  N_19 
REMARK    8  A    between atoms: C_16  and  C_17 
ROOT
HETATM    1  H           1     -22.199  -8.102  -2.708  0.00  0.00     0.163 HD
HETATM    2  N           1     -21.304  -8.536  -2.520  0.00  0.00    -0.344 N 
HETATM    3  C           1     -20.281  -8.409  -3.421  0.00  0.00     0.249 C 
HETATM    4  O           1     -19.212  -8.926  -3.199  0.00  0.00    -0.271 OA
ENDROOT
BRANCH   3   5
HETATM    5  C           1     -20.487  -7.620  -4.692  0.00  0.00     0.280 C 
BRANCH   5   6
HETATM    6  C           1     -21.385  -6.423  -4.408  0.00  0.00     0.101 C 
BRANCH   6   7
HETATM    7  C           1     -21.324  -5.470  -5.561  0.00  0.00     0.028 A 
HETATM    8  C           1     -20.189  -4.814  -5.974  0.00  0.00     0.114 A 
HETATM    9  N           1     -20.585  -4.059  -7.043  0.00  0.00    -0.360 N 
HETATM   10  C           1     -21.919  -4.283  -7.231  0.00  0.00     0.180 A 
HETATM   11  H           1     -19.975  -3.423  -7.613  0.00  0.00     0.166 HD
HETATM   12  N           1     -22.394  -5.132  -6.350  0.00  0.00    -0.355 N 
ATOM     13  HN          1     -23.353  -5.468  -6.270  1.00  0.00     0.166 HD
ENDBRANCH   6   7
ENDBRANCH   5   6
BRANCH   5  14
HETATM   14  N           1     -21.134  -8.496  -5.723  0.00  0.00    -0.066 N 
HETATM   15  H           1     -20.493  -8.604  -6.542  0.00  0.00     0.275 HD
HETATM   16  H           1     -21.329  -9.435  -5.309  0.00  0.00     0.275 HD
HETATM   17  H           1     -22.030  -8.060  -6.038  0.00  0.00     0.275 HD
ENDBRANCH   5  14
ENDBRANCH   3   5
BRANCH   2  18
HETATM   18  C           1     -21.105  -9.294  -1.300  0.00  0.00     0.194 C 
BRANCH  18  19
HETATM   19  C           1     -21.230  -8.365  -0.100  0.00  0.00     0.138 C 
BRANCH  19  20
HETATM   20  C           1     -22.543  -7.625  -0.170  0.00  0.00     0.217 C 
HETATM   21  N           1     -23.594  -8.021   0.613  0.00  0.00    -0.370 N 
HETATM   22  H           1     -23.490  -8.811   1.237  0.00  0.00     0.159 HD
HETATM   23  H           1     -24.475  -7.526   0.566  0.00  0.00     0.159 HD
HETATM   24  O           1     -22.668  -6.683  -0.916  0.00  0.00    -0.274 OA
ENDBRANCH  19  20
ENDBRANCH  18  19
BRANCH  18  25
HETATM   25  C           1     -22.150 -10.379  -1.207  0.00  0.00     0.197 C 
HETATM   26  O           1     -22.791 -10.717  -2.226  0.00  0.00    -0.646 OA
HETATM   27  O           1     -22.375 -10.939  -0.113  0.00  0.00    -0.646 OA
ENDBRANCH  18  25
ENDBRANCH   2  18
TORSDOF 8
ENDMDL
MODEL 7
REMARK VINA RESULT:      -5.6     11.921     14.260
REMARK  8 active torsions:
REMARK  status: ('A' for Active; 'I' for Inactive)
REMARK       I    between atoms: N_2  and  C_5 
REMARK    1  A    between atoms: C_5  and  C_12 
REMARK    2  A    between atoms: C_9  and  C_12 
REMARK    3  A    between atoms: C_9  and  C_10 
REMARK    4  A    between atoms: C_9  and  N_13 
REMARK       I    between atoms: N_13  and  C_14 
REMARK    5  A    between atoms: C_14  and  C_15 
REMARK    6  A    between atoms: C_15  and  C_16 
REMARK    7  A    between atoms: C_15  and  N_19 
REMARK    8  A    between atoms: C_16  and  C_17 
ROOT
HETATM    1  H           1     -23.685  -3.779  -7.303  0.00  0.00     0.163 HD
HETATM    2  N           1     -23.020  -4.388  -7.764  0.00  0.00    -0.344 N 
HETATM    3  C           1     -23.013  -4.482  -9.130  0.00  0.00     0.249 C 
HETATM    4  O           1     -22.221  -5.209  -9.681  0.00  0.00    -0.271 OA
ENDROOT
BRANCH   3   5
HETATM    5  C           1     -23.995  -3.678  -9.948  0.00  0.00     0.280 C 
BRANCH   5   6
HETATM    6  C           1     -23.248  -2.604 -10.727  0.00  0.00     0.101 C 
BRANCH   6   7
HETATM    7  C           1     -23.365  -2.879 -12.194  0.00  0.00     0.028 A 
HETATM    8  C           1     -23.744  -4.084 -12.735  0.00  0.00     0.114 A 
HETATM    9  N           1     -23.717  -3.889 -14.088  0.00  0.00    -0.360 N 
HETATM   10  C           1     -23.330  -2.598 -14.309  0.00  0.00     0.180 A 
HETATM   11  H           1     -23.951  -4.602 -14.823  0.00  0.00     0.166 HD
HETATM   12  N           1     -23.110  -1.962 -13.182  0.00  0.00    -0.355 N 
ATOM     13  HN          1     -22.813  -0.993 -13.066  1.00  0.00     0.166 HD
ENDBRANCH   6   7
ENDBRANCH   5   6
BRANCH   5  14
HETATM   14  N           1     -24.992  -3.029  -9.034  0.00  0.00    -0.066 N 
HETATM   15  H           1     -25.581  -3.765  -8.581  0.00  0.00     0.275 HD
HETATM   16  H           1     -24.488  -2.486  -8.298  0.00  0.00     0.275 HD
HETATM   17  H           1     -25.603  -2.385  -9.587  0.00  0.00     0.275 HD
ENDBRANCH   5  14
ENDBRANCH   3   5
BRANCH   2  18
HETATM   18  C           1     -22.077  -5.161  -6.979  0.00  0.00     0.194 C 
BRANCH  18  19
HETATM   19  C           1     -20.877  -4.293  -6.629  0.00  0.00     0.138 C 
BRANCH  19  20
HETATM   20  C           1     -19.609  -4.988  -7.061  0.00  0.00     0.217 C 
HETATM   21  N           1     -19.505  -6.349  -6.955  0.00  0.00    -0.370 N 
HETATM   22  H           1     -20.278  -6.888  -6.586  0.00  0.00     0.159 HD
HETATM   23  H           1     -18.655  -6.816  -7.244  0.00  0.00     0.159 HD
HETATM   24  O           1     -18.686  -4.345  -7.500  0.00  0.00    -0.274 OA
ENDBRANCH  19  20
ENDBRANCH  18  19
BRANCH  18  25
HETATM   25  C           1     -22.747  -5.630  -5.710  0.00  0.00     0.197 C 
HETATM   26  O           1     -23.994  -5.613  -5.620  0.00  0.00    -0.646 OA
HETATM   27  O           1     -22.055  -6.035  -4.752  0.00  0.00    -0.646 OA
ENDBRANCH  18  25
ENDBRANCH   2  18
TORSDOF 8
ENDMDL
MODEL 8
REMARK VINA RESULT:      -5.4     13.893     15.917
REMARK  8 active torsions:
REMARK  status: ('A' for Active; 'I' for Inactive)
REMARK       I    between atoms: N_2  and  C_5 
REMARK    1  A    between atoms: C_5  and  C_12 
REMARK    2  A    between atoms: C_9  and  C_12 
REMARK    3  A    between atoms: C_9  and  C_10 
REMARK    4  A    between atoms: C_9  and  N_13 
REMARK       I    between atoms: N_13  and  C_14 
REMARK    5  A    between atoms: C_14  and  C_15 
REMARK    6  A    between atoms: C_15  and  C_16 
REMARK    7  A    between atoms: C_15  and  N_19 
REMARK    8  A    between atoms: C_16  and  C_17 
ROOT
HETATM    1  H           1     -21.852  -5.116  -4.928  0.00  0.00     0.163 HD
HETATM    2  N           1     -21.603  -5.722  -5.700  0.00  0.00    -0.344 N 
HETATM    3  C           1     -21.528  -7.076  -5.510  0.00  0.00     0.249 C 
HETATM    4  O           1     -21.230  -7.800  -6.429  0.00  0.00    -0.271 OA
ENDROOT
BRANCH   3   5
HETATM    5  C           1     -21.817  -7.664  -4.150  0.00  0.00     0.280 C 
BRANCH   5   6
HETATM    6  C           1     -20.937  -6.992  -3.106  0.00  0.00     0.101 C 
BRANCH   6   7
HETATM    7  C           1     -21.397  -7.384  -1.737  0.00  0.00     0.028 A 
HETATM    8  C           1     -20.798  -8.344  -0.956  0.00  0.00     0.114 A 
HETATM    9  N           1     -21.534  -8.374   0.196  0.00  0.00    -0.360 N 
HETATM   10  C           1     -22.532  -7.450   0.069  0.00  0.00     0.180 A 
HETATM   11  H           1     -21.364  -8.995   1.025  0.00  0.00     0.166 HD
HETATM   12  N           1     -22.474  -6.835  -1.089  0.00  0.00    -0.355 N 
ATOM     13  HN          1     -23.097  -6.105  -1.433  1.00  0.00     0.166 HD
ENDBRANCH   6   7
ENDBRANCH   5   6
BRANCH   5  14
HETATM   14  N           1     -21.530  -9.137  -4.172  0.00  0.00    -0.066 N 
HETATM   15  H           1     -21.561  -9.513  -3.198  0.00  0.00     0.275 HD
HETATM   16  H           1     -22.248  -9.622  -4.756  0.00  0.00     0.275 HD
HETATM   17  H           1     -20.580  -9.300  -4.578  0.00  0.00     0.275 HD
ENDBRANCH   5  14
ENDBRANCH   3   5
BRANCH   2  18
HETATM   18  C           1     -21.324  -5.157  -7.006  0.00  0.00     0.194 C 
BRANCH  18  19
HETATM   19  C           1     -22.258  -3.983  -7.261  0.00  0.00     0.138 C 
BRANCH  19  20
HETATM   20  C           1     -22.992  -4.197  -8.563  0.00  0.00     0.217 C 
HETATM   21  N           1     -24.231  -3.644  -8.747  0.00  0.00    -0.370 N 
HETATM   22  H           1     -24.654  -3.093  -8.011  0.00  0.00     0.159 HD
HETATM   23  H           1     -24.724  -3.786  -9.620  0.00  0.00     0.159 HD
HETATM   24  O           1     -22.488  -4.854  -9.441  0.00  0.00    -0.274 OA
ENDBRANCH  19  20
ENDBRANCH  18  19
BRANCH  18  25
HETATM   25  C           1     -19.893  -4.680  -7.051  0.00  0.00     0.197 C 
HETATM   26  O           1     -19.368  -4.382  -8.146  0.00  0.00    -0.646 OA
HETATM   27  O           1     -19.232  -4.582  -5.994  0.00  0.00    -0.646 OA
ENDBRANCH  18  25
ENDBRANCH   2  18
TORSDOF 8
ENDMDL
MODEL 9
REMARK VINA RESULT:      -5.4     13.706     16.423
REMARK  8 active torsions:
REMARK  status: ('A' for Active; 'I' for Inactive)
REMARK       I    between atoms: N_2  and  C_5 
REMARK    1  A    between atoms: C_5  and  C_12 
REMARK    2  A    between atoms: C_9  and  C_12 
REMARK    3  A    between atoms: C_9  and  C_10 
REMARK    4  A    between atoms: C_9  and  N_13 
REMARK       I    between atoms: N_13  and  C_14 
REMARK    5  A    between atoms: C_14  and  C_15 
REMARK    6  A    between atoms: C_15  and  C_16 
REMARK    7  A    between atoms: C_15  and  N_19 
REMARK    8  A    between atoms: C_16  and  C_17 
ROOT
HETATM    1  H           1     -20.400  -5.301  -4.486  0.00  0.00     0.163 HD
HETATM    2  N           1     -20.728  -6.124  -4.976  0.00  0.00    -0.344 N 
HETATM    3  C           1     -20.884  -6.093  -6.336  0.00  0.00     0.249 C 
HETATM    4  O           1     -21.276  -7.073  -6.922  0.00  0.00    -0.271 OA
ENDROOT
BRANCH   3   5
HETATM    5  C           1     -20.566  -4.833  -7.104  0.00  0.00     0.280 C 
BRANCH   5   6
HETATM    6  C           1     -20.894  -5.038  -8.577  0.00  0.00     0.101 C 
BRANCH   6   7
HETATM    7  C           1     -22.221  -4.418  -8.884  0.00  0.00     0.028 A 
HETATM    8  C           1     -23.214  -4.199  -7.959  0.00  0.00     0.114 A 
HETATM    9  N           1     -24.234  -3.622  -8.663  0.00  0.00    -0.360 N 
HETATM   10  C           1     -23.826  -3.517  -9.963  0.00  0.00     0.180 A 
HETATM   11  H           1     -25.161  -3.317  -8.276  0.00  0.00     0.166 HD
HETATM   12  N           1     -22.613  -3.989 -10.126  0.00  0.00    -0.355 N 
ATOM     13  HN          1     -22.077  -4.029 -10.992  1.00  0.00     0.166 HD
ENDBRANCH   6   7
ENDBRANCH   5   6
BRANCH   5  14
HETATM   14  N           1     -19.107  -4.513  -6.957  0.00  0.00    -0.066 N 
HETATM   15  H           1     -18.620  -4.680  -7.866  0.00  0.00     0.275 HD
HETATM   16  H           1     -18.997  -3.511  -6.681  0.00  0.00     0.275 HD
HETATM   17  H           1     -18.689  -5.127  -6.220  0.00  0.00     0.275 HD
ENDBRANCH   5  14
ENDBRANCH   3   5
BRANCH   2  18
HETATM   18  C           1     -21.035  -7.335  -4.239  0.00  0.00     0.194 C 
BRANCH  18  19
HETATM   19  C           1     -19.774  -8.176  -4.098  0.00  0.00     0.138 C 
BRANCH  19  20
HETATM   20  C           1     -19.980  -9.510  -4.772  0.00  0.00     0.217 C 
HETATM   21  N           1     -21.025  -9.684  -5.640  0.00  0.00    -0.370 N 
HETATM   22  H           1     -21.659  -8.918  -5.827  0.00  0.00     0.159 HD
HETATM   23  H           1     -21.163 -10.578  -6.092  0.00  0.00     0.159 HD
HETATM   24  O           1     -19.223 -10.424  -4.548  0.00  0.00    -0.274 OA
ENDBRANCH  19  20
ENDBRANCH  18  19
BRANCH  18  25
HETATM   25  C           1     -21.552  -6.970  -2.869  0.00  0.00     0.197 C 
HETATM   26  O           1     -21.169  -7.611  -1.866  0.00  0.00    -0.646 OA
HETATM   27  O           1     -22.364  -6.029  -2.737  0.00  0.00    -0.646 OA
ENDBRANCH  18  25
ENDBRANCH   2  18
TORSDOF 8
ENDMDL
