MODEL 1
REMARK VINA RESULT:      -5.4      0.000      0.000
REMARK  9 active torsions:
REMARK  status: ('A' for Active; 'I' for Inactive)
REMARK    1  A    between atoms: N_2  and  C_5 
REMARK    2  A    between atoms: C_5  and  C_8 
REMARK    3  A    between atoms: C_5  and  C_12 
REMARK    4  A    between atoms: N_6  and  C_7 
REMARK       I    between atoms: N_6  and  C_8 
REMARK    5  A    between atoms: C_7  and  C_16 
REMARK    6  A    between atoms: C_7  and  C_13 
REMARK    7  A    between atoms: S_11  and  C_14 
REMARK    8  A    between atoms: C_12  and  C_14 
REMARK    9  A    between atoms: Se_15  and  C_16 
ROOT
HETATM    1  H           1     -35.927  -2.469 -12.989  0.00  0.00     0.163 HD
HETATM    2  O           1     -33.682  -1.791 -10.907  0.00  0.00    -0.271 OA
HETATM    3  N           1     -35.383  -1.906 -12.348  0.00  0.00    -0.345 N 
HETATM    4  C           1     -34.332  -2.463 -11.671  0.00  0.00     0.249 C 
ENDROOT
BRANCH   4   5
HETATM    5  C           1     -33.985  -3.917 -11.879  0.00  0.00     0.275 C 
BRANCH   5   6
HETATM    6  N           1     -32.504  -4.054 -12.070  0.00  0.00    -0.066 N 
HETATM    7  H           1     -32.119  -3.164 -12.460  0.00  0.00     0.275 HD
HETATM    8  H           1     -32.052  -4.254 -11.149  0.00  0.00     0.275 HD
HETATM    9  H           1     -32.309  -4.839 -12.731  0.00  0.00     0.275 HD
ENDBRANCH   5   6
BRANCH   5  10
HETATM   10  C           1     -34.416  -4.723 -10.661  0.00  0.00     0.053 C 
BRANCH  10  11
HETATM   11  C           1     -33.896  -6.149 -10.785  0.00  0.00     0.076 C 
BRANCH  11  12
HETATM   12  S           1     -34.972  -7.269  -9.846  0.00  0.00    -0.173 SA
HETATM   13  C           1     -33.871  -8.710  -9.918  0.00  0.00     0.089 C 
ENDBRANCH  11  12
ENDBRANCH  10  11
ENDBRANCH   5  10
ENDBRANCH   4   5
BRANCH   3  14
HETATM   14  C           1     -35.716  -0.509 -12.148  0.00  0.00     0.185 C 
BRANCH  14  15
HETATM   15  C           1     -36.363   0.044 -13.412  0.00  0.00     0.039 C 
BRANCH  15  16
HETATM   16 Se           1     -34.997   0.857 -14.540  0.00  0.00     0.000 Se
HETATM   17  H           1     -35.959   1.593 -15.374  0.00  0.00     0.000 HD
ENDBRANCH  15  16
ENDBRANCH  14  15
BRANCH  14  18
HETATM   18  C           1     -36.678  -0.383 -10.993  0.00  0.00     0.196 C 
HETATM   19  O           1     -36.454   0.442 -10.080  0.00  0.00    -0.646 OA
HETATM   20  O           1     -37.699  -1.102 -10.948  0.00  0.00    -0.646 OA
ENDBRANCH  14  18
ENDBRANCH   3  14
TORSDOF 9
ENDMDL
MODEL 2
REMARK VINA RESULT:      -5.4     12.528     13.833
REMARK  9 active torsions:
REMARK  status: ('A' for Active; 'I' for Inactive)
REMARK    1  A    between atoms: N_2  and  C_5 
REMARK    2  A    between atoms: C_5  and  C_8 
REMARK    3  A    between atoms: C_5  and  C_12 
REMARK    4  A    between atoms: N_6  and  C_7 
REMARK       I    between atoms: N_6  and  C_8 
REMARK    5  A    between atoms: C_7  and  C_16 
REMARK    6  A    between atoms: C_7  and  C_13 
REMARK    7  A    between atoms: S_11  and  C_14 
REMARK    8  A    between atoms: C_12  and  C_14 
REMARK    9  A    between atoms: Se_15  and  C_16 
ROOT
HETATM    1  H           1     -22.275  -5.679  -9.357  0.00  0.00     0.163 HD
HETATM    2  O           1     -21.749  -3.612  -7.058  0.00  0.00    -0.271 OA
HETATM    3  N           1     -22.274  -4.785  -8.883  0.00  0.00    -0.345 N 
HETATM    4  C           1     -21.751  -4.680  -7.623  0.00  0.00     0.249 C 
ENDROOT
BRANCH   4   5
HETATM    5  C           1     -21.178  -5.896  -6.939  0.00  0.00     0.275 C 
BRANCH   5   6
HETATM    6  N           1     -19.800  -6.163  -7.468  0.00  0.00    -0.066 N 
HETATM    7  H           1     -19.123  -6.201  -6.673  0.00  0.00     0.275 HD
HETATM    8  H           1     -19.793  -7.077  -7.975  0.00  0.00     0.275 HD
HETATM    9  H           1     -19.525  -5.398  -8.125  0.00  0.00     0.275 HD
ENDBRANCH   5   6
BRANCH   5  10
HETATM   10  C           1     -21.105  -5.649  -5.438  0.00  0.00     0.053 C 
BRANCH  10  11
HETATM   11  C           1     -22.115  -6.540  -4.726  0.00  0.00     0.076 C 
BRANCH  11  12
HETATM   12  S           1     -21.337  -7.297  -3.272  0.00  0.00    -0.173 SA
HETATM   13  C           1     -22.127  -6.222  -2.041  0.00  0.00     0.089 C 
ENDBRANCH  11  12
ENDBRANCH  10  11
ENDBRANCH   5  10
ENDBRANCH   4   5
BRANCH   3  14
HETATM   14  C           1     -22.825  -3.616  -9.541  0.00  0.00     0.185 C 
BRANCH  14  15
HETATM   15  C           1     -22.191  -3.463 -10.917  0.00  0.00     0.039 C 
BRANCH  15  16
HETATM   16 Se           1     -20.409  -4.252 -10.904  0.00  0.00     0.000 Se
HETATM   17  H           1     -20.897  -5.640 -10.954  0.00  0.00     0.000 HD
ENDBRANCH  15  16
ENDBRANCH  14  15
BRANCH  14  18
HETATM   18  C           1     -24.317  -3.781  -9.689  0.00  0.00     0.196 C 
HETATM   19  O           1     -25.073  -2.795  -9.543  0.00  0.00    -0.646 OA
HETATM   20  O           1     -24.799  -4.902  -9.959  0.00  0.00    -0.646 OA
ENDBRANCH  14  18
ENDBRANCH   3  14
TORSDOF 9
ENDMDL
MODEL 3
REMARK VINA RESULT:      -4.9      4.836      5.974
REMARK  9 active torsions:
REMARK  status: ('A' for Active; 'I' for Inactive)
REMARK    1  A    between atoms: N_2  and  C_5 
REMARK    2  A    between atoms: C_5  and  C_8 
REMARK    3  A    between atoms: C_5  and  C_12 
REMARK    4  A    between atoms: N_6  and  C_7 
REMARK       I    between atoms: N_6  and  C_8 
REMARK    5  A    between atoms: C_7  and  C_16 
REMARK    6  A    between atoms: C_7  and  C_13 
REMARK    7  A    between atoms: S_11  and  C_14 
REMARK    8  A    between atoms: C_12  and  C_14 
REMARK    9  A    between atoms: Se_15  and  C_16 
ROOT
HETATM    1  H           1     -32.488  -3.599 -14.360  0.00  0.00     0.163 HD
HETATM    2  O           1     -35.017  -5.035 -15.535  0.00  0.00    -0.271 OA
HETATM    3  N           1     -33.409  -4.020 -14.366  0.00  0.00    -0.345 N 
HETATM    4  C           1     -33.919  -4.532 -15.528  0.00  0.00     0.249 C 
ENDROOT
BRANCH   4   5
HETATM    5  C           1     -33.110  -4.469 -16.801  0.00  0.00     0.275 C 
BRANCH   5   6
HETATM    6  N           1     -33.223  -3.096 -17.396  0.00  0.00    -0.066 N 
HETATM    7  H           1     -33.768  -3.145 -18.286  0.00  0.00     0.275 HD
HETATM    8  H           1     -33.713  -2.464 -16.723  0.00  0.00     0.275 HD
HETATM    9  H           1     -32.267  -2.722 -17.592  0.00  0.00     0.275 HD
ENDBRANCH   5   6
BRANCH   5  10
HETATM   10  C           1     -31.650  -4.769 -16.492  0.00  0.00     0.053 C 
BRANCH  10  11
HETATM   11  C           1     -31.244  -6.071 -17.170  0.00  0.00     0.076 C 
BRANCH  11  12
HETATM   12  S           1     -29.556  -6.513 -16.671  0.00  0.00    -0.173 SA
HETATM   13  C           1     -28.839  -6.475 -18.338  0.00  0.00     0.089 C 
ENDBRANCH  11  12
ENDBRANCH  10  11
ENDBRANCH   5  10
ENDBRANCH   4   5
BRANCH   3  14
HETATM   14  C           1     -34.185  -4.081 -13.144  0.00  0.00     0.185 C 
BRANCH  14  15
HETATM   15  C           1     -33.257  -4.351 -11.966  0.00  0.00     0.039 C 
BRANCH  15  16
HETATM   16 Se           1     -33.996  -5.785 -10.873  0.00  0.00     0.000 Se
HETATM   17  H           1     -33.840  -5.056  -9.604  0.00  0.00     0.000 HD
ENDBRANCH  15  16
ENDBRANCH  14  15
BRANCH  14  18
HETATM   18  C           1     -34.895  -2.766 -12.934  0.00  0.00     0.196 C 
HETATM   19  O           1     -34.771  -1.848 -13.774  0.00  0.00    -0.646 OA
HETATM   20  O           1     -35.607  -2.594 -11.922  0.00  0.00    -0.646 OA
ENDBRANCH  14  18
ENDBRANCH   3  14
TORSDOF 9
ENDMDL
MODEL 4
REMARK VINA RESULT:      -4.8     13.752     15.985
REMARK  9 active torsions:
REMARK  status: ('A' for Active; 'I' for Inactive)
REMARK    1  A    between atoms: N_2  and  C_5 
REMARK    2  A    between atoms: C_5  and  C_8 
REMARK    3  A    between atoms: C_5  and  C_12 
REMARK    4  A    between atoms: N_6  and  C_7 
REMARK       I    between atoms: N_6  and  C_8 
REMARK    5  A    between atoms: C_7  and  C_16 
REMARK    6  A    between atoms: C_7  and  C_13 
REMARK    7  A    between atoms: S_11  and  C_14 
REMARK    8  A    between atoms: C_12  and  C_14 
REMARK    9  A    between atoms: Se_15  and  C_16 
ROOT
HETATM    1  H           1     -19.898  -6.792  -4.884  0.00  0.00     0.163 HD
HETATM    2  O           1     -22.711  -5.651  -5.675  0.00  0.00    -0.271 OA
HETATM    3  N           1     -20.904  -6.682  -4.864  0.00  0.00    -0.345 N 
HETATM    4  C           1     -21.510  -5.782  -5.698  0.00  0.00     0.249 C 
ENDROOT
BRANCH   4   5
HETATM    5  C           1     -20.680  -4.954  -6.648  0.00  0.00     0.275 C 
BRANCH   5   6
HETATM    6  N           1     -20.114  -5.840  -7.718  0.00  0.00    -0.066 N 
HETATM    7  H           1     -20.115  -6.831  -7.387  0.00  0.00     0.275 HD
HETATM    8  H           1     -20.698  -5.761  -8.581  0.00  0.00     0.275 HD
HETATM    9  H           1     -19.134  -5.545  -7.932  0.00  0.00     0.275 HD
ENDBRANCH   5   6
BRANCH   5  10
HETATM   10  C           1     -21.554  -3.883  -7.287  0.00  0.00     0.053 C 
BRANCH  10  11
HETATM   11  C           1     -21.844  -4.261  -8.734  0.00  0.00     0.076 C 
BRANCH  11  12
HETATM   12  S           1     -23.578  -3.887  -9.122  0.00  0.00    -0.173 SA
HETATM   13  C           1     -23.704  -4.992 -10.557  0.00  0.00     0.089 C 
ENDBRANCH  11  12
ENDBRANCH  10  11
ENDBRANCH   5  10
ENDBRANCH   4   5
BRANCH   3  14
HETATM   14  C           1     -21.701  -7.477  -3.952  0.00  0.00     0.185 C 
BRANCH  14  15
HETATM   15  C           1     -21.187  -8.911  -3.946  0.00  0.00     0.039 C 
BRANCH  15  16
HETATM   16 Se           1     -19.429  -8.973  -4.786  0.00  0.00     0.000 Se
HETATM   17  H           1     -18.829  -7.988  -3.872  0.00  0.00     0.000 HD
ENDBRANCH  15  16
ENDBRANCH  14  15
BRANCH  14  18
HETATM   18  C           1     -21.599  -6.900  -2.561  0.00  0.00     0.196 C 
HETATM   19  O           1     -22.302  -5.918  -2.239  0.00  0.00    -0.646 OA
HETATM   20  O           1     -20.812  -7.404  -1.732  0.00  0.00    -0.646 OA
ENDBRANCH  14  18
ENDBRANCH   3  14
TORSDOF 9
ENDMDL
MODEL 5
REMARK VINA RESULT:      -4.6     14.670     16.217
REMARK  9 active torsions:
REMARK  status: ('A' for Active; 'I' for Inactive)
REMARK    1  A    between atoms: N_2  and  C_5 
REMARK    2  A    between atoms: C_5  and  C_8 
REMARK    3  A    between atoms: C_5  and  C_12 
REMARK    4  A    between atoms: N_6  and  C_7 
REMARK       I    between atoms: N_6  and  C_8 
REMARK    5  A    between atoms: C_7  and  C_16 
REMARK    6  A    between atoms: C_7  and  C_13 
REMARK    7  A    between atoms: S_11  and  C_14 
REMARK    8  A    between atoms: C_12  and  C_14 
REMARK    9  A    between atoms: Se_15  and  C_16 
ROOT
HETATM    1  H           1     -21.457  -4.693  -4.492  0.00  0.00     0.163 HD
HETATM    2  O           1     -21.427  -7.810  -4.843  0.00  0.00    -0.271 OA
HETATM    3  N           1     -21.466  -5.581  -4.977  0.00  0.00    -0.345 N 
HETATM    4  C           1     -21.415  -6.749  -4.265  0.00  0.00     0.249 C 
ENDROOT
BRANCH   4   5
HETATM    5  C           1     -21.342  -6.712  -2.758  0.00  0.00     0.275 C 
BRANCH   5   6
HETATM    6  N           1     -22.466  -5.874  -2.225  0.00  0.00    -0.066 N 
HETATM    7  H           1     -22.094  -5.205  -1.513  0.00  0.00     0.275 HD
HETATM    8  H           1     -22.903  -5.339  -3.009  0.00  0.00     0.275 HD
HETATM    9  H           1     -23.182  -6.492  -1.782  0.00  0.00     0.275 HD
ENDBRANCH   5   6
BRANCH   5  10
HETATM   10  C           1     -21.462  -8.128  -2.208  0.00  0.00     0.053 C 
BRANCH  10  11
HETATM   11  C           1     -20.844  -8.186  -0.817  0.00  0.00     0.076 C 
BRANCH  11  12
HETATM   12  S           1     -21.819  -9.301   0.232  0.00  0.00    -0.173 SA
HETATM   13  C           1     -23.184  -8.144   0.537  0.00  0.00     0.089 C 
ENDBRANCH  11  12
ENDBRANCH  10  11
ENDBRANCH   5  10
ENDBRANCH   4   5
BRANCH   3  14
HETATM   14  C           1     -21.536  -5.617  -6.425  0.00  0.00     0.185 C 
BRANCH  14  15
HETATM   15  C           1     -22.378  -4.448  -6.920  0.00  0.00     0.039 C 
BRANCH  15  16
HETATM   16 Se           1     -22.387  -4.434  -8.869  0.00  0.00     0.000 Se
HETATM   17  H           1     -21.436  -5.550  -8.998  0.00  0.00     0.000 HD
ENDBRANCH  15  16
ENDBRANCH  14  15
BRANCH  14  18
HETATM   18  C           1     -20.144  -5.513  -6.996  0.00  0.00     0.196 C 
HETATM   19  O           1     -19.476  -4.469  -6.829  0.00  0.00    -0.646 OA
HETATM   20  O           1     -19.658  -6.470  -7.636  0.00  0.00    -0.646 OA
ENDBRANCH  14  18
ENDBRANCH   3  14
TORSDOF 9
ENDMDL
MODEL 6
REMARK VINA RESULT:      -4.5     13.675     15.927
REMARK  9 active torsions:
REMARK  status: ('A' for Active; 'I' for Inactive)
REMARK    1  A    between atoms: N_2  and  C_5 
REMARK    2  A    between atoms: C_5  and  C_8 
REMARK    3  A    between atoms: C_5  and  C_12 
REMARK    4  A    between atoms: N_6  and  C_7 
REMARK       I    between atoms: N_6  and  C_8 
REMARK    5  A    between atoms: C_7  and  C_16 
REMARK    6  A    between atoms: C_7  and  C_13 
REMARK    7  A    between atoms: S_11  and  C_14 
REMARK    8  A    between atoms: C_12  and  C_14 
REMARK    9  A    between atoms: Se_15  and  C_16 
ROOT
HETATM    1  H           1     -21.297  -6.710  -7.149  0.00  0.00     0.163 HD
HETATM    2  O           1     -20.041  -4.433  -5.395  0.00  0.00    -0.271 OA
HETATM    3  N           1     -20.887  -6.274  -6.333  0.00  0.00    -0.345 N 
HETATM    4  C           1     -20.530  -4.953  -6.370  0.00  0.00     0.249 C 
ENDROOT
BRANCH   4   5
HETATM    5  C           1     -20.748  -4.147  -7.626  0.00  0.00     0.275 C 
BRANCH   5   6
HETATM    6  N           1     -20.099  -4.843  -8.785  0.00  0.00    -0.066 N 
HETATM    7  H           1     -20.017  -5.864  -8.577  0.00  0.00     0.275 HD
HETATM    8  H           1     -20.681  -4.709  -9.642  0.00  0.00     0.275 HD
HETATM    9  H           1     -19.147  -4.442  -8.944  0.00  0.00     0.275 HD
ENDBRANCH   5   6
BRANCH   5  10
HETATM   10  C           1     -22.242  -4.009  -7.890  0.00  0.00     0.053 C 
BRANCH  10  11
HETATM   11  C           1     -22.473  -3.742  -9.372  0.00  0.00     0.076 C 
BRANCH  11  12
HETATM   12  S           1     -24.256  -3.630  -9.695  0.00  0.00    -0.173 SA
HETATM   13  C           1     -24.113  -3.222 -11.458  0.00  0.00     0.089 C 
ENDBRANCH  11  12
ENDBRANCH  10  11
ENDBRANCH   5  10
ENDBRANCH   4   5
BRANCH   3  14
HETATM   14  C           1     -20.677  -7.049  -5.125  0.00  0.00     0.185 C 
BRANCH  14  15
HETATM   15  C           1     -21.980  -7.125  -4.340  0.00  0.00     0.039 C 
BRANCH  15  16
HETATM   16 Se           1     -21.724  -6.329  -2.579  0.00  0.00     0.000 Se
HETATM   17  H           1     -21.558  -4.961  -3.093  0.00  0.00     0.000 HD
ENDBRANCH  15  16
ENDBRANCH  14  15
BRANCH  14  18
HETATM   18  C           1     -20.229  -8.442  -5.495  0.00  0.00     0.196 C 
HETATM   19  O           1     -21.077  -9.341  -5.685  0.00  0.00    -0.646 OA
HETATM   20  O           1     -19.011  -8.697  -5.611  0.00  0.00    -0.646 OA
ENDBRANCH  14  18
ENDBRANCH   3  14
TORSDOF 9
ENDMDL
MODEL 7
REMARK VINA RESULT:      -4.5     25.367     26.827
REMARK  9 active torsions:
REMARK  status: ('A' for Active; 'I' for Inactive)
REMARK    1  A    between atoms: N_2  and  C_5 
REMARK    2  A    between atoms: C_5  and  C_8 
REMARK    3  A    between atoms: C_5  and  C_12 
REMARK    4  A    between atoms: N_6  and  C_7 
REMARK       I    between atoms: N_6  and  C_8 
REMARK    5  A    between atoms: C_7  and  C_16 
REMARK    6  A    between atoms: C_7  and  C_13 
REMARK    7  A    between atoms: S_11  and  C_14 
REMARK    8  A    between atoms: C_12  and  C_14 
REMARK    9  A    between atoms: Se_15  and  C_16 
ROOT
HETATM    1  H           1     -11.982   4.783 -19.437  0.00  0.00     0.163 HD
HETATM    2  O           1     -11.485   6.475 -22.031  0.00  0.00    -0.271 OA
HETATM    3  N           1     -12.118   5.102 -20.388  0.00  0.00    -0.345 N 
HETATM    4  C           1     -11.324   6.094 -20.895  0.00  0.00     0.249 C 
ENDROOT
BRANCH   4   5
HETATM    5  C           1     -10.247   6.713 -20.039  0.00  0.00     0.275 C 
BRANCH   5   6
HETATM    6  N           1      -9.432   5.628 -19.400  0.00  0.00    -0.066 N 
HETATM    7  H           1      -9.974   5.202 -18.615  0.00  0.00     0.275 HD
HETATM    8  H           1      -9.214   4.893 -20.110  0.00  0.00     0.275 HD
HETATM    9  H           1      -8.542   6.032 -19.031  0.00  0.00     0.275 HD
ENDBRANCH   5   6
BRANCH   5  10
HETATM   10  C           1      -9.344   7.582 -20.904  0.00  0.00     0.053 C 
BRANCH  10  11
HETATM   11  C           1      -9.614   9.051 -20.606  0.00  0.00     0.076 C 
BRANCH  11  12
HETATM   12  S           1     -10.736   9.184 -19.185  0.00  0.00    -0.173 SA
HETATM   13  C           1     -12.166   9.799 -20.118  0.00  0.00     0.089 C 
ENDBRANCH  11  12
ENDBRANCH  10  11
ENDBRANCH   5  10
ENDBRANCH   4   5
BRANCH   3  14
HETATM   14  C           1     -13.153   4.508 -21.211  0.00  0.00     0.185 C 
BRANCH  14  15
HETATM   15  C           1     -13.017   2.991 -21.178  0.00  0.00     0.039 C 
BRANCH  15  16
HETATM   16 Se           1     -11.179   2.511 -20.743  0.00  0.00     0.000 Se
HETATM   17  H           1     -10.654   3.871 -20.945  0.00  0.00     0.000 HD
ENDBRANCH  15  16
ENDBRANCH  14  15
BRANCH  14  18
HETATM   18  C           1     -14.507   4.904 -20.678  0.00  0.00     0.196 C 
HETATM   19  O           1     -14.754   4.798 -19.457  0.00  0.00    -0.646 OA
HETATM   20  O           1     -15.382   5.340 -21.457  0.00  0.00    -0.646 OA
ENDBRANCH  14  18
ENDBRANCH   3  14
TORSDOF 9
ENDMDL
MODEL 8
REMARK VINA RESULT:      -4.3     26.134     27.303
REMARK  9 active torsions:
REMARK  status: ('A' for Active; 'I' for Inactive)
REMARK    1  A    between atoms: N_2  and  C_5 
REMARK    2  A    between atoms: C_5  and  C_8 
REMARK    3  A    between atoms: C_5  and  C_12 
REMARK    4  A    between atoms: N_6  and  C_7 
REMARK       I    between atoms: N_6  and  C_8 
REMARK    5  A    between atoms: C_7  and  C_16 
REMARK    6  A    between atoms: C_7  and  C_13 
REMARK    7  A    between atoms: S_11  and  C_14 
REMARK    8  A    between atoms: C_12  and  C_14 
REMARK    9  A    between atoms: Se_15  and  C_16 
ROOT
HETATM    1  H           1     -10.993   7.373 -18.970  0.00  0.00     0.163 HD
HETATM    2  O           1     -10.767   6.356 -21.928  0.00  0.00    -0.271 OA
HETATM    3  N           1     -11.057   7.405 -19.979  0.00  0.00    -0.345 N 
HETATM    4  C           1     -10.689   6.317 -20.723  0.00  0.00     0.249 C 
ENDROOT
BRANCH   4   5
HETATM    5  C           1     -10.186   5.070 -20.039  0.00  0.00     0.275 C 
BRANCH   5   6
HETATM    6  N           1      -9.485   5.446 -18.768  0.00  0.00    -0.066 N 
HETATM    7  H           1      -8.788   6.200 -18.964  0.00  0.00     0.275 HD
HETATM    8  H           1     -10.185   5.793 -18.074  0.00  0.00     0.275 HD
HETATM    9  H           1      -8.994   4.609 -18.380  0.00  0.00     0.275 HD
ENDBRANCH   5   6
BRANCH   5  10
HETATM   10  C           1     -11.361   4.156 -19.719  0.00  0.00     0.053 C 
BRANCH  10  11
HETATM   11  C           1     -11.455   3.061 -20.774  0.00  0.00     0.076 C 
BRANCH  11  12
HETATM   12  S           1     -13.169   2.926 -21.355  0.00  0.00    -0.173 SA
HETATM   13  C           1     -13.811   4.339 -20.414  0.00  0.00     0.089 C 
ENDBRANCH  11  12
ENDBRANCH  10  11
ENDBRANCH   5  10
ENDBRANCH   4   5
BRANCH   3  14
HETATM   14  C           1     -11.541   8.604 -20.636  0.00  0.00     0.185 C 
BRANCH  14  15
HETATM   15  C           1     -12.411   9.396 -19.669  0.00  0.00     0.039 C 
BRANCH  15  16
HETATM   16 Se           1     -13.197  10.918 -20.598  0.00  0.00     0.000 Se
HETATM   17  H           1     -13.510  10.159 -21.820  0.00  0.00     0.000 HD
ENDBRANCH  15  16
ENDBRANCH  14  15
BRANCH  14  18
HETATM   18  C           1     -10.367   9.449 -21.065  0.00  0.00     0.196 C 
HETATM   19  O           1      -9.508   9.797 -20.226  0.00  0.00    -0.646 OA
HETATM   20  O           1     -10.253   9.801 -22.259  0.00  0.00    -0.646 OA
ENDBRANCH  14  18
ENDBRANCH   3  14
TORSDOF 9
ENDMDL
MODEL 9
REMARK VINA RESULT:      -4.2     15.917     17.682
REMARK  9 active torsions:
REMARK  status: ('A' for Active; 'I' for Inactive)
REMARK    1  A    between atoms: N_2  and  C_5 
REMARK    2  A    between atoms: C_5  and  C_8 
REMARK    3  A    between atoms: C_5  and  C_12 
REMARK    4  A    between atoms: N_6  and  C_7 
REMARK       I    between atoms: N_6  and  C_8 
REMARK    5  A    between atoms: C_7  and  C_16 
REMARK    6  A    between atoms: C_7  and  C_13 
REMARK    7  A    between atoms: S_11  and  C_14 
REMARK    8  A    between atoms: C_12  and  C_14 
REMARK    9  A    between atoms: Se_15  and  C_16 
ROOT
HETATM    1  H           1     -20.524  -7.400  -2.114  0.00  0.00     0.163 HD
HETATM    2  O           1     -21.899  -9.661  -3.797  0.00  0.00    -0.271 OA
HETATM    3  N           1     -21.125  -8.191  -2.306  0.00  0.00    -0.345 N 
HETATM    4  C           1     -21.182  -8.716  -3.568  0.00  0.00     0.249 C 
ENDROOT
BRANCH   4   5
HETATM    5  C           1     -20.351  -8.114  -4.675  0.00  0.00     0.275 C 
BRANCH   5   6
HETATM    6  N           1     -19.792  -9.211  -5.531  0.00  0.00    -0.066 N 
HETATM    7  H           1     -20.563  -9.655  -6.077  0.00  0.00     0.275 HD
HETATM    8  H           1     -19.085  -8.813  -6.190  0.00  0.00     0.275 HD
HETATM    9  H           1     -19.336  -9.929  -4.923  0.00  0.00     0.275 HD
ENDBRANCH   5   6
BRANCH   5  10
HETATM   10  C           1     -21.223  -7.201  -5.527  0.00  0.00     0.053 C 
BRANCH  10  11
HETATM   11  C           1     -20.826  -5.750  -5.287  0.00  0.00     0.076 C 
BRANCH  11  12
HETATM   12  S           1     -19.976  -5.105  -6.756  0.00  0.00    -0.173 SA
HETATM   13  C           1     -21.158  -3.771  -7.100  0.00  0.00     0.089 C 
ENDBRANCH  11  12
ENDBRANCH  10  11
ENDBRANCH   5  10
ENDBRANCH   4   5
BRANCH   3  14
HETATM   14  C           1     -21.923  -8.769  -1.242  0.00  0.00     0.185 C 
BRANCH  14  15
HETATM   15  C           1     -21.018  -9.544  -0.293  0.00  0.00     0.039 C 
BRANCH  15  16
HETATM   16 Se           1     -21.083 -11.441  -0.737  0.00  0.00     0.000 Se
HETATM   17  H           1     -19.708 -11.485  -1.258  0.00  0.00     0.000 HD
ENDBRANCH  15  16
ENDBRANCH  14  15
BRANCH  14  18
HETATM   18  C           1     -22.622  -7.668  -0.485  0.00  0.00     0.196 C 
HETATM   19  O           1     -23.244  -7.930   0.568  0.00  0.00    -0.646 OA
HETATM   20  O           1     -22.579  -6.493  -0.908  0.00  0.00    -0.646 OA
ENDBRANCH  14  18
ENDBRANCH   3  14
TORSDOF 9
ENDMDL
