MODEL 1
REMARK VINA RESULT:      -7.2      0.000      0.000
REMARK  6 active torsions:
REMARK  status: ('A' for Active; 'I' for Inactive)
REMARK       I    between atoms: C_2  and  N_3 
REMARK    1  A    between atoms: C_2  and  C_20 
REMARK    2  A    between atoms: N_3  and  C_11 
REMARK    3  A    between atoms: C_9  and  C_10 
REMARK    4  A    between atoms: C_10  and  C_11 
REMARK    5  A    between atoms: C_11  and  C_13 
REMARK    6  A    between atoms: C_20  and  N_22 
ROOT
HETATM    1  C           1     -21.119  -5.956  -7.255  0.00  0.00     0.190 C 
ENDROOT
BRANCH   1   2
HETATM    2  N           1     -21.727  -6.891  -6.327  0.00  0.00    -0.344 N 
HETATM    3  C           1     -22.236  -6.442  -5.138  0.00  0.00     0.248 C 
HETATM    4  O           1     -23.390  -6.090  -5.069  0.00  0.00    -0.271 OA
HETATM    5  H           1     -21.776  -7.875  -6.560  0.00  0.00     0.163 HD
BRANCH   3   6
HETATM    6  C           1     -21.355  -6.386  -3.914  0.00  0.00     0.270 C 
HETATM    7  C           1     -20.708  -7.747  -3.691  0.00  0.00     0.050 C 
BRANCH   6   8
HETATM    8  N           1     -22.184  -6.025  -2.718  0.00  0.00    -0.067 N 
HETATM    9  H           1     -22.888  -5.300  -2.986  0.00  0.00     0.275 HD
HETATM   10  H           1     -22.679  -6.876  -2.368  0.00  0.00     0.275 HD
HETATM   11  H           1     -21.565  -5.647  -1.966  0.00  0.00     0.275 HD
ENDBRANCH   6   8
ENDBRANCH   3   6
ENDBRANCH   1   2
BRANCH   1  12
HETATM   12  C           1     -21.697  -4.566  -7.027  0.00  0.00     0.077 C 
BRANCH  12  13
HETATM   13  C           1     -22.606  -4.211  -8.163  0.00  0.00    -0.028 A 
HETATM   14  C           1     -22.205  -3.901  -9.491  0.00  0.00    -0.002 A 
HETATM   15  C           1     -20.961  -3.823 -10.147  0.00  0.00     0.014 A 
HETATM   16  C           1     -23.365  -3.633 -10.219  0.00  0.00     0.042 A 
HETATM   17  C           1     -20.921  -3.480 -11.504  0.00  0.00     0.001 A 
HETATM   18  C           1     -22.097  -3.217 -12.204  0.00  0.00     0.002 A 
HETATM   19  C           1     -23.343  -3.288 -11.575  0.00  0.00     0.030 A 
HETATM   20  N           1     -24.427  -3.778  -9.354  0.00  0.00    -0.365 N 
HETATM   21  C           1     -23.979  -4.128  -8.108  0.00  0.00     0.096 A 
HETATM   22  H           1     -25.435  -3.640  -9.613  0.00  0.00     0.165 HD
ENDBRANCH  12  13
ENDBRANCH   1  12
BRANCH   1  23
HETATM   23  C           1     -19.627  -5.924  -7.028  0.00  0.00     0.197 C 
HETATM   24  O           1     -19.016  -6.975  -6.738  0.00  0.00    -0.646 OA
HETATM   25  O           1     -19.002  -4.846  -7.129  0.00  0.00    -0.646 OA
ENDBRANCH   1  23
TORSDOF 6
ENDMDL
MODEL 2
REMARK VINA RESULT:      -7.0      1.736      2.152
REMARK  6 active torsions:
REMARK  status: ('A' for Active; 'I' for Inactive)
REMARK       I    between atoms: C_2  and  N_3 
REMARK    1  A    between atoms: C_2  and  C_20 
REMARK    2  A    between atoms: N_3  and  C_11 
REMARK    3  A    between atoms: C_9  and  C_10 
REMARK    4  A    between atoms: C_10  and  C_11 
REMARK    5  A    between atoms: C_11  and  C_13 
REMARK    6  A    between atoms: C_20  and  N_22 
ROOT
HETATM    1  C           1     -21.892  -6.651  -5.725  0.00  0.00     0.190 C 
ENDROOT
BRANCH   1   2
HETATM    2  N           1     -22.414  -6.404  -4.394  0.00  0.00    -0.344 N 
HETATM    3  C           1     -21.597  -6.531  -3.303  0.00  0.00     0.248 C 
HETATM    4  O           1     -20.970  -5.578  -2.904  0.00  0.00    -0.271 OA
HETATM    5  H           1     -23.383  -6.139  -4.273  0.00  0.00     0.163 HD
BRANCH   3   6
HETATM    6  C           1     -21.479  -7.861  -2.600  0.00  0.00     0.270 C 
HETATM    7  C           1     -21.923  -7.710  -1.150  0.00  0.00     0.050 C 
BRANCH   6   8
HETATM    8  N           1     -20.053  -8.322  -2.640  0.00  0.00    -0.067 N 
HETATM    9  H           1     -19.921  -9.110  -1.965  0.00  0.00     0.275 HD
HETATM   10  H           1     -19.820  -8.649  -3.605  0.00  0.00     0.275 HD
HETATM   11  H           1     -19.423  -7.531  -2.377  0.00  0.00     0.275 HD
ENDBRANCH   6   8
ENDBRANCH   3   6
ENDBRANCH   1   2
BRANCH   1  12
HETATM   12  C           1     -21.196  -5.396  -6.236  0.00  0.00     0.077 C 
BRANCH  12  13
HETATM   13  C           1     -22.011  -4.787  -7.336  0.00  0.00    -0.028 A 
HETATM   14  C           1     -21.561  -4.507  -8.655  0.00  0.00    -0.002 A 
HETATM   15  C           1     -20.338  -4.677  -9.331  0.00  0.00     0.014 A 
HETATM   16  C           1     -22.637  -3.947  -9.346  0.00  0.00     0.042 A 
HETATM   17  C           1     -20.233  -4.281 -10.670  0.00  0.00     0.001 A 
HETATM   18  C           1     -21.325  -3.725 -11.333  0.00  0.00     0.002 A 
HETATM   19  C           1     -22.550  -3.546 -10.684  0.00  0.00     0.030 A 
HETATM   20  N           1     -23.697  -3.894  -8.467  0.00  0.00    -0.365 N 
HETATM   21  C           1     -23.329  -4.400  -7.249  0.00  0.00     0.096 A 
HETATM   22  H           1     -24.651  -3.519  -8.699  0.00  0.00     0.165 HD
ENDBRANCH  12  13
ENDBRANCH   1  12
BRANCH   1  23
HETATM   23  C           1     -20.901  -7.789  -5.672  0.00  0.00     0.197 C 
HETATM   24  O           1     -19.675  -7.550  -5.673  0.00  0.00    -0.646 OA
HETATM   25  O           1     -21.308  -8.970  -5.630  0.00  0.00    -0.646 OA
ENDBRANCH   1  23
TORSDOF 6
ENDMDL
MODEL 3
REMARK VINA RESULT:      -6.9      3.320      6.876
REMARK  6 active torsions:
REMARK  status: ('A' for Active; 'I' for Inactive)
REMARK       I    between atoms: C_2  and  N_3 
REMARK    1  A    between atoms: C_2  and  C_20 
REMARK    2  A    between atoms: N_3  and  C_11 
REMARK    3  A    between atoms: C_9  and  C_10 
REMARK    4  A    between atoms: C_10  and  C_11 
REMARK    5  A    between atoms: C_11  and  C_13 
REMARK    6  A    between atoms: C_20  and  N_22 
ROOT
HETATM    1  C           1     -22.895  -3.087 -10.888  0.00  0.00     0.190 C 
ENDROOT
BRANCH   1   2
HETATM    2  N           1     -23.895  -2.623 -11.831  0.00  0.00    -0.344 N 
HETATM    3  C           1     -23.818  -2.991 -13.147  0.00  0.00     0.248 C 
HETATM    4  O           1     -24.367  -3.999 -13.526  0.00  0.00    -0.271 OA
HETATM    5  H           1     -24.650  -2.027 -11.515  0.00  0.00     0.163 HD
BRANCH   3   6
HETATM    6  C           1     -23.047  -2.138 -14.125  0.00  0.00     0.270 C 
HETATM    7  C           1     -24.010  -1.222 -14.869  0.00  0.00     0.050 C 
BRANCH   6   8
HETATM    8  N           1     -22.339  -3.022 -15.108  0.00  0.00    -0.067 N 
HETATM    9  H           1     -22.981  -3.250 -15.899  0.00  0.00     0.275 HD
HETATM   10  H           1     -21.496  -2.526 -15.477  0.00  0.00     0.275 HD
HETATM   11  H           1     -22.044  -3.905 -14.633  0.00  0.00     0.275 HD
ENDBRANCH   6   8
ENDBRANCH   3   6
ENDBRANCH   1   2
BRANCH   1  12
HETATM   12  C           1     -23.300  -4.454 -10.353  0.00  0.00     0.077 C 
BRANCH  12  13
HETATM   13  C           1     -23.048  -4.506  -8.877  0.00  0.00    -0.028 A 
HETATM   14  C           1     -21.780  -4.637  -8.248  0.00  0.00    -0.002 A 
HETATM   15  C           1     -20.458  -4.750  -8.719  0.00  0.00     0.014 A 
HETATM   16  C           1     -22.004  -4.642  -6.870  0.00  0.00     0.042 A 
HETATM   17  C           1     -19.409  -4.865  -7.799  0.00  0.00     0.001 A 
HETATM   18  C           1     -19.664  -4.869  -6.429  0.00  0.00     0.002 A 
HETATM   19  C           1     -20.967  -4.757  -5.937  0.00  0.00     0.030 A 
HETATM   20  N           1     -23.363  -4.519  -6.681  0.00  0.00    -0.365 N 
HETATM   21  C           1     -24.004  -4.436  -7.889  0.00  0.00     0.096 A 
HETATM   22  H           1     -23.838  -4.494  -5.745  0.00  0.00     0.165 HD
ENDBRANCH  12  13
ENDBRANCH   1  12
BRANCH   1  23
HETATM   23  C           1     -21.560  -3.194 -11.584  0.00  0.00     0.197 C 
HETATM   24  O           1     -21.269  -4.229 -12.220  0.00  0.00    -0.646 OA
HETATM   25  O           1     -20.746  -2.248 -11.524  0.00  0.00    -0.646 OA
ENDBRANCH   1  23
TORSDOF 6
ENDMDL
MODEL 4
REMARK VINA RESULT:      -6.9     12.980     15.817
REMARK  6 active torsions:
REMARK  status: ('A' for Active; 'I' for Inactive)
REMARK       I    between atoms: C_2  and  N_3 
REMARK    1  A    between atoms: C_2  and  C_20 
REMARK    2  A    between atoms: N_3  and  C_11 
REMARK    3  A    between atoms: C_9  and  C_10 
REMARK    4  A    between atoms: C_10  and  C_11 
REMARK    5  A    between atoms: C_11  and  C_13 
REMARK    6  A    between atoms: C_20  and  N_22 
ROOT
HETATM    1  C           1     -36.798  -0.463 -11.296  0.00  0.00     0.190 C 
ENDROOT
BRANCH   1   2
HETATM    2  N           1     -36.970   0.304 -12.516  0.00  0.00    -0.344 N 
HETATM    3  C           1     -36.910  -0.322 -13.732  0.00  0.00     0.248 C 
HETATM    4  O           1     -37.915  -0.770 -14.231  0.00  0.00    -0.271 OA
HETATM    5  H           1     -37.135   1.301 -12.467  0.00  0.00     0.163 HD
BRANCH   3   6
HETATM    6  C           1     -35.589  -0.452 -14.448  0.00  0.00     0.270 C 
HETATM    7  C           1     -34.805   0.846 -14.310  0.00  0.00     0.050 C 
BRANCH   6   8
HETATM    8  N           1     -35.834  -0.735 -15.901  0.00  0.00    -0.067 N 
HETATM    9  H           1     -35.260  -1.555 -16.199  0.00  0.00     0.275 HD
HETATM   10  H           1     -36.847  -0.949 -16.047  0.00  0.00     0.275 HD
HETATM   11  H           1     -35.568   0.101 -16.468  0.00  0.00     0.275 HD
ENDBRANCH   6   8
ENDBRANCH   3   6
ENDBRANCH   1   2
BRANCH   1  12
HETATM   12  C           1     -35.378  -1.010 -11.238  0.00  0.00     0.077 C 
BRANCH  12  13
HETATM   13  C           1     -35.422  -2.488 -10.998  0.00  0.00    -0.028 A 
HETATM   14  C           1     -34.365  -3.408 -11.239  0.00  0.00    -0.002 A 
HETATM   15  C           1     -33.051  -3.284 -11.730  0.00  0.00     0.014 A 
HETATM   16  C           1     -34.831  -4.673 -10.879  0.00  0.00     0.042 A 
HETATM   17  C           1     -32.252  -4.428 -11.845  0.00  0.00     0.001 A 
HETATM   18  C           1     -32.745  -5.678 -11.477  0.00  0.00     0.002 A 
HETATM   19  C           1     -34.045  -5.826 -10.986  0.00  0.00     0.030 A 
HETATM   20  N           1     -36.125  -4.515 -10.435  0.00  0.00    -0.365 N 
HETATM   21  C           1     -36.493  -3.198 -10.503  0.00  0.00     0.096 A 
HETATM   22  H           1     -36.742  -5.295 -10.095  0.00  0.00     0.165 HD
ENDBRANCH  12  13
ENDBRANCH   1  12
BRANCH   1  23
HETATM   23  C           1     -37.043   0.429 -10.104  0.00  0.00     0.197 C 
HETATM   24  O           1     -36.215   0.464  -9.169  0.00  0.00    -0.646 OA
HETATM   25  O           1     -38.075   1.133 -10.051  0.00  0.00    -0.646 OA
ENDBRANCH   1  23
TORSDOF 6
ENDMDL
MODEL 5
REMARK VINA RESULT:      -6.9      1.734      2.133
REMARK  6 active torsions:
REMARK  status: ('A' for Active; 'I' for Inactive)
REMARK       I    between atoms: C_2  and  N_3 
REMARK    1  A    between atoms: C_2  and  C_20 
REMARK    2  A    between atoms: N_3  and  C_11 
REMARK    3  A    between atoms: C_9  and  C_10 
REMARK    4  A    between atoms: C_10  and  C_11 
REMARK    5  A    between atoms: C_11  and  C_13 
REMARK    6  A    between atoms: C_20  and  N_22 
ROOT
HETATM    1  C           1     -21.105  -4.859  -7.957  0.00  0.00     0.190 C 
ENDROOT
BRANCH   1   2
HETATM    2  N           1     -20.715  -5.196  -6.601  0.00  0.00    -0.344 N 
HETATM    3  C           1     -20.506  -6.503  -6.253  0.00  0.00     0.248 C 
HETATM    4  O           1     -19.406  -6.990  -6.367  0.00  0.00    -0.271 OA
HETATM    5  H           1     -20.597  -4.463  -5.913  0.00  0.00     0.163 HD
BRANCH   3   6
HETATM    6  C           1     -21.649  -7.335  -5.727  0.00  0.00     0.270 C 
HETATM    7  C           1     -22.081  -6.804  -4.366  0.00  0.00     0.050 C 
BRANCH   6   8
HETATM    8  N           1     -21.207  -8.762  -5.589  0.00  0.00    -0.067 N 
HETATM    9  H           1     -22.043  -9.378  -5.477  0.00  0.00     0.275 HD
HETATM   10  H           1     -20.678  -9.046  -6.445  0.00  0.00     0.275 HD
HETATM   11  H           1     -20.590  -8.855  -4.751  0.00  0.00     0.275 HD
ENDBRANCH   6   8
ENDBRANCH   3   6
ENDBRANCH   1   2
BRANCH   1  12
HETATM   12  C           1     -21.925  -3.576  -7.944  0.00  0.00     0.077 C 
BRANCH  12  13
HETATM   13  C           1     -23.043  -3.689  -8.935  0.00  0.00    -0.028 A 
HETATM   14  C           1     -22.962  -3.407 -10.326  0.00  0.00    -0.002 A 
HETATM   15  C           1     -21.929  -2.973 -11.180  0.00  0.00     0.014 A 
HETATM   16  C           1     -24.226  -3.643 -10.868  0.00  0.00     0.042 A 
HETATM   17  C           1     -22.198  -2.790 -12.542  0.00  0.00     0.001 A 
HETATM   18  C           1     -23.470  -3.034 -13.054  0.00  0.00     0.002 A 
HETATM   19  C           1     -24.511  -3.466 -12.226  0.00  0.00     0.030 A 
HETATM   20  N           1     -25.038  -4.053  -9.834  0.00  0.00    -0.365 N 
HETATM   21  C           1     -24.333  -4.084  -8.660  0.00  0.00     0.096 A 
HETATM   22  H           1     -26.054  -4.305  -9.932  0.00  0.00     0.165 HD
ENDBRANCH  12  13
ENDBRANCH   1  12
BRANCH   1  23
HETATM   23  C           1     -19.869  -4.658  -8.800  0.00  0.00     0.197 C 
HETATM   24  O           1     -19.824  -5.114  -9.962  0.00  0.00    -0.646 OA
HETATM   25  O           1     -18.890  -4.036  -8.335  0.00  0.00    -0.646 OA
ENDBRANCH   1  23
TORSDOF 6
ENDMDL
MODEL 6
REMARK VINA RESULT:      -6.7      2.994      4.505
REMARK  6 active torsions:
REMARK  status: ('A' for Active; 'I' for Inactive)
REMARK       I    between atoms: C_2  and  N_3 
REMARK    1  A    between atoms: C_2  and  C_20 
REMARK    2  A    between atoms: N_3  and  C_11 
REMARK    3  A    between atoms: C_9  and  C_10 
REMARK    4  A    between atoms: C_10  and  C_11 
REMARK    5  A    between atoms: C_11  and  C_13 
REMARK    6  A    between atoms: C_20  and  N_22 
ROOT
HETATM    1  C           1     -21.313  -9.017  -3.954  0.00  0.00     0.190 C 
ENDROOT
BRANCH   1   2
HETATM    2  N           1     -20.952  -9.461  -2.621  0.00  0.00    -0.344 N 
HETATM    3  C           1     -21.746  -9.138  -1.553  0.00  0.00     0.248 C 
HETATM    4  O           1     -22.647  -9.874  -1.225  0.00  0.00    -0.271 OA
HETATM    5  H           1     -20.113 -10.010  -2.480  0.00  0.00     0.163 HD
BRANCH   3   6
HETATM    6  C           1     -21.496  -7.863  -0.786  0.00  0.00     0.270 C 
HETATM    7  C           1     -21.809  -8.087   0.688  0.00  0.00     0.050 C 
BRANCH   6   8
HETATM    8  N           1     -22.377  -6.775  -1.324  0.00  0.00    -0.067 N 
HETATM    9  H           1     -22.076  -5.855  -0.932  0.00  0.00     0.275 HD
HETATM   10  H           1     -22.301  -6.750  -2.367  0.00  0.00     0.275 HD
HETATM   11  H           1     -23.368  -6.963  -1.051  0.00  0.00     0.275 HD
ENDBRANCH   6   8
ENDBRANCH   3   6
ENDBRANCH   1   2
BRANCH   1  12
HETATM   12  C           1     -20.422  -7.851  -4.358  0.00  0.00     0.077 C 
BRANCH  12  13
HETATM   13  C           1     -21.239  -6.824  -5.079  0.00  0.00    -0.028 A 
HETATM   14  C           1     -20.760  -5.898  -6.046  0.00  0.00    -0.002 A 
HETATM   15  C           1     -19.497  -5.638  -6.612  0.00  0.00     0.014 A 
HETATM   16  C           1     -21.851  -5.132  -6.458  0.00  0.00     0.042 A 
HETATM   17  C           1     -19.370  -4.623  -7.568  0.00  0.00     0.001 A 
HETATM   18  C           1     -20.478  -3.875  -7.960  0.00  0.00     0.002 A 
HETATM   19  C           1     -21.741  -4.115  -7.413  0.00  0.00     0.030 A 
HETATM   20  N           1     -22.949  -5.586  -5.761  0.00  0.00    -0.365 N 
HETATM   21  C           1     -22.590  -6.608  -4.924  0.00  0.00     0.096 A 
HETATM   22  H           1     -23.921  -5.200  -5.857  0.00  0.00     0.165 HD
ENDBRANCH  12  13
ENDBRANCH   1  12
BRANCH   1  23
HETATM   23  C           1     -21.127 -10.155  -4.929  0.00  0.00     0.197 C 
HETATM   24  O           1     -20.273 -10.066  -5.836  0.00  0.00    -0.646 OA
HETATM   25  O           1     -21.828 -11.185  -4.829  0.00  0.00    -0.646 OA
ENDBRANCH   1  23
TORSDOF 6
ENDMDL
MODEL 7
REMARK VINA RESULT:      -6.6      2.772      4.393
REMARK  6 active torsions:
REMARK  status: ('A' for Active; 'I' for Inactive)
REMARK       I    between atoms: C_2  and  N_3 
REMARK    1  A    between atoms: C_2  and  C_20 
REMARK    2  A    between atoms: N_3  and  C_11 
REMARK    3  A    between atoms: C_9  and  C_10 
REMARK    4  A    between atoms: C_10  and  C_11 
REMARK    5  A    between atoms: C_11  and  C_13 
REMARK    6  A    between atoms: C_20  and  N_22 
ROOT
HETATM    1  C           1     -21.481  -7.356  -3.817  0.00  0.00     0.190 C 
ENDROOT
BRANCH   1   2
HETATM    2  N           1     -22.066  -8.680  -3.920  0.00  0.00    -0.344 N 
HETATM    3  C           1     -21.262  -9.769  -4.122  0.00  0.00     0.248 C 
HETATM    4  O           1     -20.812 -10.372  -3.176  0.00  0.00    -0.271 OA
HETATM    5  H           1     -23.068  -8.797  -3.841  0.00  0.00     0.163 HD
BRANCH   3   6
HETATM    6  C           1     -20.937 -10.217  -5.525  0.00  0.00     0.270 C 
HETATM    7  C           1     -21.412 -11.651  -5.724  0.00  0.00     0.050 C 
BRANCH   6   8
HETATM    8  N           1     -19.455 -10.148  -5.742  0.00  0.00    -0.067 N 
HETATM    9  H           1     -19.257  -9.682  -6.656  0.00  0.00     0.275 HD
HETATM   10  H           1     -19.016  -9.597  -4.969  0.00  0.00     0.275 HD
HETATM   11  H           1     -19.059 -11.114  -5.750  0.00  0.00     0.275 HD
ENDBRANCH   6   8
ENDBRANCH   3   6
ENDBRANCH   1   2
BRANCH   1  12
HETATM   12  C           1     -22.203  -6.409  -4.766  0.00  0.00     0.077 C 
BRANCH  12  13
HETATM   13  C           1     -21.325  -6.116  -5.944  0.00  0.00    -0.028 A 
HETATM   14  C           1     -21.658  -5.294  -7.054  0.00  0.00    -0.002 A 
HETATM   15  C           1     -22.795  -4.544  -7.413  0.00  0.00     0.014 A 
HETATM   16  C           1     -20.558  -5.296  -7.912  0.00  0.00     0.042 A 
HETATM   17  C           1     -22.792  -3.826  -8.614  0.00  0.00     0.001 A 
HETATM   18  C           1     -21.678  -3.847  -9.451  0.00  0.00     0.002 A 
HETATM   19  C           1     -20.538  -4.583  -9.117  0.00  0.00     0.030 A 
HETATM   20  N           1     -19.596  -6.094  -7.333  0.00  0.00    -0.365 N 
HETATM   21  C           1     -20.049  -6.595  -6.142  0.00  0.00     0.096 A 
HETATM   22  H           1     -18.650  -6.290  -7.747  0.00  0.00     0.165 HD
ENDBRANCH  12  13
ENDBRANCH   1  12
BRANCH   1  23
HETATM   23  C           1     -21.623  -6.853  -2.401  0.00  0.00     0.197 C 
HETATM   24  O           1     -22.407  -5.914  -2.147  0.00  0.00    -0.646 OA
HETATM   25  O           1     -20.955  -7.375  -1.483  0.00  0.00    -0.646 OA
ENDBRANCH   1  23
TORSDOF 6
ENDMDL
MODEL 8
REMARK VINA RESULT:      -6.6      2.951      7.833
REMARK  6 active torsions:
REMARK  status: ('A' for Active; 'I' for Inactive)
REMARK       I    between atoms: C_2  and  N_3 
REMARK    1  A    between atoms: C_2  and  C_20 
REMARK    2  A    between atoms: N_3  and  C_11 
REMARK    3  A    between atoms: C_9  and  C_10 
REMARK    4  A    between atoms: C_10  and  C_11 
REMARK    5  A    between atoms: C_11  and  C_13 
REMARK    6  A    between atoms: C_20  and  N_22 
ROOT
HETATM    1  C           1     -21.128  -7.580  -5.124  0.00  0.00     0.190 C 
ENDROOT
BRANCH   1   2
HETATM    2  N           1     -20.122  -6.937  -5.948  0.00  0.00    -0.344 N 
HETATM    3  C           1     -20.319  -5.659  -6.396  0.00  0.00     0.248 C 
HETATM    4  O           1     -19.940  -4.721  -5.734  0.00  0.00    -0.271 OA
HETATM    5  H           1     -19.274  -7.434  -6.191  0.00  0.00     0.163 HD
BRANCH   3   6
HETATM    6  C           1     -21.008  -5.420  -7.717  0.00  0.00     0.270 C 
HETATM    7  C           1     -20.047  -4.729  -8.675  0.00  0.00     0.050 C 
BRANCH   6   8
HETATM    8  N           1     -22.212  -4.552  -7.502  0.00  0.00    -0.067 N 
HETATM    9  H           1     -22.461  -4.544  -6.488  0.00  0.00     0.275 HD
HETATM   10  H           1     -21.998  -3.577  -7.815  0.00  0.00     0.275 HD
HETATM   11  H           1     -23.015  -4.927  -8.055  0.00  0.00     0.275 HD
ENDBRANCH   6   8
ENDBRANCH   3   6
ENDBRANCH   1   2
BRANCH   1  12
HETATM   12  C           1     -20.444  -8.415  -4.050  0.00  0.00     0.077 C 
BRANCH  12  13
HETATM   13  C           1     -21.343  -9.543  -3.647  0.00  0.00    -0.028 A 
HETATM   14  C           1     -22.017  -9.674  -2.402  0.00  0.00    -0.002 A 
HETATM   15  C           1     -22.081  -8.889  -1.234  0.00  0.00     0.014 A 
HETATM   16  C           1     -22.742 -10.866  -2.450  0.00  0.00     0.042 A 
HETATM   17  C           1     -22.864  -9.324  -0.158  0.00  0.00     0.001 A 
HETATM   18  C           1     -23.577 -10.518  -0.236  0.00  0.00     0.002 A 
HETATM   19  C           1     -23.530 -11.314  -1.384  0.00  0.00     0.030 A 
HETATM   20  N           1     -22.510 -11.429  -3.685  0.00  0.00    -0.365 N 
HETATM   21  C           1     -21.665 -10.638  -4.417  0.00  0.00     0.096 A 
HETATM   22  H           1     -22.921 -12.338  -4.017  0.00  0.00     0.165 HD
ENDBRANCH  12  13
ENDBRANCH   1  12
BRANCH   1  23
HETATM   23  C           1     -21.990  -6.527  -4.471  0.00  0.00     0.197 C 
HETATM   24  O           1     -21.632  -6.008  -3.393  0.00  0.00    -0.646 OA
HETATM   25  O           1     -23.062  -6.176  -5.008  0.00  0.00    -0.646 OA
ENDBRANCH   1  23
TORSDOF 6
ENDMDL
MODEL 9
REMARK VINA RESULT:      -6.5      4.166      8.027
REMARK  6 active torsions:
REMARK  status: ('A' for Active; 'I' for Inactive)
REMARK       I    between atoms: C_2  and  N_3 
REMARK    1  A    between atoms: C_2  and  C_20 
REMARK    2  A    between atoms: N_3  and  C_11 
REMARK    3  A    between atoms: C_9  and  C_10 
REMARK    4  A    between atoms: C_10  and  C_11 
REMARK    5  A    between atoms: C_11  and  C_13 
REMARK    6  A    between atoms: C_20  and  N_22 
ROOT
HETATM    1  C           1     -19.560  -8.943  -4.639  0.00  0.00     0.190 C 
ENDROOT
BRANCH   1   2
HETATM    2  N           1     -20.395  -8.344  -5.663  0.00  0.00    -0.344 N 
HETATM    3  C           1     -20.249  -7.021  -5.979  0.00  0.00     0.248 C 
HETATM    4  O           1     -19.474  -6.689  -6.846  0.00  0.00    -0.271 OA
HETATM    5  H           1     -21.087  -8.906  -6.143  0.00  0.00     0.163 HD
BRANCH   3   6
HETATM    6  C           1     -21.053  -5.976  -5.246  0.00  0.00     0.270 C 
HETATM    7  C           1     -22.397  -6.565  -4.836  0.00  0.00     0.050 C 
BRANCH   6   8
HETATM    8  N           1     -21.277  -4.797  -6.144  0.00  0.00    -0.067 N 
HETATM    9  H           1     -21.361  -5.121  -7.134  0.00  0.00     0.275 HD
HETATM   10  H           1     -22.158  -4.308  -5.864  0.00  0.00     0.275 HD
HETATM   11  H           1     -20.471  -4.138  -6.061  0.00  0.00     0.275 HD
ENDBRANCH   6   8
ENDBRANCH   3   6
ENDBRANCH   1   2
BRANCH   1  12
HETATM   12  C           1     -20.350 -10.019  -3.906  0.00  0.00     0.077 C 
BRANCH  12  13
HETATM   13  C           1     -20.932  -9.443  -2.652  0.00  0.00    -0.028 A 
HETATM   14  C           1     -22.022  -9.977  -1.912  0.00  0.00    -0.002 A 
HETATM   15  C           1     -22.853 -11.103  -2.066  0.00  0.00     0.014 A 
HETATM   16  C           1     -22.233  -9.131  -0.822  0.00  0.00     0.042 A 
HETATM   17  C           1     -23.864 -11.343  -1.126  0.00  0.00     0.001 A 
HETATM   18  C           1     -24.050 -10.481  -0.048  0.00  0.00     0.002 A 
HETATM   19  C           1     -23.237  -9.357   0.126  0.00  0.00     0.030 A 
HETATM   20  N           1     -21.297  -8.124  -0.906  0.00  0.00    -0.365 N 
HETATM   21  C           1     -20.505  -8.303  -2.009  0.00  0.00     0.096 A 
HETATM   22  H           1     -21.206  -7.331  -0.222  0.00  0.00     0.165 HD
ENDBRANCH  12  13
ENDBRANCH   1  12
BRANCH   1  23
HETATM   23  C           1     -18.343  -9.563  -5.283  0.00  0.00     0.197 C 
HETATM   24  O           1     -17.282  -9.675  -4.634  0.00  0.00    -0.646 OA
HETATM   25  O           1     -18.398  -9.963  -6.466  0.00  0.00    -0.646 OA
ENDBRANCH   1  23
TORSDOF 6
ENDMDL
