MODEL 1
REMARK VINA RESULT:      -7.4      0.000      0.000
REMARK  5 active torsions:
REMARK  status: ('A' for Active; 'I' for Inactive)
REMARK       I    between atoms: C_2  and  N_8 
REMARK    1  A    between atoms: C_2  and  C_3 
REMARK    2  A    between atoms: C_5  and  C_24 
REMARK    3  A    between atoms: C_5  and  C_6 
REMARK    4  A    between atoms: C_6  and  C_7 
REMARK    5  A    between atoms: C_6  and  N_8 
REMARK       I    between atoms: N_16  and  C_24 
ROOT
HETATM    1  C           1     -35.081  -2.172 -12.600  0.00  0.00     0.249 C 
HETATM    2  N           1     -35.766  -0.989 -12.658  0.00  0.00    -0.344 N 
HETATM    3  O           1     -34.682  -2.690 -13.616  0.00  0.00    -0.271 OA
HETATM    4  H           1     -36.101  -0.556 -11.807  0.00  0.00     0.163 HD
ENDROOT
BRANCH   1   5
HETATM    5  C           1     -34.823  -2.830 -11.267  0.00  0.00     0.274 C 
HETATM    6  C           1     -33.339  -3.152 -11.136  0.00  0.00     0.042 C 
HETATM    7  C           1     -32.924  -4.096 -12.257  0.00  0.00     0.004 C 
HETATM    8  C           1     -32.387  -5.390 -11.659  0.00  0.00     0.027 C 
HETATM    9  C           1     -33.472  -6.048 -10.817  0.00  0.00     0.229 C 
HETATM   10  N           1     -34.660  -6.353 -11.680  0.00  0.00    -0.079 N 
HETATM   11  H           1     -35.029  -5.465 -12.090  0.00  0.00     0.274 HD
HETATM   12  H           1     -35.405  -6.804 -11.102  0.00  0.00     0.274 HD
HETATM   13  H           1     -34.376  -7.000 -12.450  0.00  0.00     0.274 HD
HETATM   14  H           1     -35.333  -4.745 -11.943  0.00  0.00     0.275 HD
HETATM   15  N           1     -35.618  -4.098 -11.174  0.00  0.00    -0.067 N 
HETATM   16  H           1     -36.636  -3.878 -11.262  0.00  0.00     0.275 HD
HETATM   17  H           1     -35.441  -4.555 -10.251  0.00  0.00     0.275 HD
ENDBRANCH   1   5
BRANCH   2  18
HETATM   18  C           1     -36.014  -0.356 -13.939  0.00  0.00     0.194 C 
BRANCH  18  19
HETATM   19  C           1     -37.485   0.024 -14.041  0.00  0.00     0.138 C 
BRANCH  19  20
HETATM   20  C           1     -37.898   0.056 -15.492  0.00  0.00     0.217 C 
HETATM   21  O           1     -38.073  -0.977 -16.093  0.00  0.00    -0.274 OA
HETATM   22  N           1     -38.075   1.255 -16.126  0.00  0.00    -0.370 N 
HETATM   23  H           1     -38.352   1.277 -17.100  0.00  0.00     0.159 HD
HETATM   24  H           1     -37.928   2.121 -15.623  0.00  0.00     0.159 HD
ENDBRANCH  19  20
ENDBRANCH  18  19
BRANCH  18  25
HETATM   25  C           1     -35.164   0.885 -14.059  0.00  0.00     0.197 C 
HETATM   26  O           1     -35.315   1.654 -15.033  0.00  0.00    -0.646 OA
HETATM   27  O           1     -34.309   1.144 -13.184  0.00  0.00    -0.646 OA
ENDBRANCH  18  25
ENDBRANCH   2  18
TORSDOF 5
ENDMDL
MODEL 2
REMARK VINA RESULT:      -7.4     12.272     14.437
REMARK  5 active torsions:
REMARK  status: ('A' for Active; 'I' for Inactive)
REMARK       I    between atoms: C_2  and  N_8 
REMARK    1  A    between atoms: C_2  and  C_3 
REMARK    2  A    between atoms: C_5  and  C_24 
REMARK    3  A    between atoms: C_5  and  C_6 
REMARK    4  A    between atoms: C_6  and  C_7 
REMARK    5  A    between atoms: C_6  and  N_8 
REMARK       I    between atoms: N_16  and  C_24 
ROOT
HETATM    1  C           1     -20.681  -4.213  -9.263  0.00  0.00     0.249 C 
HETATM    2  N           1     -21.896  -3.959  -9.840  0.00  0.00    -0.344 N 
HETATM    3  O           1     -19.818  -4.776  -9.894  0.00  0.00    -0.271 OA
HETATM    4  H           1     -22.618  -3.488  -9.311  0.00  0.00     0.163 HD
ENDROOT
BRANCH   1   5
HETATM    5  C           1     -20.418  -3.789  -7.839  0.00  0.00     0.274 C 
HETATM    6  C           1     -19.468  -4.782  -7.180  0.00  0.00     0.042 C 
HETATM    7  C           1     -20.097  -6.170  -7.189  0.00  0.00     0.004 C 
HETATM    8  C           1     -20.252  -6.667  -5.757  0.00  0.00     0.027 C 
HETATM    9  C           1     -21.146  -5.710  -4.981  0.00  0.00     0.229 C 
HETATM   10  N           1     -22.495  -5.644  -5.635  0.00  0.00    -0.079 N 
HETATM   11  H           1     -22.389  -5.301  -6.616  0.00  0.00     0.274 HD
HETATM   12  H           1     -23.109  -4.986  -5.102  0.00  0.00     0.274 HD
HETATM   13  H           1     -22.926  -6.596  -5.642  0.00  0.00     0.274 HD
HETATM   14  H           1     -22.143  -4.710  -7.087  0.00  0.00     0.275 HD
HETATM   15  N           1     -21.712  -3.758  -7.081  0.00  0.00    -0.067 N 
HETATM   16  H           1     -22.363  -3.077  -7.532  0.00  0.00     0.275 HD
HETATM   17  H           1     -21.532  -3.465  -6.094  0.00  0.00     0.275 HD
ENDBRANCH   1   5
BRANCH   2  18
HETATM   18  C           1     -22.148  -4.366 -11.208  0.00  0.00     0.194 C 
BRANCH  18  19
HETATM   19  C           1     -23.567  -4.906 -11.323  0.00  0.00     0.138 C 
BRANCH  19  20
HETATM   20  C           1     -24.491  -4.086 -10.456  0.00  0.00     0.217 C 
HETATM   21  O           1     -24.634  -2.906 -10.674  0.00  0.00    -0.274 OA
HETATM   22  N           1     -25.165  -4.677  -9.423  0.00  0.00    -0.370 N 
HETATM   23  H           1     -25.785  -4.127  -8.842  0.00  0.00     0.159 HD
HETATM   24  H           1     -25.045  -5.665  -9.240  0.00  0.00     0.159 HD
ENDBRANCH  19  20
ENDBRANCH  18  19
BRANCH  18  25
HETATM   25  C           1     -21.986  -3.177 -12.124  0.00  0.00     0.197 C 
HETATM   26  O           1     -22.448  -3.215 -13.285  0.00  0.00    -0.646 OA
HETATM   27  O           1     -21.391  -2.154 -11.721  0.00  0.00    -0.646 OA
ENDBRANCH  18  25
ENDBRANCH   2  18
TORSDOF 5
ENDMDL
MODEL 3
REMARK VINA RESULT:      -7.4      1.709      2.418
REMARK  5 active torsions:
REMARK  status: ('A' for Active; 'I' for Inactive)
REMARK       I    between atoms: C_2  and  N_8 
REMARK    1  A    between atoms: C_2  and  C_3 
REMARK    2  A    between atoms: C_5  and  C_24 
REMARK    3  A    between atoms: C_5  and  C_6 
REMARK    4  A    between atoms: C_6  and  C_7 
REMARK    5  A    between atoms: C_6  and  N_8 
REMARK       I    between atoms: N_16  and  C_24 
ROOT
HETATM    1  C           1     -35.831  -1.150 -12.435  0.00  0.00     0.249 C 
HETATM    2  N           1     -35.072  -0.788 -13.515  0.00  0.00    -0.344 N 
HETATM    3  O           1     -37.037  -1.129 -12.510  0.00  0.00    -0.271 OA
HETATM    4  H           1     -34.062  -0.805 -13.452  0.00  0.00     0.163 HD
ENDROOT
BRANCH   1   5
HETATM    5  C           1     -35.162  -1.575 -11.151  0.00  0.00     0.274 C 
HETATM    6  C           1     -33.745  -2.047 -11.448  0.00  0.00     0.042 C 
HETATM    7  C           1     -33.793  -3.228 -12.410  0.00  0.00     0.004 C 
HETATM    8  C           1     -33.151  -4.444 -11.754  0.00  0.00     0.027 C 
HETATM    9  C           1     -33.910  -4.795 -10.481  0.00  0.00     0.229 C 
HETATM   10  N           1     -35.338  -5.106 -10.819  0.00  0.00    -0.079 N 
HETATM   11  H           1     -35.779  -4.271 -11.268  0.00  0.00     0.274 HD
HETATM   12  H           1     -35.859  -5.346  -9.945  0.00  0.00     0.274 HD
HETATM   13  H           1     -35.372  -5.915 -11.480  0.00  0.00     0.274 HD
HETATM   14  H           1     -35.975  -3.505 -11.189  0.00  0.00     0.275 HD
HETATM   15  N           1     -35.942  -2.696 -10.529  0.00  0.00    -0.067 N 
HETATM   16  H           1     -36.914  -2.372 -10.325  0.00  0.00     0.275 HD
HETATM   17  H           1     -35.480  -2.991  -9.640  0.00  0.00     0.275 HD
ENDBRANCH   1   5
BRANCH   2  18
HETATM   18  C           1     -35.714  -0.380 -14.749  0.00  0.00     0.194 C 
BRANCH  18  19
HETATM   19  C           1     -35.204   0.996 -15.155  0.00  0.00     0.138 C 
BRANCH  19  20
HETATM   20  C           1     -36.288   1.737 -15.898  0.00  0.00     0.217 C 
HETATM   21  O           1     -36.019   2.738 -16.519  0.00  0.00    -0.274 OA
HETATM   22  N           1     -37.576   1.275 -15.869  0.00  0.00    -0.370 N 
HETATM   23  H           1     -38.304   1.773 -16.368  0.00  0.00     0.159 HD
HETATM   24  H           1     -37.802   0.437 -15.349  0.00  0.00     0.159 HD
ENDBRANCH  19  20
ENDBRANCH  18  19
BRANCH  18  25
HETATM   25  C           1     -35.394  -1.377 -15.836  0.00  0.00     0.197 C 
HETATM   26  O           1     -34.787  -2.434 -15.555  0.00  0.00    -0.646 OA
HETATM   27  O           1     -35.735  -1.146 -17.016  0.00  0.00    -0.646 OA
ENDBRANCH  18  25
ENDBRANCH   2  18
TORSDOF 5
ENDMDL
MODEL 4
REMARK VINA RESULT:      -6.9     13.231     15.072
REMARK  5 active torsions:
REMARK  status: ('A' for Active; 'I' for Inactive)
REMARK       I    between atoms: C_2  and  N_8 
REMARK    1  A    between atoms: C_2  and  C_3 
REMARK    2  A    between atoms: C_5  and  C_24 
REMARK    3  A    between atoms: C_5  and  C_6 
REMARK    4  A    between atoms: C_6  and  C_7 
REMARK    5  A    between atoms: C_6  and  N_8 
REMARK       I    between atoms: N_16  and  C_24 
ROOT
HETATM    1  C           1     -20.756  -4.154  -7.624  0.00  0.00     0.249 C 
HETATM    2  N           1     -20.914  -4.573  -8.917  0.00  0.00    -0.344 N 
HETATM    3  O           1     -21.372  -3.198  -7.218  0.00  0.00    -0.271 OA
HETATM    4  H           1     -20.397  -5.373  -9.257  0.00  0.00     0.163 HD
ENDROOT
BRANCH   1   5
HETATM    5  C           1     -19.810  -4.888  -6.704  0.00  0.00     0.274 C 
HETATM    6  C           1     -19.997  -6.391  -6.876  0.00  0.00     0.042 C 
HETATM    7  C           1     -21.433  -6.767  -6.534  0.00  0.00     0.004 C 
HETATM    8  C           1     -21.436  -7.758  -5.377  0.00  0.00     0.027 C 
HETATM    9  C           1     -20.775  -7.122  -4.162  0.00  0.00     0.229 C 
HETATM   10  N           1     -21.533  -5.890  -3.765  0.00  0.00    -0.079 N 
HETATM   11  H           1     -21.530  -5.210  -4.559  0.00  0.00     0.274 HD
HETATM   12  H           1     -21.079  -5.453  -2.932  0.00  0.00     0.274 HD
HETATM   13  H           1     -22.519  -6.147  -3.531  0.00  0.00     0.274 HD
HETATM   14  H           1     -21.087  -4.767  -5.048  0.00  0.00     0.275 HD
HETATM   15  N           1     -20.102  -4.509  -5.283  0.00  0.00    -0.067 N 
HETATM   16  H           1     -19.973  -3.479  -5.164  0.00  0.00     0.275 HD
HETATM   17  H           1     -19.448  -5.017  -4.645  0.00  0.00     0.275 HD
ENDBRANCH   1   5
BRANCH   2  18
HETATM   18  C           1     -21.822  -3.868  -9.801  0.00  0.00     0.194 C 
BRANCH  18  19
HETATM   19  C           1     -21.378  -4.062 -11.245  0.00  0.00     0.138 C 
BRANCH  19  20
HETATM   20  C           1     -22.115  -3.092 -12.134  0.00  0.00     0.217 C 
HETATM   21  O           1     -22.596  -2.088 -11.664  0.00  0.00    -0.274 OA
HETATM   22  N           1     -22.239  -3.348 -13.473  0.00  0.00    -0.370 N 
HETATM   23  H           1     -22.733  -2.696 -14.069  0.00  0.00     0.159 HD
HETATM   24  H           1     -21.836  -4.188 -13.866  0.00  0.00     0.159 HD
ENDBRANCH  19  20
ENDBRANCH  18  19
BRANCH  18  25
HETATM   25  C           1     -23.218  -4.413  -9.626  0.00  0.00     0.197 C 
HETATM   26  O           1     -24.034  -3.817  -8.889  0.00  0.00    -0.646 OA
HETATM   27  O           1     -23.559  -5.461 -10.217  0.00  0.00    -0.646 OA
ENDBRANCH  18  25
ENDBRANCH   2  18
TORSDOF 5
ENDMDL
MODEL 5
REMARK VINA RESULT:      -6.4     15.333     17.649
REMARK  5 active torsions:
REMARK  status: ('A' for Active; 'I' for Inactive)
REMARK       I    between atoms: C_2  and  N_8 
REMARK    1  A    between atoms: C_2  and  C_3 
REMARK    2  A    between atoms: C_5  and  C_24 
REMARK    3  A    between atoms: C_5  and  C_6 
REMARK    4  A    between atoms: C_6  and  C_7 
REMARK    5  A    between atoms: C_6  and  N_8 
REMARK       I    between atoms: N_16  and  C_24 
ROOT
HETATM    1  C           1     -20.789  -5.802  -6.106  0.00  0.00     0.249 C 
HETATM    2  N           1     -20.964  -5.887  -4.751  0.00  0.00    -0.344 N 
HETATM    3  O           1     -20.969  -6.774  -6.801  0.00  0.00    -0.271 OA
HETATM    4  H           1     -20.811  -5.073  -4.169  0.00  0.00     0.163 HD
ENDROOT
BRANCH   1   5
HETATM    5  C           1     -20.370  -4.495  -6.732  0.00  0.00     0.274 C 
HETATM    6  C           1     -21.593  -3.789  -7.303  0.00  0.00     0.042 C 
HETATM    7  C           1     -22.243  -4.673  -8.360  0.00  0.00     0.004 C 
HETATM    8  C           1     -22.252  -3.943  -9.697  0.00  0.00     0.027 C 
HETATM    9  C           1     -20.822  -3.623 -10.111  0.00  0.00     0.229 C 
HETATM   10  N           1     -20.043  -4.898 -10.245  0.00  0.00    -0.079 N 
HETATM   11  H           1     -20.035  -5.399  -9.327  0.00  0.00     0.274 HD
HETATM   12  H           1     -19.061  -4.679 -10.529  0.00  0.00     0.274 HD
HETATM   13  H           1     -20.488  -5.506 -10.969  0.00  0.00     0.274 HD
HETATM   14  H           1     -19.834  -5.368  -8.559  0.00  0.00     0.275 HD
HETATM   15  N           1     -19.388  -4.761  -7.834  0.00  0.00    -0.067 N 
HETATM   16  H           1     -18.548  -5.245  -7.443  0.00  0.00     0.275 HD
HETATM   17  H           1     -19.097  -3.857  -8.269  0.00  0.00     0.275 HD
ENDBRANCH   1   5
BRANCH   2  18
HETATM   18  C           1     -21.366  -7.143  -4.149  0.00  0.00     0.194 C 
BRANCH  18  19
HETATM   19  C           1     -20.180  -8.098  -4.126  0.00  0.00     0.138 C 
BRANCH  19  20
HETATM   20  C           1     -20.622  -9.464  -4.589  0.00  0.00     0.217 C 
HETATM   21  O           1     -20.699 -10.374  -3.799  0.00  0.00    -0.274 OA
HETATM   22  N           1     -20.937  -9.672  -5.904  0.00  0.00    -0.370 N 
HETATM   23  H           1     -21.234 -10.589  -6.215  0.00  0.00     0.159 HD
HETATM   24  H           1     -20.873  -8.909  -6.567  0.00  0.00     0.159 HD
ENDBRANCH  19  20
ENDBRANCH  18  19
BRANCH  18  25
HETATM   25  C           1     -21.840  -6.895  -2.738  0.00  0.00     0.197 C 
HETATM   26  O           1     -21.660  -7.763  -1.856  0.00  0.00    -0.646 OA
HETATM   27  O           1     -22.413  -5.821  -2.451  0.00  0.00    -0.646 OA
ENDBRANCH  18  25
ENDBRANCH   2  18
TORSDOF 5
ENDMDL
MODEL 6
REMARK VINA RESULT:      -6.3     16.135     18.768
REMARK  5 active torsions:
REMARK  status: ('A' for Active; 'I' for Inactive)
REMARK       I    between atoms: C_2  and  N_8 
REMARK    1  A    between atoms: C_2  and  C_3 
REMARK    2  A    between atoms: C_5  and  C_24 
REMARK    3  A    between atoms: C_5  and  C_6 
REMARK    4  A    between atoms: C_6  and  C_7 
REMARK    5  A    between atoms: C_6  and  N_8 
REMARK       I    between atoms: N_16  and  C_24 
ROOT
HETATM    1  C           1     -21.513  -6.795  -4.458  0.00  0.00     0.249 C 
HETATM    2  N           1     -20.987  -7.975  -4.007  0.00  0.00    -0.344 N 
HETATM    3  O           1     -21.692  -5.880  -3.689  0.00  0.00    -0.271 OA
HETATM    4  H           1     -20.838  -8.741  -4.651  0.00  0.00     0.163 HD
ENDROOT
BRANCH   1   5
HETATM    5  C           1     -21.868  -6.635  -5.916  0.00  0.00     0.274 C 
HETATM    6  C           1     -20.594  -6.603  -6.750  0.00  0.00     0.042 C 
HETATM    7  C           1     -19.727  -5.431  -6.307  0.00  0.00     0.004 C 
HETATM    8  C           1     -19.508  -4.488  -7.484  0.00  0.00     0.027 C 
HETATM    9  C           1     -20.852  -3.968  -7.975  0.00  0.00     0.229 C 
HETATM   10  N           1     -21.539  -3.229  -6.864  0.00  0.00    -0.079 N 
HETATM   11  H           1     -21.690  -3.876  -6.058  0.00  0.00     0.274 HD
HETATM   12  H           1     -22.463  -2.873  -7.201  0.00  0.00     0.274 HD
HETATM   13  H           1     -20.945  -2.426  -6.560  0.00  0.00     0.274 HD
HETATM   14  H           1     -22.028  -4.550  -5.805  0.00  0.00     0.275 HD
HETATM   15  N           1     -22.623  -5.353  -6.108  0.00  0.00    -0.067 N 
HETATM   16  H           1     -23.498  -5.376  -5.537  0.00  0.00     0.275 HD
HETATM   17  H           1     -22.870  -5.241  -7.117  0.00  0.00     0.275 HD
ENDBRANCH   1   5
BRANCH   2  18
HETATM   18  C           1     -20.645  -8.129  -2.606  0.00  0.00     0.194 C 
BRANCH  18  19
HETATM   19  C           1     -21.857  -8.646  -1.843  0.00  0.00     0.138 C 
BRANCH  19  20
HETATM   20  C           1     -22.041  -7.838  -0.582  0.00  0.00     0.217 C 
HETATM   21  O           1     -22.728  -6.844  -0.597  0.00  0.00    -0.274 OA
HETATM   22  N           1     -21.431  -8.229   0.578  0.00  0.00    -0.370 N 
HETATM   23  H           1     -21.555  -7.687   1.424  0.00  0.00     0.159 HD
HETATM   24  H           1     -20.856  -9.062   0.591  0.00  0.00     0.159 HD
ENDBRANCH  19  20
ENDBRANCH  18  19
BRANCH  18  25
HETATM   25  C           1     -19.508  -9.112  -2.472  0.00  0.00     0.197 C 
HETATM   26  O           1     -18.522  -9.035  -3.236  0.00  0.00    -0.646 OA
HETATM   27  O           1     -19.552 -10.003  -1.596  0.00  0.00    -0.646 OA
ENDBRANCH  18  25
ENDBRANCH   2  18
TORSDOF 5
ENDMDL
MODEL 7
REMARK VINA RESULT:      -6.2      2.495      5.741
REMARK  5 active torsions:
REMARK  status: ('A' for Active; 'I' for Inactive)
REMARK       I    between atoms: C_2  and  N_8 
REMARK    1  A    between atoms: C_2  and  C_3 
REMARK    2  A    between atoms: C_5  and  C_24 
REMARK    3  A    between atoms: C_5  and  C_6 
REMARK    4  A    between atoms: C_6  and  C_7 
REMARK    5  A    between atoms: C_6  and  N_8 
REMARK       I    between atoms: N_16  and  C_24 
ROOT
HETATM    1  C           1     -35.497  -1.897 -11.867  0.00  0.00     0.249 C 
HETATM    2  N           1     -34.629  -2.680 -12.578  0.00  0.00    -0.344 N 
HETATM    3  O           1     -36.250  -2.401 -11.069  0.00  0.00    -0.271 OA
HETATM    4  H           1     -33.998  -2.257 -13.248  0.00  0.00     0.163 HD
ENDROOT
BRANCH   1   5
HETATM    5  C           1     -35.514  -0.404 -12.081  0.00  0.00     0.274 C 
HETATM    6  C           1     -36.813  -0.003 -12.770  0.00  0.00     0.042 C 
HETATM    7  C           1     -36.913  -0.710 -14.116  0.00  0.00     0.004 C 
HETATM    8  C           1     -36.996   0.328 -15.229  0.00  0.00     0.027 C 
HETATM    9  C           1     -35.748   1.200 -15.205  0.00  0.00     0.229 C 
HETATM   10  N           1     -34.534   0.343 -15.411  0.00  0.00    -0.079 N 
HETATM   11  H           1     -34.476  -0.368 -14.647  0.00  0.00     0.274 HD
HETATM   12  H           1     -33.677   0.941 -15.394  0.00  0.00     0.274 HD
HETATM   13  H           1     -34.602  -0.143 -16.334  0.00  0.00     0.274 HD
HETATM   14  H           1     -34.419  -0.493 -13.864  0.00  0.00     0.275 HD
HETATM   15  N           1     -34.351  -0.009 -12.941  0.00  0.00    -0.067 N 
HETATM   16  H           1     -33.460  -0.283 -12.469  0.00  0.00     0.275 HD
HETATM   17  H           1     -34.361   1.025 -13.090  0.00  0.00     0.275 HD
ENDBRANCH   1   5
BRANCH   2  18
HETATM   18  C           1     -34.612  -4.115 -12.373  0.00  0.00     0.194 C 
BRANCH  18  19
HETATM   19  C           1     -34.735  -4.821 -13.717  0.00  0.00     0.138 C 
BRANCH  19  20
HETATM   20  C           1     -34.128  -3.959 -14.797  0.00  0.00     0.217 C 
HETATM   21  O           1     -34.703  -2.965 -15.170  0.00  0.00    -0.274 OA
HETATM   22  N           1     -32.927  -4.304 -15.353  0.00  0.00    -0.370 N 
HETATM   23  H           1     -32.519  -3.726 -16.078  0.00  0.00     0.159 HD
HETATM   24  H           1     -32.445  -5.137 -15.041  0.00  0.00     0.159 HD
ENDBRANCH  19  20
ENDBRANCH  18  19
BRANCH  18  25
HETATM   25  C           1     -33.315  -4.513 -11.713  0.00  0.00     0.197 C 
HETATM   26  O           1     -32.370  -3.696 -11.648  0.00  0.00    -0.646 OA
HETATM   27  O           1     -33.184  -5.659 -11.231  0.00  0.00    -0.646 OA
ENDBRANCH  18  25
ENDBRANCH   2  18
TORSDOF 5
ENDMDL
MODEL 8
REMARK VINA RESULT:      -6.1     17.632     19.233
REMARK  5 active torsions:
REMARK  status: ('A' for Active; 'I' for Inactive)
REMARK       I    between atoms: C_2  and  N_8 
REMARK    1  A    between atoms: C_2  and  C_3 
REMARK    2  A    between atoms: C_5  and  C_24 
REMARK    3  A    between atoms: C_5  and  C_6 
REMARK    4  A    between atoms: C_6  and  C_7 
REMARK    5  A    between atoms: C_6  and  N_8 
REMARK       I    between atoms: N_16  and  C_24 
ROOT
HETATM    1  C           1     -21.016  -9.964  -2.424  0.00  0.00     0.249 C 
HETATM    2  N           1     -21.697  -8.952  -3.046  0.00  0.00    -0.344 N 
HETATM    3  O           1     -19.957  -9.740  -1.888  0.00  0.00    -0.271 OA
HETATM    4  H           1     -22.584  -9.141  -3.495  0.00  0.00     0.163 HD
ENDROOT
BRANCH   1   5
HETATM    5  C           1     -21.589 -11.360  -2.409  0.00  0.00     0.274 C 
HETATM    6  C           1     -23.073 -11.298  -2.069  0.00  0.00     0.042 C 
HETATM    7  C           1     -23.254 -10.660  -0.698  0.00  0.00     0.004 C 
HETATM    8  C           1     -23.951 -11.645   0.233  0.00  0.00     0.027 C 
HETATM    9  C           1     -23.106 -12.904   0.366  0.00  0.00     0.229 C 
HETATM   10  N           1     -21.763 -12.547   0.933  0.00  0.00    -0.079 N 
HETATM   11  H           1     -21.284 -11.873   0.295  0.00  0.00     0.274 HD
HETATM   12  H           1     -21.182 -13.412   1.025  0.00  0.00     0.274 HD
HETATM   13  H           1     -21.887 -12.109   1.874  0.00  0.00     0.274 HD
HETATM   14  H           1     -20.999 -11.743  -0.436  0.00  0.00     0.275 HD
HETATM   15  N           1     -20.874 -12.181  -1.376  0.00  0.00    -0.067 N 
HETATM   16  H           1     -19.857 -12.224  -1.609  0.00  0.00     0.275 HD
HETATM   17  H           1     -21.270 -13.148  -1.364  0.00  0.00     0.275 HD
ENDBRANCH   1   5
BRANCH   2  18
HETATM   18  C           1     -21.148  -7.611  -3.061  0.00  0.00     0.194 C 
BRANCH  18  19
HETATM   19  C           1     -21.348  -6.996  -4.440  0.00  0.00     0.138 C 
BRANCH  19  20
HETATM   20  C           1     -20.220  -7.420  -5.348  0.00  0.00     0.217 C 
HETATM   21  O           1     -19.480  -8.315  -5.016  0.00  0.00    -0.274 OA
HETATM   22  N           1     -20.035  -6.790  -6.549  0.00  0.00    -0.370 N 
HETATM   23  H           1     -19.278  -7.074  -7.158  0.00  0.00     0.159 HD
HETATM   24  H           1     -20.654  -6.039  -6.827  0.00  0.00     0.159 HD
ENDBRANCH  19  20
ENDBRANCH  18  19
BRANCH  18  25
HETATM   25  C           1     -21.854  -6.768  -2.027  0.00  0.00     0.197 C 
HETATM   26  O           1     -22.030  -7.213  -0.872  0.00  0.00    -0.646 OA
HETATM   27  O           1     -22.261  -5.624  -2.325  0.00  0.00    -0.646 OA
ENDBRANCH  18  25
ENDBRANCH   2  18
TORSDOF 5
ENDMDL
MODEL 9
REMARK VINA RESULT:      -6.0      3.334      4.569
REMARK  5 active torsions:
REMARK  status: ('A' for Active; 'I' for Inactive)
REMARK       I    between atoms: C_2  and  N_8 
REMARK    1  A    between atoms: C_2  and  C_3 
REMARK    2  A    between atoms: C_5  and  C_24 
REMARK    3  A    between atoms: C_5  and  C_6 
REMARK    4  A    between atoms: C_6  and  C_7 
REMARK    5  A    between atoms: C_6  and  N_8 
REMARK       I    between atoms: N_16  and  C_24 
ROOT
HETATM    1  C           1     -36.421  -0.717 -12.833  0.00  0.00     0.249 C 
HETATM    2  N           1     -35.623  -0.146 -13.787  0.00  0.00    -0.344 N 
HETATM    3  O           1     -37.594  -0.898 -13.055  0.00  0.00    -0.271 OA
HETATM    4  H           1     -34.640   0.006 -13.600  0.00  0.00     0.163 HD
ENDROOT
BRANCH   1   5
HETATM    5  C           1     -35.835  -1.121 -11.502  0.00  0.00     0.274 C 
HETATM    6  C           1     -36.944  -1.635 -10.593  0.00  0.00     0.042 C 
HETATM    7  C           1     -37.977  -0.536 -10.380  0.00  0.00     0.004 C 
HETATM    8  C           1     -38.073  -0.210  -8.895  0.00  0.00     0.027 C 
HETATM    9  C           1     -36.717   0.263  -8.389  0.00  0.00     0.229 C 
HETATM   10  N           1     -36.302   1.492  -9.143  0.00  0.00    -0.079 N 
HETATM   11  H           1     -36.235   1.268 -10.162  0.00  0.00     0.274 HD
HETATM   12  H           1     -35.371   1.816  -8.797  0.00  0.00     0.274 HD
HETATM   13  H           1     -37.011   2.246  -8.998  0.00  0.00     0.274 HD
HETATM   14  H           1     -35.886   0.821 -10.719  0.00  0.00     0.275 HD
HETATM   15  N           1     -35.177   0.067 -10.865  0.00  0.00    -0.067 N 
HETATM   16  H           1     -34.416   0.419 -11.488  0.00  0.00     0.275 HD
HETATM   17  H           1     -34.771  -0.211  -9.943  0.00  0.00     0.275 HD
ENDBRANCH   1   5
BRANCH   2  18
HETATM   18  C           1     -36.186   0.243 -15.065  0.00  0.00     0.194 C 
BRANCH  18  19
HETATM   19  C           1     -35.568   1.561 -15.512  0.00  0.00     0.138 C 
BRANCH  19  20
HETATM   20  C           1     -36.602   2.381 -16.244  0.00  0.00     0.217 C 
HETATM   21  O           1     -36.263   3.346 -16.887  0.00  0.00    -0.274 OA
HETATM   22  N           1     -37.923   2.031 -16.179  0.00  0.00    -0.370 N 
HETATM   23  H           1     -38.617   2.581 -16.670  0.00  0.00     0.159 HD
HETATM   24  H           1     -38.207   1.223 -15.641  0.00  0.00     0.159 HD
ENDBRANCH  19  20
ENDBRANCH  18  19
BRANCH  18  25
HETATM   25  C           1     -35.889  -0.825 -16.090  0.00  0.00     0.197 C 
HETATM   26  O           1     -35.103  -1.757 -15.812  0.00  0.00    -0.646 OA
HETATM   27  O           1     -36.430  -0.778 -17.216  0.00  0.00    -0.646 OA
ENDBRANCH  18  25
ENDBRANCH   2  18
TORSDOF 5
ENDMDL
