MODEL 1
REMARK VINA RESULT:      -6.1      0.000      0.000
REMARK  8 active torsions:
REMARK  status: ('A' for Active; 'I' for Inactive)
REMARK    1  A    between atoms: O_2  and  P_4 
REMARK    2  A    between atoms: C_3  and  C_7 
REMARK    3  A    between atoms: P_4  and  O_5 
REMARK    4  A    between atoms: O_5  and  C_6 
REMARK    5  A    between atoms: C_6  and  C_7 
REMARK    6  A    between atoms: C_7  and  N_10 
REMARK       I    between atoms: N_10  and  C_11 
REMARK    7  A    between atoms: C_11  and  C_12 
REMARK    8  A    between atoms: C_12  and  N_13 
ROOT
HETATM    1  C           1     -22.640  -3.638 -10.292  0.00  0.00     0.210 C 
ENDROOT
BRANCH   1   2
HETATM    2  C           1     -24.120  -3.817 -10.057  0.00  0.00     0.198 C 
HETATM    3  O           1     -24.633  -4.953 -10.145  0.00  0.00    -0.646 OA
HETATM    4  O           1     -24.831  -2.829  -9.774  0.00  0.00    -0.646 OA
ENDBRANCH   1   2
BRANCH   1   5
HETATM    5  C           1     -22.340  -3.782 -11.778  0.00  0.00     0.217 C 
BRANCH   5   6
HETATM    6  O           1     -22.656  -2.585 -12.437  0.00  0.00    -0.287 OA
BRANCH   6   7
HETATM    7  P           1     -23.538  -2.729 -13.783  0.00  0.00     0.406 P 
HETATM    8  O           1     -22.637  -2.858 -14.950  0.00  0.00    -0.624 OA
HETATM    9  O           1     -24.394  -3.932 -13.685  0.00  0.00    -0.624 OA
BRANCH   7  10
HETATM   10  O           1     -24.467  -1.419 -13.960  0.00  0.00    -0.300 OA
HETATM   11  H           1     -25.101  -1.476 -13.266  0.00  0.00     0.223 HD
ENDBRANCH   7  10
ENDBRANCH   6   7
ENDBRANCH   5   6
ENDBRANCH   1   5
BRANCH   1  12
HETATM   12  N           1     -21.909  -4.648  -9.552  0.00  0.00    -0.343 N 
HETATM   13  C           1     -21.538  -4.412  -8.255  0.00  0.00     0.243 C 
HETATM   14  O           1     -21.820  -3.362  -7.728  0.00  0.00    -0.272 OA
HETATM   15  H           1     -21.672  -5.527  -9.992  0.00  0.00     0.163 HD
BRANCH  13  16
HETATM   16  C           1     -20.777  -5.462  -7.484  0.00  0.00     0.332 C 
BRANCH  16  17
HETATM   17  N           1     -20.315  -4.888  -6.177  0.00  0.00    -0.071 N 
HETATM   18  H           1     -19.275  -4.972  -6.108  0.00  0.00     0.274 HD
HETATM   19  H           1     -20.587  -3.881  -6.124  0.00  0.00     0.274 HD
HETATM   20  H           1     -20.759  -5.412  -5.391  0.00  0.00     0.274 HD
ENDBRANCH  16  17
ENDBRANCH  13  16
ENDBRANCH   1  12
TORSDOF 8
ENDMDL
MODEL 2
REMARK VINA RESULT:      -5.9      3.144      5.773
REMARK  8 active torsions:
REMARK  status: ('A' for Active; 'I' for Inactive)
REMARK    1  A    between atoms: O_2  and  P_4 
REMARK    2  A    between atoms: C_3  and  C_7 
REMARK    3  A    between atoms: P_4  and  O_5 
REMARK    4  A    between atoms: O_5  and  C_6 
REMARK    5  A    between atoms: C_6  and  C_7 
REMARK    6  A    between atoms: C_7  and  N_10 
REMARK       I    between atoms: N_10  and  C_11 
REMARK    7  A    between atoms: C_11  and  C_12 
REMARK    8  A    between atoms: C_12  and  N_13 
ROOT
HETATM    1  C           1     -23.129  -3.569 -11.380  0.00  0.00     0.210 C 
ENDROOT
BRANCH   1   2
HETATM    2  C           1     -24.341  -3.264 -10.534  0.00  0.00     0.198 C 
HETATM    3  O           1     -25.469  -3.183 -11.066  0.00  0.00    -0.646 OA
HETATM    4  O           1     -24.217  -3.093  -9.303  0.00  0.00    -0.646 OA
ENDBRANCH   1   2
BRANCH   1   5
HETATM    5  C           1     -21.882  -3.556 -10.505  0.00  0.00     0.217 C 
BRANCH   5   6
HETATM    6  O           1     -21.819  -4.744  -9.764  0.00  0.00    -0.287 OA
BRANCH   6   7
HETATM    7  P           1     -21.159  -4.627  -8.294  0.00  0.00     0.406 P 
HETATM    8  O           1     -20.939  -5.982  -7.743  0.00  0.00    -0.624 OA
HETATM    9  O           1     -19.865  -3.916  -8.389  0.00  0.00    -0.624 OA
BRANCH   7  10
HETATM   10  O           1     -22.155  -3.805  -7.322  0.00  0.00    -0.300 OA
HETATM   11  H           1     -22.762  -4.448  -6.997  0.00  0.00     0.223 HD
ENDBRANCH   7  10
ENDBRANCH   6   7
ENDBRANCH   5   6
ENDBRANCH   1   5
BRANCH   1  12
HETATM   12  N           1     -23.001  -2.564 -12.419  0.00  0.00    -0.343 N 
HETATM   13  C           1     -23.488  -2.812 -13.673  0.00  0.00     0.243 C 
HETATM   14  O           1     -24.025  -3.867 -13.916  0.00  0.00    -0.272 OA
HETATM   15  H           1     -22.551  -1.681 -12.216  0.00  0.00     0.163 HD
BRANCH  13  16
HETATM   16  C           1     -23.355  -1.768 -14.755  0.00  0.00     0.332 C 
BRANCH  16  17
HETATM   17  N           1     -24.408  -0.716 -14.568  0.00  0.00    -0.071 N 
HETATM   18  H           1     -24.083  -0.018 -13.862  0.00  0.00     0.274 HD
HETATM   19  H           1     -24.584  -0.234 -15.478  0.00  0.00     0.274 HD
HETATM   20  H           1     -25.291  -1.163 -14.234  0.00  0.00     0.274 HD
ENDBRANCH  16  17
ENDBRANCH  13  16
ENDBRANCH   1  12
TORSDOF 8
ENDMDL
MODEL 3
REMARK VINA RESULT:      -5.5      2.240      3.633
REMARK  8 active torsions:
REMARK  status: ('A' for Active; 'I' for Inactive)
REMARK    1  A    between atoms: O_2  and  P_4 
REMARK    2  A    between atoms: C_3  and  C_7 
REMARK    3  A    between atoms: P_4  and  O_5 
REMARK    4  A    between atoms: O_5  and  C_6 
REMARK    5  A    between atoms: C_6  and  C_7 
REMARK    6  A    between atoms: C_7  and  N_10 
REMARK       I    between atoms: N_10  and  C_11 
REMARK    7  A    between atoms: C_11  and  C_12 
REMARK    8  A    between atoms: C_12  and  N_13 
ROOT
HETATM    1  C           1     -21.618  -4.829  -8.306  0.00  0.00     0.210 C 
ENDROOT
BRANCH   1   2
HETATM    2  C           1     -20.320  -4.395  -8.943  0.00  0.00     0.198 C 
HETATM    3  O           1     -20.061  -4.726 -10.120  0.00  0.00    -0.646 OA
HETATM    4  O           1     -19.506  -3.705  -8.294  0.00  0.00    -0.646 OA
ENDBRANCH   1   2
BRANCH   1   5
HETATM    5  C           1     -22.738  -3.898  -8.749  0.00  0.00     0.217 C 
BRANCH   5   6
HETATM    6  O           1     -23.554  -4.557  -9.679  0.00  0.00    -0.287 OA
BRANCH   6   7
HETATM    7  P           1     -23.671  -3.864 -11.134  0.00  0.00     0.406 P 
HETATM    8  O           1     -24.980  -3.184 -11.252  0.00  0.00    -0.624 OA
HETATM    9  O           1     -22.584  -2.875 -11.298  0.00  0.00    -0.624 OA
BRANCH   7  10
HETATM   10  O           1     -23.547  -4.997 -12.280  0.00  0.00    -0.300 OA
HETATM   11  H           1     -24.299  -5.550 -12.157  0.00  0.00     0.223 HD
ENDBRANCH   7  10
ENDBRANCH   6   7
ENDBRANCH   5   6
ENDBRANCH   1   5
BRANCH   1  12
HETATM   12  N           1     -21.487  -4.776  -6.863  0.00  0.00    -0.343 N 
HETATM   13  C           1     -21.175  -5.910  -6.163  0.00  0.00     0.243 C 
HETATM   14  O           1     -21.007  -6.954  -6.746  0.00  0.00    -0.272 OA
HETATM   15  H           1     -21.628  -3.902  -6.373  0.00  0.00     0.163 HD
BRANCH  13  16
HETATM   16  C           1     -21.039  -5.856  -4.660  0.00  0.00     0.332 C 
BRANCH  16  17
HETATM   17  N           1     -22.339  -6.254  -4.025  0.00  0.00    -0.071 N 
HETATM   18  H           1     -22.154  -6.912  -3.234  0.00  0.00     0.274 HD
HETATM   19  H           1     -22.825  -5.403  -3.664  0.00  0.00     0.274 HD
HETATM   20  H           1     -22.943  -6.725  -4.735  0.00  0.00     0.274 HD
ENDBRANCH  16  17
ENDBRANCH  13  16
ENDBRANCH   1  12
TORSDOF 8
ENDMDL
MODEL 4
REMARK VINA RESULT:      -5.0      3.456      6.361
REMARK  8 active torsions:
REMARK  status: ('A' for Active; 'I' for Inactive)
REMARK    1  A    between atoms: O_2  and  P_4 
REMARK    2  A    between atoms: C_3  and  C_7 
REMARK    3  A    between atoms: P_4  and  O_5 
REMARK    4  A    between atoms: O_5  and  C_6 
REMARK    5  A    between atoms: C_6  and  C_7 
REMARK    6  A    between atoms: C_7  and  N_10 
REMARK       I    between atoms: N_10  and  C_11 
REMARK    7  A    between atoms: C_11  and  C_12 
REMARK    8  A    between atoms: C_12  and  N_13 
ROOT
HETATM    1  C           1     -21.144  -3.917  -8.683  0.00  0.00     0.210 C 
ENDROOT
BRANCH   1   2
HETATM    2  C           1     -20.162  -4.937  -9.207  0.00  0.00     0.198 C 
HETATM    3  O           1     -19.701  -5.810  -8.441  0.00  0.00    -0.646 OA
HETATM    4  O           1     -19.810  -4.907 -10.405  0.00  0.00    -0.646 OA
ENDBRANCH   1   2
BRANCH   1   5
HETATM    5  C           1     -21.129  -3.932  -7.161  0.00  0.00     0.217 C 
BRANCH   5   6
HETATM    6  O           1     -22.155  -4.764  -6.691  0.00  0.00    -0.287 OA
BRANCH   6   7
HETATM    7  P           1     -21.716  -5.894  -5.623  0.00  0.00     0.406 P 
HETATM    8  O           1     -20.669  -5.349  -4.731  0.00  0.00    -0.624 OA
HETATM    9  O           1     -22.891  -6.295  -4.818  0.00  0.00    -0.624 OA
BRANCH   7  10
HETATM   10  O           1     -21.138  -7.181  -6.410  0.00  0.00    -0.300 OA
HETATM   11  H           1     -20.834  -7.763  -5.734  0.00  0.00     0.223 HD
ENDBRANCH   7  10
ENDBRANCH   6   7
ENDBRANCH   5   6
ENDBRANCH   1   5
BRANCH   1  12
HETATM   12  N           1     -22.475  -4.242  -9.157  0.00  0.00    -0.343 N 
HETATM   13  C           1     -22.965  -3.643 -10.286  0.00  0.00     0.243 C 
HETATM   14  O           1     -22.288  -2.844 -10.889  0.00  0.00    -0.272 OA
HETATM   15  H           1     -23.043  -4.911  -8.654  0.00  0.00     0.163 HD
BRANCH  13  16
HETATM   16  C           1     -24.350  -3.981 -10.780  0.00  0.00     0.332 C 
BRANCH  16  17
HETATM   17  N           1     -25.360  -3.603  -9.736  0.00  0.00    -0.071 N 
HETATM   18  H           1     -25.098  -4.040  -8.824  0.00  0.00     0.274 HD
HETATM   19  H           1     -25.379  -2.564  -9.632  0.00  0.00     0.274 HD
HETATM   20  H           1     -26.304  -3.942 -10.026  0.00  0.00     0.274 HD
ENDBRANCH  16  17
ENDBRANCH  13  16
ENDBRANCH   1  12
TORSDOF 8
ENDMDL
MODEL 5
REMARK VINA RESULT:      -4.8      4.381      6.842
REMARK  8 active torsions:
REMARK  status: ('A' for Active; 'I' for Inactive)
REMARK    1  A    between atoms: O_2  and  P_4 
REMARK    2  A    between atoms: C_3  and  C_7 
REMARK    3  A    between atoms: P_4  and  O_5 
REMARK    4  A    between atoms: O_5  and  C_6 
REMARK    5  A    between atoms: C_6  and  C_7 
REMARK    6  A    between atoms: C_7  and  N_10 
REMARK       I    between atoms: N_10  and  C_11 
REMARK    7  A    between atoms: C_11  and  C_12 
REMARK    8  A    between atoms: C_12  and  N_13 
ROOT
HETATM    1  C           1     -21.098  -4.677  -7.740  0.00  0.00     0.210 C 
ENDROOT
BRANCH   1   2
HETATM    2  C           1     -19.743  -4.231  -8.232  0.00  0.00     0.198 C 
HETATM    3  O           1     -19.624  -3.741  -9.376  0.00  0.00    -0.646 OA
HETATM    4  O           1     -18.740  -4.351  -7.496  0.00  0.00    -0.646 OA
ENDBRANCH   1   2
BRANCH   1   5
HETATM    5  C           1     -20.972  -6.038  -7.068  0.00  0.00     0.217 C 
BRANCH   5   6
HETATM    6  O           1     -20.815  -5.865  -5.686  0.00  0.00    -0.287 OA
BRANCH   6   7
HETATM    7  P           1     -21.984  -6.481  -4.757  0.00  0.00     0.406 P 
HETATM    8  O           1     -21.910  -7.959  -4.786  0.00  0.00    -0.624 OA
HETATM    9  O           1     -21.813  -6.005  -3.367  0.00  0.00    -0.624 OA
BRANCH   7  10
HETATM   10  O           1     -23.422  -6.002  -5.317  0.00  0.00    -0.300 OA
HETATM   11  H           1     -23.273  -5.790  -6.222  0.00  0.00     0.223 HD
ENDBRANCH   7  10
ENDBRANCH   6   7
ENDBRANCH   5   6
ENDBRANCH   1   5
BRANCH   1  12
HETATM   12  N           1     -22.010  -4.775  -8.863  0.00  0.00    -0.343 N 
HETATM   13  C           1     -23.334  -4.468  -8.697  0.00  0.00     0.243 C 
HETATM   14  O           1     -23.742  -4.115  -7.616  0.00  0.00    -0.272 OA
HETATM   15  H           1     -21.670  -5.070  -9.768  0.00  0.00     0.163 HD
BRANCH  13  16
HETATM   16  C           1     -24.284  -4.569  -9.865  0.00  0.00     0.332 C 
BRANCH  16  17
HETATM   17  N           1     -25.421  -3.609  -9.672  0.00  0.00    -0.071 N 
HETATM   18  H           1     -25.593  -3.089 -10.562  0.00  0.00     0.274 HD
HETATM   19  H           1     -26.281  -4.138  -9.406  0.00  0.00     0.274 HD
HETATM   20  H           1     -25.179  -2.932  -8.914  0.00  0.00     0.274 HD
ENDBRANCH  16  17
ENDBRANCH  13  16
ENDBRANCH   1  12
TORSDOF 8
ENDMDL
MODEL 6
REMARK VINA RESULT:      -4.6      6.528      9.453
REMARK  8 active torsions:
REMARK  status: ('A' for Active; 'I' for Inactive)
REMARK    1  A    between atoms: O_2  and  P_4 
REMARK    2  A    between atoms: C_3  and  C_7 
REMARK    3  A    between atoms: P_4  and  O_5 
REMARK    4  A    between atoms: O_5  and  C_6 
REMARK    5  A    between atoms: C_6  and  C_7 
REMARK    6  A    between atoms: C_7  and  N_10 
REMARK       I    between atoms: N_10  and  C_11 
REMARK    7  A    between atoms: C_11  and  C_12 
REMARK    8  A    between atoms: C_12  and  N_13 
ROOT
HETATM    1  C           1     -21.106  -6.620  -4.502  0.00  0.00     0.210 C 
ENDROOT
BRANCH   1   2
HETATM    2  C           1     -20.828  -8.052  -4.887  0.00  0.00     0.198 C 
HETATM    3  O           1     -21.622  -8.956  -4.549  0.00  0.00    -0.646 OA
HETATM    4  O           1     -19.803  -8.335  -5.545  0.00  0.00    -0.646 OA
ENDBRANCH   1   2
BRANCH   1   5
HETATM    5  C           1     -21.898  -6.588  -3.202  0.00  0.00     0.217 C 
BRANCH   5   6
HETATM    6  O           1     -21.076  -6.995  -2.142  0.00  0.00    -0.287 OA
BRANCH   6   7
HETATM    7  P           1     -21.782  -7.898  -1.004  0.00  0.00     0.406 P 
HETATM    8  O           1     -20.816  -8.163   0.086  0.00  0.00    -0.624 OA
HETATM    9  O           1     -22.955  -7.179  -0.461  0.00  0.00    -0.624 OA
BRANCH   7  10
HETATM   10  O           1     -22.262  -9.299  -1.651  0.00  0.00    -0.300 OA
HETATM   11  H           1     -22.087  -9.214  -2.572  0.00  0.00     0.223 HD
ENDBRANCH   7  10
ENDBRANCH   6   7
ENDBRANCH   5   6
ENDBRANCH   1   5
BRANCH   1  12
HETATM   12  N           1     -21.873  -5.979  -5.552  0.00  0.00    -0.343 N 
HETATM   13  C           1     -21.322  -4.953  -6.272  0.00  0.00     0.243 C 
HETATM   14  O           1     -20.197  -4.582  -6.033  0.00  0.00    -0.272 OA
HETATM   15  H           1     -22.815  -6.288  -5.752  0.00  0.00     0.163 HD
BRANCH  13  16
HETATM   16  C           1     -22.121  -4.284  -7.364  0.00  0.00     0.332 C 
BRANCH  16  17
HETATM   17  N           1     -23.584  -4.384  -7.049  0.00  0.00    -0.071 N 
HETATM   18  H           1     -24.041  -5.042  -7.720  0.00  0.00     0.274 HD
HETATM   19  H           1     -23.706  -4.742  -6.075  0.00  0.00     0.274 HD
HETATM   20  H           1     -24.023  -3.441  -7.132  0.00  0.00     0.274 HD
ENDBRANCH  16  17
ENDBRANCH  13  16
ENDBRANCH   1  12
TORSDOF 8
ENDMDL
MODEL 7
REMARK VINA RESULT:      -4.6      7.442      9.193
REMARK  8 active torsions:
REMARK  status: ('A' for Active; 'I' for Inactive)
REMARK    1  A    between atoms: O_2  and  P_4 
REMARK    2  A    between atoms: C_3  and  C_7 
REMARK    3  A    between atoms: P_4  and  O_5 
REMARK    4  A    between atoms: O_5  and  C_6 
REMARK    5  A    between atoms: C_6  and  C_7 
REMARK    6  A    between atoms: C_7  and  N_10 
REMARK       I    between atoms: N_10  and  C_11 
REMARK    7  A    between atoms: C_11  and  C_12 
REMARK    8  A    between atoms: C_12  and  N_13 
ROOT
HETATM    1  C           1     -21.245  -7.829  -2.283  0.00  0.00     0.210 C 
ENDROOT
BRANCH   1   2
HETATM    2  C           1     -22.137  -6.767  -1.687  0.00  0.00     0.198 C 
HETATM    3  O           1     -22.723  -6.980  -0.603  0.00  0.00    -0.646 OA
HETATM    4  O           1     -22.290  -5.676  -2.276  0.00  0.00    -0.646 OA
ENDBRANCH   1   2
BRANCH   1   5
HETATM    5  C           1     -21.554  -7.978  -3.766  0.00  0.00     0.217 C 
BRANCH   5   6
HETATM    6  O           1     -20.558  -7.340  -4.519  0.00  0.00    -0.287 OA
BRANCH   6   7
HETATM    7  P           1     -21.068  -6.211  -5.556  0.00  0.00     0.406 P 
HETATM    8  O           1     -20.294  -4.967  -5.350  0.00  0.00    -0.624 OA
HETATM    9  O           1     -20.873  -6.691  -6.942  0.00  0.00    -0.624 OA
BRANCH   7  10
HETATM   10  O           1     -22.637  -5.919  -5.302  0.00  0.00    -0.300 OA
HETATM   11  H           1     -22.981  -5.689  -6.149  0.00  0.00     0.223 HD
ENDBRANCH   7  10
ENDBRANCH   6   7
ENDBRANCH   5   6
ENDBRANCH   1   5
BRANCH   1  12
HETATM   12  N           1     -21.483  -9.092  -1.610  0.00  0.00    -0.343 N 
HETATM   13  C           1     -20.463  -9.993  -1.468  0.00  0.00     0.243 C 
HETATM   14  O           1     -19.365  -9.738  -1.903  0.00  0.00    -0.272 OA
HETATM   15  H           1     -22.402  -9.307  -1.246  0.00  0.00     0.163 HD
BRANCH  13  16
HETATM   16  C           1     -20.710 -11.308  -0.768  0.00  0.00     0.332 C 
BRANCH  16  17
HETATM   17  N           1     -20.625 -11.109   0.716  0.00  0.00    -0.071 N 
HETATM   18  H           1     -19.847 -10.445   0.935  0.00  0.00     0.274 HD
HETATM   19  H           1     -21.527 -10.715   1.066  0.00  0.00     0.274 HD
HETATM   20  H           1     -20.440 -12.026   1.180  0.00  0.00     0.274 HD
ENDBRANCH  16  17
ENDBRANCH  13  16
ENDBRANCH   1  12
TORSDOF 8
ENDMDL
MODEL 8
REMARK VINA RESULT:      -4.5      5.957      7.707
REMARK  8 active torsions:
REMARK  status: ('A' for Active; 'I' for Inactive)
REMARK    1  A    between atoms: O_2  and  P_4 
REMARK    2  A    between atoms: C_3  and  C_7 
REMARK    3  A    between atoms: P_4  and  O_5 
REMARK    4  A    between atoms: O_5  and  C_6 
REMARK    5  A    between atoms: C_6  and  C_7 
REMARK    6  A    between atoms: C_7  and  N_10 
REMARK       I    between atoms: N_10  and  C_11 
REMARK    7  A    between atoms: C_11  and  C_12 
REMARK    8  A    between atoms: C_12  and  N_13 
ROOT
HETATM    1  C           1     -21.096  -7.141  -3.771  0.00  0.00     0.210 C 
ENDROOT
BRANCH   1   2
HETATM    2  C           1     -21.577  -6.878  -2.365  0.00  0.00     0.198 C 
HETATM    3  O           1     -21.147  -7.570  -1.418  0.00  0.00    -0.646 OA
HETATM    4  O           1     -22.406  -5.967  -2.149  0.00  0.00    -0.646 OA
ENDBRANCH   1   2
BRANCH   1   5
HETATM    5  C           1     -21.728  -6.134  -4.722  0.00  0.00     0.217 C 
BRANCH   5   6
HETATM    6  O           1     -20.779  -5.163  -5.073  0.00  0.00    -0.287 OA
BRANCH   6   7
HETATM    7  P           1     -20.469  -5.013  -6.651  0.00  0.00     0.406 P 
HETATM    8  O           1     -21.347  -3.970  -7.228  0.00  0.00    -0.624 OA
HETATM    9  O           1     -19.054  -4.628  -6.842  0.00  0.00    -0.624 OA
BRANCH   7  10
HETATM   10  O           1     -20.748  -6.422  -7.390  0.00  0.00    -0.300 OA
HETATM   11  H           1     -21.104  -6.982  -6.720  0.00  0.00     0.223 HD
ENDBRANCH   7  10
ENDBRANCH   6   7
ENDBRANCH   5   6
ENDBRANCH   1   5
BRANCH   1  12
HETATM   12  N           1     -21.477  -8.484  -4.167  0.00  0.00    -0.343 N 
HETATM   13  C           1     -20.712  -9.174  -5.068  0.00  0.00     0.243 C 
HETATM   14  O           1     -19.720  -8.665  -5.534  0.00  0.00    -0.272 OA
HETATM   15  H           1     -22.308  -8.910  -3.778  0.00  0.00     0.163 HD
BRANCH  13  16
HETATM   16  C           1     -21.108 -10.571  -5.481  0.00  0.00     0.332 C 
BRANCH  16  17
HETATM   17  N           1     -20.115 -11.100  -6.474  0.00  0.00    -0.071 N 
HETATM   18  H           1     -19.784 -12.043  -6.167  0.00  0.00     0.274 HD
HETATM   19  H           1     -20.570 -11.179  -7.411  0.00  0.00     0.274 HD
HETATM   20  H           1     -19.302 -10.448  -6.534  0.00  0.00     0.274 HD
ENDBRANCH  16  17
ENDBRANCH  13  16
ENDBRANCH   1  12
TORSDOF 8
ENDMDL
MODEL 9
REMARK VINA RESULT:      -4.4      5.977      8.597
REMARK  8 active torsions:
REMARK  status: ('A' for Active; 'I' for Inactive)
REMARK    1  A    between atoms: O_2  and  P_4 
REMARK    2  A    between atoms: C_3  and  C_7 
REMARK    3  A    between atoms: P_4  and  O_5 
REMARK    4  A    between atoms: O_5  and  C_6 
REMARK    5  A    between atoms: C_6  and  C_7 
REMARK    6  A    between atoms: C_7  and  N_10 
REMARK       I    between atoms: N_10  and  C_11 
REMARK    7  A    between atoms: C_11  and  C_12 
REMARK    8  A    between atoms: C_12  and  N_13 
ROOT
HETATM    1  C           1     -21.906  -7.136  -4.432  0.00  0.00     0.210 C 
ENDROOT
BRANCH   1   2
HETATM    2  C           1     -21.651  -6.793  -2.985  0.00  0.00     0.198 C 
HETATM    3  O           1     -22.353  -5.930  -2.415  0.00  0.00    -0.646 OA
HETATM    4  O           1     -20.739  -7.371  -2.357  0.00  0.00    -0.646 OA
ENDBRANCH   1   2
BRANCH   1   5
HETATM    5  C           1     -21.490  -8.577  -4.695  0.00  0.00     0.217 C 
BRANCH   5   6
HETATM    6  O           1     -20.417  -8.598  -5.597  0.00  0.00    -0.287 OA
BRANCH   6   7
HETATM    7  P           1     -19.144  -9.493  -5.163  0.00  0.00     0.406 P 
HETATM    8  O           1     -19.547 -10.914  -5.077  0.00  0.00    -0.624 OA
HETATM    9  O           1     -18.070  -9.344  -6.170  0.00  0.00    -0.624 OA
BRANCH   7  10
HETATM   10  O           1     -18.605  -8.997  -3.723  0.00  0.00    -0.300 OA
HETATM   11  H           1     -18.873  -8.096  -3.660  0.00  0.00     0.223 HD
ENDBRANCH   7  10
ENDBRANCH   6   7
ENDBRANCH   5   6
ENDBRANCH   1   5
BRANCH   1  12
HETATM   12  N           1     -21.134  -6.248  -5.281  0.00  0.00    -0.343 N 
HETATM   13  C           1     -21.773  -5.334  -6.074  0.00  0.00     0.243 C 
HETATM   14  O           1     -22.979  -5.265  -6.067  0.00  0.00    -0.272 OA
HETATM   15  H           1     -20.124  -6.305  -5.288  0.00  0.00     0.163 HD
BRANCH  13  16
HETATM   16  C           1     -20.971  -4.410  -6.958  0.00  0.00     0.332 C 
BRANCH  16  17
HETATM   17  N           1     -21.872  -3.356  -7.531  0.00  0.00    -0.071 N 
HETATM   18  H           1     -22.000  -3.526  -8.555  0.00  0.00     0.274 HD
HETATM   19  H           1     -22.801  -3.396  -7.053  0.00  0.00     0.274 HD
HETATM   20  H           1     -21.445  -2.415  -7.385  0.00  0.00     0.274 HD
ENDBRANCH  16  17
ENDBRANCH  13  16
ENDBRANCH   1  12
TORSDOF 8
ENDMDL
