MODEL 1
REMARK VINA RESULT:      -6.4      0.000      0.000
REMARK  8 active torsions:
REMARK  status: ('A' for Active; 'I' for Inactive)
REMARK    1  A    between atoms: C_1  and  C_19 
REMARK    2  A    between atoms: C_1  and  C_2 
REMARK    3  A    between atoms: C_1  and  N_10 
REMARK    4  A    between atoms: C_2  and  C_3 
REMARK    5  A    between atoms: C_5  and  C_7 
REMARK    6  A    between atoms: C_7  and  C_12 
REMARK    7  A    between atoms: C_8  and  C_12 
REMARK    8  A    between atoms: C_12  and  N_18 
REMARK       I    between atoms: N_18  and  C_19 
ROOT
HETATM    1  O           1     -34.522  -3.057 -13.461  0.00  0.00    -0.271 OA
HETATM    2  H           1     -34.968  -0.645 -11.505  0.00  0.00     0.163 HD
HETATM    3  N           1     -35.047  -1.190 -12.354  0.00  0.00    -0.344 N 
HETATM    4  C           1     -34.428  -2.408 -12.447  0.00  0.00     0.249 C 
ENDROOT
BRANCH   4   5
HETATM    5  C           1     -33.627  -2.938 -11.283  0.00  0.00     0.284 C 
BRANCH   5   6
HETATM    6  C           1     -34.325  -4.160 -10.700  0.00  0.00     0.155 C 
BRANCH   6   7
HETATM    7  C           1     -33.547  -5.402 -11.057  0.00  0.00     0.175 C 
HETATM    8  O           1     -32.466  -5.306 -11.678  0.00  0.00    -0.648 OA
HETATM    9  O           1     -33.983  -6.527 -10.732  0.00  0.00    -0.648 OA
ENDBRANCH   6   7
ENDBRANCH   5   6
BRANCH   5  10
HETATM   10  N           1     -33.516  -1.877 -10.229  0.00  0.00    -0.066 N 
HETATM   11  H           1     -34.081  -1.044 -10.511  0.00  0.00     0.275 HD
HETATM   12  H           1     -33.875  -2.250  -9.321  0.00  0.00     0.275 HD
HETATM   13  H           1     -32.514  -1.598 -10.120  0.00  0.00     0.275 HD
ENDBRANCH   5  10
ENDBRANCH   4   5
BRANCH   3  14
HETATM   14  C           1     -35.817  -0.680 -13.473  0.00  0.00     0.195 C 
BRANCH  14  15
HETATM   15  C           1     -37.090  -0.025 -12.955  0.00  0.00     0.149 C 
BRANCH  15  16
HETATM   16  C           1     -37.167  -0.189 -11.457  0.00  0.00     0.175 C 
HETATM   17  O           1     -37.904  -1.068 -10.961  0.00  0.00    -0.648 OA
HETATM   18  O           1     -36.493   0.556 -10.712  0.00  0.00    -0.648 OA
ENDBRANCH  15  16
ENDBRANCH  14  15
BRANCH  14  19
HETATM   19  C           1     -34.995   0.339 -14.224  0.00  0.00     0.197 C 
HETATM   20  O           1     -34.652   0.119 -15.405  0.00  0.00    -0.646 OA
HETATM   21  O           1     -34.657   1.404 -13.664  0.00  0.00    -0.646 OA
ENDBRANCH  14  19
ENDBRANCH   3  14
TORSDOF 8
ENDMDL
MODEL 2
REMARK VINA RESULT:      -6.1     11.664     13.687
REMARK  8 active torsions:
REMARK  status: ('A' for Active; 'I' for Inactive)
REMARK    1  A    between atoms: C_1  and  C_19 
REMARK    2  A    between atoms: C_1  and  C_2 
REMARK    3  A    between atoms: C_1  and  N_10 
REMARK    4  A    between atoms: C_2  and  C_3 
REMARK    5  A    between atoms: C_5  and  C_7 
REMARK    6  A    between atoms: C_7  and  C_12 
REMARK    7  A    between atoms: C_8  and  C_12 
REMARK    8  A    between atoms: C_12  and  N_18 
REMARK       I    between atoms: N_18  and  C_19 
ROOT
HETATM    1  O           1     -20.307  -5.062  -8.889  0.00  0.00    -0.271 OA
HETATM    2  H           1     -22.988  -3.462  -9.194  0.00  0.00     0.163 HD
HETATM    3  N           1     -22.181  -4.001  -9.480  0.00  0.00    -0.344 N 
HETATM    4  C           1     -21.271  -4.419  -8.546  0.00  0.00     0.249 C 
ENDROOT
BRANCH   4   5
HETATM    5  C           1     -21.471  -4.077  -7.090  0.00  0.00     0.284 C 
BRANCH   5   6
HETATM    6  C           1     -20.478  -4.860  -6.243  0.00  0.00     0.155 C 
BRANCH   6   7
HETATM    7  C           1     -21.174  -6.041  -5.612  0.00  0.00     0.175 C 
HETATM    8  O           1     -21.704  -5.925  -4.485  0.00  0.00    -0.648 OA
HETATM    9  O           1     -21.223  -7.133  -6.215  0.00  0.00    -0.648 OA
ENDBRANCH   6   7
ENDBRANCH   5   6
BRANCH   5  10
HETATM   10  N           1     -22.869  -4.436  -6.681  0.00  0.00    -0.066 N 
HETATM   11  H           1     -23.435  -4.658  -7.530  0.00  0.00     0.275 HD
HETATM   12  H           1     -22.842  -5.270  -6.052  0.00  0.00     0.275 HD
HETATM   13  H           1     -23.301  -3.630  -6.174  0.00  0.00     0.275 HD
ENDBRANCH   5  10
ENDBRANCH   4   5
BRANCH   3  14
HETATM   14  C           1     -21.988  -4.330 -10.879  0.00  0.00     0.195 C 
BRANCH  14  15
HETATM   15  C           1     -23.318  -4.753 -11.488  0.00  0.00     0.149 C 
BRANCH  15  16
HETATM   16  C           1     -24.450  -4.228 -10.639  0.00  0.00     0.175 C 
HETATM   17  O           1     -24.889  -4.912  -9.690  0.00  0.00    -0.648 OA
HETATM   18  O           1     -24.949  -3.109 -10.887  0.00  0.00    -0.648 OA
ENDBRANCH  15  16
ENDBRANCH  14  15
BRANCH  14  19
HETATM   19  C           1     -21.461  -3.120 -11.611  0.00  0.00     0.197 C 
HETATM   20  O           1     -22.157  -2.566 -12.489  0.00  0.00    -0.646 OA
HETATM   21  O           1     -20.328  -2.670 -11.338  0.00  0.00    -0.646 OA
ENDBRANCH  14  19
ENDBRANCH   3  14
TORSDOF 8
ENDMDL
MODEL 3
REMARK VINA RESULT:      -6.0      2.253      5.544
REMARK  8 active torsions:
REMARK  status: ('A' for Active; 'I' for Inactive)
REMARK    1  A    between atoms: C_1  and  C_19 
REMARK    2  A    between atoms: C_1  and  C_2 
REMARK    3  A    between atoms: C_1  and  N_10 
REMARK    4  A    between atoms: C_2  and  C_3 
REMARK    5  A    between atoms: C_5  and  C_7 
REMARK    6  A    between atoms: C_7  and  C_12 
REMARK    7  A    between atoms: C_8  and  C_12 
REMARK    8  A    between atoms: C_12  and  N_18 
REMARK       I    between atoms: N_18  and  C_19 
ROOT
HETATM    1  O           1     -37.053  -0.858 -13.104  0.00  0.00    -0.271 OA
HETATM    2  H           1     -33.924  -0.922 -13.322  0.00  0.00     0.163 HD
HETATM    3  N           1     -34.846  -1.187 -13.000  0.00  0.00    -0.344 N 
HETATM    4  C           1     -35.952  -0.543 -13.488  0.00  0.00     0.249 C 
ENDROOT
BRANCH   4   5
HETATM    5  C           1     -35.795   0.561 -14.505  0.00  0.00     0.284 C 
BRANCH   5   6
HETATM    6  C           1     -37.010   0.583 -15.423  0.00  0.00     0.155 C 
BRANCH   6   7
HETATM    7  C           1     -37.003  -0.645 -16.299  0.00  0.00     0.175 C 
HETATM    8  O           1     -36.058  -0.839 -17.095  0.00  0.00    -0.648 OA
HETATM    9  O           1     -37.939  -1.468 -16.229  0.00  0.00    -0.648 OA
ENDBRANCH   6   7
ENDBRANCH   5   6
BRANCH   5  10
HETATM   10  N           1     -34.559   0.318 -15.320  0.00  0.00    -0.066 N 
HETATM   11  H           1     -34.086  -0.551 -14.985  0.00  0.00     0.275 HD
HETATM   12  H           1     -34.823   0.205 -16.324  0.00  0.00     0.275 HD
HETATM   13  H           1     -33.910   1.131 -15.218  0.00  0.00     0.275 HD
ENDBRANCH   5  10
ENDBRANCH   4   5
BRANCH   3  14
HETATM   14  C           1     -34.997  -2.248 -12.024  0.00  0.00     0.195 C 
BRANCH  14  15
HETATM   15  C           1     -33.969  -3.338 -12.296  0.00  0.00     0.149 C 
BRANCH  15  16
HETATM   16  C           1     -34.427  -4.182 -13.460  0.00  0.00     0.175 C 
HETATM   17  O           1     -35.031  -5.257 -13.253  0.00  0.00    -0.648 OA
HETATM   18  O           1     -34.204  -3.805 -14.631  0.00  0.00    -0.648 OA
ENDBRANCH  15  16
ENDBRANCH  14  15
BRANCH  14  19
HETATM   19  C           1     -34.783  -1.688 -10.639  0.00  0.00     0.197 C 
HETATM   20  O           1     -35.710  -1.084 -10.057  0.00  0.00    -0.646 OA
HETATM   21  O           1     -33.677  -1.829 -10.072  0.00  0.00    -0.646 OA
ENDBRANCH  14  19
ENDBRANCH   3  14
TORSDOF 8
ENDMDL
MODEL 4
REMARK VINA RESULT:      -6.0     11.862     14.696
REMARK  8 active torsions:
REMARK  status: ('A' for Active; 'I' for Inactive)
REMARK    1  A    between atoms: C_1  and  C_19 
REMARK    2  A    between atoms: C_1  and  C_2 
REMARK    3  A    between atoms: C_1  and  N_10 
REMARK    4  A    between atoms: C_2  and  C_3 
REMARK    5  A    between atoms: C_5  and  C_7 
REMARK    6  A    between atoms: C_7  and  C_12 
REMARK    7  A    between atoms: C_8  and  C_12 
REMARK    8  A    between atoms: C_12  and  N_18 
REMARK       I    between atoms: N_18  and  C_19 
ROOT
HETATM    1  O           1     -21.688  -3.173  -8.569  0.00  0.00    -0.271 OA
HETATM    2  H           1     -22.682  -5.678  -6.963  0.00  0.00     0.163 HD
HETATM    3  N           1     -22.077  -4.907  -7.217  0.00  0.00    -0.344 N 
HETATM    4  C           1     -22.411  -4.092  -8.266  0.00  0.00     0.249 C 
ENDROOT
BRANCH   4   5
HETATM    5  C           1     -23.681  -4.342  -9.042  0.00  0.00     0.284 C 
BRANCH   5   6
HETATM    6  C           1     -23.342  -4.573 -10.509  0.00  0.00     0.155 C 
BRANCH   6   7
HETATM    7  C           1     -23.758  -3.368 -11.317  0.00  0.00     0.175 C 
HETATM    8  O           1     -22.915  -2.494 -11.614  0.00  0.00    -0.648 OA
HETATM    9  O           1     -24.944  -3.245 -11.690  0.00  0.00    -0.648 OA
ENDBRANCH   6   7
ENDBRANCH   5   6
BRANCH   5  10
HETATM   10  N           1     -24.584  -3.151  -8.920  0.00  0.00    -0.066 N 
HETATM   11  H           1     -25.443  -3.305  -9.494  0.00  0.00     0.275 HD
HETATM   12  H           1     -24.853  -3.021  -7.918  0.00  0.00     0.275 HD
HETATM   13  H           1     -24.084  -2.299  -9.261  0.00  0.00     0.275 HD
ENDBRANCH   5  10
ENDBRANCH   4   5
BRANCH   3  14
HETATM   14  C           1     -20.857  -4.667  -6.471  0.00  0.00     0.195 C 
BRANCH  14  15
HETATM   15  C           1     -20.932  -5.388  -5.132  0.00  0.00     0.149 C 
BRANCH  15  16
HETATM   16  C           1     -22.029  -6.422  -5.178  0.00  0.00     0.175 C 
HETATM   17  O           1     -21.757  -7.611  -5.455  0.00  0.00    -0.648 OA
HETATM   18  O           1     -23.210  -6.091  -4.939  0.00  0.00    -0.648 OA
ENDBRANCH  15  16
ENDBRANCH  14  15
BRANCH  14  19
HETATM   19  C           1     -19.678  -5.184  -7.258  0.00  0.00     0.197 C 
HETATM   20  O           1     -18.683  -4.452  -7.449  0.00  0.00    -0.646 OA
HETATM   21  O           1     -19.696  -6.346  -7.719  0.00  0.00    -0.646 OA
ENDBRANCH  14  19
ENDBRANCH   3  14
TORSDOF 8
ENDMDL
MODEL 5
REMARK VINA RESULT:      -5.9     12.139     14.378
REMARK  8 active torsions:
REMARK  status: ('A' for Active; 'I' for Inactive)
REMARK    1  A    between atoms: C_1  and  C_19 
REMARK    2  A    between atoms: C_1  and  C_2 
REMARK    3  A    between atoms: C_1  and  N_10 
REMARK    4  A    between atoms: C_2  and  C_3 
REMARK    5  A    between atoms: C_5  and  C_7 
REMARK    6  A    between atoms: C_7  and  C_12 
REMARK    7  A    between atoms: C_8  and  C_12 
REMARK    8  A    between atoms: C_12  and  N_18 
REMARK       I    between atoms: N_18  and  C_19 
ROOT
HETATM    1  O           1     -21.587  -3.481  -7.251  0.00  0.00    -0.271 OA
HETATM    2  H           1     -22.396  -5.823  -9.174  0.00  0.00     0.163 HD
HETATM    3  N           1     -22.300  -4.871  -8.847  0.00  0.00    -0.344 N 
HETATM    4  C           1     -21.700  -4.618  -7.642  0.00  0.00     0.249 C 
ENDROOT
BRANCH   4   5
HETATM    5  C           1     -21.181  -5.761  -6.803  0.00  0.00     0.284 C 
BRANCH   5   6
HETATM    6  C           1     -20.953  -5.280  -5.376  0.00  0.00     0.155 C 
BRANCH   6   7
HETATM    7  C           1     -21.430  -6.335  -4.407  0.00  0.00     0.175 C 
HETATM    8  O           1     -21.268  -7.546  -4.673  0.00  0.00    -0.648 OA
HETATM    9  O           1     -21.986  -5.998  -3.341  0.00  0.00    -0.648 OA
ENDBRANCH   6   7
ENDBRANCH   5   6
BRANCH   5  10
HETATM   10  N           1     -19.886  -6.253  -7.377  0.00  0.00    -0.066 N 
HETATM   11  H           1     -19.275  -5.438  -7.609  0.00  0.00     0.275 HD
HETATM   12  H           1     -19.405  -6.861  -6.676  0.00  0.00     0.275 HD
HETATM   13  H           1     -20.077  -6.805  -8.245  0.00  0.00     0.275 HD
ENDBRANCH   5  10
ENDBRANCH   4   5
BRANCH   3  14
HETATM   14  C           1     -22.799  -3.773  -9.653  0.00  0.00     0.195 C 
BRANCH  14  15
HETATM   15  C           1     -22.240  -3.887 -11.065  0.00  0.00     0.149 C 
BRANCH  15  16
HETATM   16  C           1     -20.741  -3.728 -11.028  0.00  0.00     0.175 C 
HETATM   17  O           1     -20.015  -4.703 -10.740  0.00  0.00    -0.648 OA
HETATM   18  O           1     -20.224  -2.618 -11.284  0.00  0.00    -0.648 OA
ENDBRANCH  15  16
ENDBRANCH  14  15
BRANCH  14  19
HETATM   19  C           1     -24.306  -3.831  -9.701  0.00  0.00     0.197 C 
HETATM   20  O           1     -24.887  -4.926  -9.858  0.00  0.00    -0.646 OA
HETATM   21  O           1     -24.975  -2.781  -9.582  0.00  0.00    -0.646 OA
ENDBRANCH  14  19
ENDBRANCH   3  14
TORSDOF 8
ENDMDL
MODEL 6
REMARK VINA RESULT:      -5.8      9.688     11.667
REMARK  8 active torsions:
REMARK  status: ('A' for Active; 'I' for Inactive)
REMARK    1  A    between atoms: C_1  and  C_19 
REMARK    2  A    between atoms: C_1  and  C_2 
REMARK    3  A    between atoms: C_1  and  N_10 
REMARK    4  A    between atoms: C_2  and  C_3 
REMARK    5  A    between atoms: C_5  and  C_7 
REMARK    6  A    between atoms: C_7  and  C_12 
REMARK    7  A    between atoms: C_8  and  C_12 
REMARK    8  A    between atoms: C_12  and  N_18 
REMARK       I    between atoms: N_18  and  C_19 
ROOT
HETATM    1  O           1     -28.267  -5.273 -19.114  0.00  0.00    -0.271 OA
HETATM    2  H           1     -27.042  -8.046 -18.307  0.00  0.00     0.163 HD
HETATM    3  N           1     -27.063  -7.098 -18.661  0.00  0.00    -0.344 N 
HETATM    4  C           1     -28.243  -6.404 -18.690  0.00  0.00     0.249 C 
ENDROOT
BRANCH   4   5
HETATM    5  C           1     -29.512  -7.052 -18.194  0.00  0.00     0.284 C 
BRANCH   5   6
HETATM    6  C           1     -29.423  -7.257 -16.688  0.00  0.00     0.155 C 
BRANCH   6   7
HETATM    7  C           1     -29.610  -5.933 -15.987  0.00  0.00     0.175 C 
HETATM    8  O           1     -28.775  -5.553 -15.138  0.00  0.00    -0.648 OA
HETATM    9  O           1     -30.597  -5.217 -16.257  0.00  0.00    -0.648 OA
ENDBRANCH   6   7
ENDBRANCH   5   6
BRANCH   5  10
HETATM   10  N           1     -29.692  -8.379 -18.869  0.00  0.00    -0.066 N 
HETATM   11  H           1     -29.369  -9.141 -18.231  0.00  0.00     0.275 HD
HETATM   12  H           1     -30.702  -8.520 -19.095  0.00  0.00     0.275 HD
HETATM   13  H           1     -29.130  -8.400 -19.751  0.00  0.00     0.275 HD
ENDBRANCH   5  10
ENDBRANCH   4   5
BRANCH   3  14
HETATM   14  C           1     -25.843  -6.476 -19.137  0.00  0.00     0.195 C 
BRANCH  14  15
HETATM   15  C           1     -24.670  -6.939 -18.282  0.00  0.00     0.149 C 
BRANCH  15  16
HETATM   16  C           1     -25.043  -6.845 -16.824  0.00  0.00     0.175 C 
HETATM   17  O           1     -24.728  -7.763 -16.037  0.00  0.00    -0.648 OA
HETATM   18  O           1     -25.668  -5.847 -16.402  0.00  0.00    -0.648 OA
ENDBRANCH  15  16
ENDBRANCH  14  15
BRANCH  14  19
HETATM   19  C           1     -25.606  -6.871 -20.574  0.00  0.00     0.197 C 
HETATM   20  O           1     -25.152  -6.037 -21.386  0.00  0.00    -0.646 OA
HETATM   21  O           1     -25.865  -8.034 -20.953  0.00  0.00    -0.646 OA
ENDBRANCH  14  19
ENDBRANCH   3  14
TORSDOF 8
ENDMDL
MODEL 7
REMARK VINA RESULT:      -5.7     11.752     14.316
REMARK  8 active torsions:
REMARK  status: ('A' for Active; 'I' for Inactive)
REMARK    1  A    between atoms: C_1  and  C_19 
REMARK    2  A    between atoms: C_1  and  C_2 
REMARK    3  A    between atoms: C_1  and  N_10 
REMARK    4  A    between atoms: C_2  and  C_3 
REMARK    5  A    between atoms: C_5  and  C_7 
REMARK    6  A    between atoms: C_7  and  C_12 
REMARK    7  A    between atoms: C_8  and  C_12 
REMARK    8  A    between atoms: C_12  and  N_18 
REMARK       I    between atoms: N_18  and  C_19 
ROOT
HETATM    1  O           1     -20.606  -2.923 -10.773  0.00  0.00    -0.271 OA
HETATM    2  H           1     -21.953  -5.241  -9.145  0.00  0.00     0.163 HD
HETATM    3  N           1     -21.357  -4.443  -9.319  0.00  0.00    -0.344 N 
HETATM    4  C           1     -21.319  -3.875 -10.565  0.00  0.00     0.249 C 
ENDROOT
BRANCH   4   5
HETATM    5  C           1     -22.169  -4.440 -11.677  0.00  0.00     0.284 C 
BRANCH   5   6
HETATM    6  C           1     -22.627  -3.310 -12.590  0.00  0.00     0.155 C 
BRANCH   6   7
HETATM    7  C           1     -24.104  -3.451 -12.864  0.00  0.00     0.175 C 
HETATM    8  O           1     -24.936  -2.977 -12.061  0.00  0.00    -0.648 OA
HETATM    9  O           1     -24.495  -4.041 -13.893  0.00  0.00    -0.648 OA
ENDBRANCH   6   7
ENDBRANCH   5   6
BRANCH   5  10
HETATM   10  N           1     -23.367  -5.126 -11.092  0.00  0.00    -0.066 N 
HETATM   11  H           1     -24.214  -4.529 -11.232  0.00  0.00     0.275 HD
HETATM   12  H           1     -23.508  -6.045 -11.568  0.00  0.00     0.275 HD
HETATM   13  H           1     -23.214  -5.281 -10.069  0.00  0.00     0.275 HD
ENDBRANCH   5  10
ENDBRANCH   4   5
BRANCH   3  14
HETATM   14  C           1     -20.541  -3.901  -8.250  0.00  0.00     0.195 C 
BRANCH  14  15
HETATM   15  C           1     -21.437  -3.467  -7.099  0.00  0.00     0.149 C 
BRANCH  15  16
HETATM   16  C           1     -22.623  -4.395  -7.006  0.00  0.00     0.175 C 
HETATM   17  O           1     -22.660  -5.275  -6.119  0.00  0.00    -0.648 OA
HETATM   18  O           1     -23.567  -4.285  -7.818  0.00  0.00    -0.648 OA
ENDBRANCH  15  16
ENDBRANCH  14  15
BRANCH  14  19
HETATM   19  C           1     -19.578  -4.958  -7.769  0.00  0.00     0.197 C 
HETATM   20  O           1     -19.875  -6.168  -7.870  0.00  0.00    -0.646 OA
HETATM   21  O           1     -18.482  -4.624  -7.269  0.00  0.00    -0.646 OA
ENDBRANCH  14  19
ENDBRANCH   3  14
TORSDOF 8
ENDMDL
MODEL 8
REMARK VINA RESULT:      -5.5     11.372     13.423
REMARK  8 active torsions:
REMARK  status: ('A' for Active; 'I' for Inactive)
REMARK    1  A    between atoms: C_1  and  C_19 
REMARK    2  A    between atoms: C_1  and  C_2 
REMARK    3  A    between atoms: C_1  and  N_10 
REMARK    4  A    between atoms: C_2  and  C_3 
REMARK    5  A    between atoms: C_5  and  C_7 
REMARK    6  A    between atoms: C_7  and  C_12 
REMARK    7  A    between atoms: C_8  and  C_12 
REMARK    8  A    between atoms: C_12  and  N_18 
REMARK       I    between atoms: N_18  and  C_19 
ROOT
HETATM    1  O           1     -22.074  -3.317  -8.211  0.00  0.00    -0.271 OA
HETATM    2  H           1     -21.997  -5.473 -10.488  0.00  0.00     0.163 HD
HETATM    3  N           1     -22.273  -4.625 -10.010  0.00  0.00    -0.344 N 
HETATM    4  C           1     -21.743  -4.329  -8.782  0.00  0.00     0.249 C 
ENDROOT
BRANCH   4   5
HETATM    5  C           1     -20.748  -5.266  -8.143  0.00  0.00     0.284 C 
BRANCH   5   6
HETATM    6  C           1     -21.452  -6.114  -7.092  0.00  0.00     0.155 C 
BRANCH   6   7
HETATM    7  C           1     -20.488  -6.439  -5.978  0.00  0.00     0.175 C 
HETATM    8  O           1     -20.559  -5.825  -4.891  0.00  0.00    -0.648 OA
HETATM    9  O           1     -19.618  -7.320  -6.141  0.00  0.00    -0.648 OA
ENDBRANCH   6   7
ENDBRANCH   5   6
BRANCH   5  10
HETATM   10  N           1     -19.658  -4.468  -7.492  0.00  0.00    -0.066 N 
HETATM   11  H           1     -20.008  -4.068  -6.592  0.00  0.00     0.275 HD
HETATM   12  H           1     -18.840  -5.090  -7.301  0.00  0.00     0.275 HD
HETATM   13  H           1     -19.366  -3.692  -8.129  0.00  0.00     0.275 HD
ENDBRANCH   5  10
ENDBRANCH   4   5
BRANCH   3  14
HETATM   14  C           1     -23.229  -3.725 -10.624  0.00  0.00     0.195 C 
BRANCH  14  15
HETATM   15  C           1     -23.426  -4.114 -12.084  0.00  0.00     0.149 C 
BRANCH  15  16
HETATM   16  C           1     -24.111  -2.986 -12.816  0.00  0.00     0.175 C 
HETATM   17  O           1     -23.432  -2.145 -13.445  0.00  0.00    -0.648 OA
HETATM   18  O           1     -25.357  -2.893 -12.795  0.00  0.00    -0.648 OA
ENDBRANCH  15  16
ENDBRANCH  14  15
BRANCH  14  19
HETATM   19  C           1     -24.546  -3.818  -9.895  0.00  0.00     0.197 C 
HETATM   20  O           1     -25.077  -4.933  -9.701  0.00  0.00    -0.646 OA
HETATM   21  O           1     -25.108  -2.780  -9.484  0.00  0.00    -0.646 OA
ENDBRANCH  14  19
ENDBRANCH   3  14
TORSDOF 8
ENDMDL
MODEL 9
REMARK VINA RESULT:      -5.5      6.544      9.012
REMARK  8 active torsions:
REMARK  status: ('A' for Active; 'I' for Inactive)
REMARK    1  A    between atoms: C_1  and  C_19 
REMARK    2  A    between atoms: C_1  and  C_2 
REMARK    3  A    between atoms: C_1  and  N_10 
REMARK    4  A    between atoms: C_2  and  C_3 
REMARK    5  A    between atoms: C_5  and  C_7 
REMARK    6  A    between atoms: C_7  and  C_12 
REMARK    7  A    between atoms: C_8  and  C_12 
REMARK    8  A    between atoms: C_12  and  N_18 
REMARK       I    between atoms: N_18  and  C_19 
ROOT
HETATM    1  O           1     -30.523  -4.501 -18.085  0.00  0.00    -0.271 OA
HETATM    2  H           1     -31.456  -6.868 -16.249  0.00  0.00     0.163 HD
HETATM    3  N           1     -30.889  -6.376 -16.928  0.00  0.00    -0.344 N 
HETATM    4  C           1     -31.199  -5.088 -17.274  0.00  0.00     0.249 C 
ENDROOT
BRANCH   4   5
HETATM    5  C           1     -32.386  -4.402 -16.642  0.00  0.00     0.284 C 
BRANCH   5   6
HETATM    6  C           1     -33.546  -5.384 -16.541  0.00  0.00     0.155 C 
BRANCH   6   7
HETATM    7  C           1     -34.498  -4.929 -15.462  0.00  0.00     0.175 C 
HETATM    8  O           1     -34.336  -3.817 -14.914  0.00  0.00    -0.648 OA
HETATM    9  O           1     -35.447  -5.663 -15.116  0.00  0.00    -0.648 OA
ENDBRANCH   6   7
ENDBRANCH   5   6
BRANCH   5  10
HETATM   10  N           1     -32.795  -3.232 -17.488  0.00  0.00    -0.066 N 
HETATM   11  H           1     -33.361  -3.569 -18.299  0.00  0.00     0.275 HD
HETATM   12  H           1     -33.367  -2.573 -16.914  0.00  0.00     0.275 HD
HETATM   13  H           1     -31.941  -2.741 -17.837  0.00  0.00     0.275 HD
ENDBRANCH   5  10
ENDBRANCH   4   5
BRANCH   3  14
HETATM   14  C           1     -29.749  -7.036 -17.534  0.00  0.00     0.195 C 
BRANCH  14  15
HETATM   15  C           1     -29.017  -7.855 -16.480  0.00  0.00     0.149 C 
BRANCH  15  16
HETATM   16  C           1     -28.016  -6.979 -15.768  0.00  0.00     0.175 C 
HETATM   17  O           1     -26.924  -7.457 -15.391  0.00  0.00    -0.648 OA
HETATM   18  O           1     -28.278  -5.775 -15.556  0.00  0.00    -0.648 OA
ENDBRANCH  15  16
ENDBRANCH  14  15
BRANCH  14  19
HETATM   19  C           1     -30.226  -7.947 -18.639  0.00  0.00     0.197 C 
HETATM   20  O           1     -31.418  -7.907 -19.012  0.00  0.00    -0.646 OA
HETATM   21  O           1     -29.428  -8.741 -19.181  0.00  0.00    -0.646 OA
ENDBRANCH  14  19
ENDBRANCH   3  14
TORSDOF 8
ENDMDL
