MODEL 1
REMARK VINA RESULT:      -6.4      0.000      0.000
REMARK  10 active torsions:
REMARK  status: ('A' for Active; 'I' for Inactive)
REMARK    1  A    between atoms: N_1  and  C_7 
REMARK    2  A    between atoms: C_4  and  C_5 
REMARK    3  A    between atoms: C_4  and  C_14 
REMARK    4  A    between atoms: C_5  and  C_6 
REMARK    5  A    between atoms: C_6  and  N_20 
REMARK    6  A    between atoms: C_7  and  C_19 
REMARK    7  A    between atoms: C_7  and  C_8 
REMARK    8  A    between atoms: C_14  and  C_17 
REMARK    9  A    between atoms: C_16  and  C_17 
REMARK   10  A    between atoms: C_17  and  N_24 
REMARK       I    between atoms: C_19  and  N_24 
ROOT
HETATM    1  C           1     -35.803  -0.370 -11.975  0.00  0.00     0.185 C 
ENDROOT
BRANCH   1   2
HETATM    2  C           1     -36.280   0.416 -13.189  0.00  0.00     0.036 C 
BRANCH   2   3
HETATM    3  C           1     -35.080   0.831 -14.030  0.00  0.00     0.004 C 
BRANCH   3   4
HETATM    4  C           1     -35.514   1.023 -15.477  0.00  0.00     0.027 C 
BRANCH   4   5
HETATM    5  C           1     -36.617   0.028 -15.813  0.00  0.00     0.229 C 
BRANCH   5   6
HETATM    6  N           1     -36.268  -0.699 -17.078  0.00  0.00    -0.079 N 
HETATM    7  H           1     -35.347  -1.177 -16.963  0.00  0.00     0.274 HD
HETATM    8  H           1     -36.211  -0.015 -17.867  0.00  0.00     0.274 HD
HETATM    9  H           1     -37.005  -1.410 -17.287  0.00  0.00     0.274 HD
ENDBRANCH   5   6
ENDBRANCH   4   5
ENDBRANCH   3   4
ENDBRANCH   2   3
ENDBRANCH   1   2
BRANCH   1  10
HETATM   10  C           1     -36.835  -0.279 -10.879  0.00  0.00     0.196 C 
HETATM   11  O           1     -36.607   0.410  -9.861  0.00  0.00    -0.646 OA
HETATM   12  O           1     -37.919  -0.893 -10.988  0.00  0.00    -0.646 OA
ENDBRANCH   1  10
BRANCH   1  13
HETATM   13  N           1     -35.611  -1.759 -12.344  0.00  0.00    -0.345 N 
HETATM   14  C           1     -34.518  -2.445 -11.888  0.00  0.00     0.249 C 
HETATM   15  O           1     -33.711  -1.891 -11.177  0.00  0.00    -0.271 OA
HETATM   16  H           1     -36.287  -2.223 -12.939  0.00  0.00     0.163 HD
BRANCH  14  17
HETATM   17  C           1     -34.318  -3.890 -12.271  0.00  0.00     0.278 C 
BRANCH  17  18
HETATM   18  N           1     -33.833  -3.968 -13.689  0.00  0.00    -0.066 N 
HETATM   19  H           1     -33.394  -4.902 -13.855  0.00  0.00     0.275 HD
HETATM   20  H           1     -34.641  -3.842 -14.339  0.00  0.00     0.275 HD
HETATM   21  H           1     -33.127  -3.216 -13.856  0.00  0.00     0.275 HD
ENDBRANCH  17  18
BRANCH  17  22
HETATM   22  C           1     -33.287  -4.524 -11.347  0.00  0.00     0.017 C 
HETATM   23  C           1     -31.999  -4.777 -12.121  0.00  0.00     0.012 C 
HETATM   24  C           1     -33.825  -5.844 -10.813  0.00  0.00     0.012 C 
ENDBRANCH  17  22
ENDBRANCH  14  17
ENDBRANCH   1  13
TORSDOF 10
ENDMDL
MODEL 2
REMARK VINA RESULT:      -6.3      1.531      5.196
REMARK  10 active torsions:
REMARK  status: ('A' for Active; 'I' for Inactive)
REMARK    1  A    between atoms: N_1  and  C_7 
REMARK    2  A    between atoms: C_4  and  C_5 
REMARK    3  A    between atoms: C_4  and  C_14 
REMARK    4  A    between atoms: C_5  and  C_6 
REMARK    5  A    between atoms: C_6  and  N_20 
REMARK    6  A    between atoms: C_7  and  C_19 
REMARK    7  A    between atoms: C_7  and  C_8 
REMARK    8  A    between atoms: C_14  and  C_17 
REMARK    9  A    between atoms: C_16  and  C_17 
REMARK   10  A    between atoms: C_17  and  N_24 
REMARK       I    between atoms: C_19  and  N_24 
ROOT
HETATM    1  C           1     -35.265  -1.782 -11.545  0.00  0.00     0.185 C 
ENDROOT
BRANCH   1   2
HETATM    2  C           1     -33.876  -1.830 -10.922  0.00  0.00     0.036 C 
BRANCH   2   3
HETATM    3  C           1     -33.225  -3.171 -11.233  0.00  0.00     0.004 C 
BRANCH   3   4
HETATM    4  C           1     -33.957  -4.278 -10.485  0.00  0.00     0.027 C 
BRANCH   4   5
HETATM    5  C           1     -34.009  -5.529 -11.352  0.00  0.00     0.229 C 
BRANCH   5   6
HETATM    6  N           1     -34.603  -5.190 -12.686  0.00  0.00    -0.079 N 
HETATM    7  H           1     -35.639  -5.097 -12.593  0.00  0.00     0.274 HD
HETATM    8  H           1     -34.380  -5.950 -13.369  0.00  0.00     0.274 HD
HETATM    9  H           1     -34.202  -4.288 -13.028  0.00  0.00     0.274 HD
ENDBRANCH   5   6
ENDBRANCH   4   5
ENDBRANCH   3   4
ENDBRANCH   2   3
ENDBRANCH   1   2
BRANCH   1  10
HETATM   10  C           1     -36.261  -1.302 -10.519  0.00  0.00     0.196 C 
HETATM   11  O           1     -35.862  -0.738  -9.478  0.00  0.00    -0.646 OA
HETATM   12  O           1     -37.485  -1.468 -10.711  0.00  0.00    -0.646 OA
ENDBRANCH   1  10
BRANCH   1  13
HETATM   13  N           1     -35.257  -0.871 -12.673  0.00  0.00    -0.345 N 
HETATM   14  C           1     -35.058  -1.351 -13.940  0.00  0.00     0.249 C 
HETATM   15  O           1     -34.889  -2.535 -14.118  0.00  0.00    -0.271 OA
HETATM   16  H           1     -35.398   0.120 -12.524  0.00  0.00     0.163 HD
BRANCH  14  17
HETATM   17  C           1     -35.050  -0.403 -15.114  0.00  0.00     0.278 C 
BRANCH  17  18
HETATM   18  N           1     -35.073  -1.190 -16.391  0.00  0.00    -0.066 N 
HETATM   19  H           1     -34.811  -0.567 -17.188  0.00  0.00     0.275 HD
HETATM   20  H           1     -34.391  -1.978 -16.325  0.00  0.00     0.275 HD
HETATM   21  H           1     -36.034  -1.571 -16.547  0.00  0.00     0.275 HD
ENDBRANCH  17  18
BRANCH  17  22
HETATM   22  C           1     -36.277   0.496 -15.050  0.00  0.00     0.017 C 
HETATM   23  C           1     -37.440  -0.181 -15.766  0.00  0.00     0.012 C 
HETATM   24  C           1     -35.970   1.825 -15.726  0.00  0.00     0.012 C 
ENDBRANCH  17  22
ENDBRANCH  14  17
ENDBRANCH   1  13
TORSDOF 10
ENDMDL
MODEL 3
REMARK VINA RESULT:      -6.2      2.020      6.196
REMARK  10 active torsions:
REMARK  status: ('A' for Active; 'I' for Inactive)
REMARK    1  A    between atoms: N_1  and  C_7 
REMARK    2  A    between atoms: C_4  and  C_5 
REMARK    3  A    between atoms: C_4  and  C_14 
REMARK    4  A    between atoms: C_5  and  C_6 
REMARK    5  A    between atoms: C_6  and  N_20 
REMARK    6  A    between atoms: C_7  and  C_19 
REMARK    7  A    between atoms: C_7  and  C_8 
REMARK    8  A    between atoms: C_14  and  C_17 
REMARK    9  A    between atoms: C_16  and  C_17 
REMARK   10  A    between atoms: C_17  and  N_24 
REMARK       I    between atoms: C_19  and  N_24 
ROOT
HETATM    1  C           1     -34.799  -2.785 -11.810  0.00  0.00     0.185 C 
ENDROOT
BRANCH   1   2
HETATM    2  C           1     -33.987  -4.073 -11.789  0.00  0.00     0.036 C 
BRANCH   2   3
HETATM    3  C           1     -34.306  -4.855 -10.522  0.00  0.00     0.004 C 
BRANCH   3   4
HETATM    4  C           1     -34.041  -6.337 -10.758  0.00  0.00     0.027 C 
BRANCH   4   5
HETATM    5  C           1     -34.928  -7.164  -9.839  0.00  0.00     0.229 C 
BRANCH   5   6
HETATM    6  N           1     -34.319  -8.521  -9.641  0.00  0.00    -0.079 N 
HETATM    7  H           1     -33.464  -8.608 -10.234  0.00  0.00     0.274 HD
HETATM    8  H           1     -35.011  -9.256  -9.913  0.00  0.00     0.274 HD
HETATM    9  H           1     -34.059  -8.643  -8.636  0.00  0.00     0.274 HD
ENDBRANCH   5   6
ENDBRANCH   4   5
ENDBRANCH   3   4
ENDBRANCH   2   3
ENDBRANCH   1   2
BRANCH   1  10
HETATM   10  C           1     -34.370  -1.900 -10.667  0.00  0.00     0.196 C 
HETATM   11  O           1     -33.155  -1.690 -10.461  0.00  0.00    -0.646 OA
HETATM   12  O           1     -35.230  -1.376  -9.925  0.00  0.00    -0.646 OA
ENDBRANCH   1  10
BRANCH   1  13
HETATM   13  N           1     -34.575  -2.094 -13.065  0.00  0.00    -0.345 N 
HETATM   14  C           1     -35.537  -1.261 -13.570  0.00  0.00     0.249 C 
HETATM   15  O           1     -36.574  -1.102 -12.969  0.00  0.00    -0.271 OA
HETATM   16  H           1     -33.707  -2.227 -13.569  0.00  0.00     0.163 HD
BRANCH  14  17
HETATM   17  C           1     -35.305  -0.542 -14.876  0.00  0.00     0.278 C 
BRANCH  17  18
HETATM   18  N           1     -35.068  -1.548 -15.964  0.00  0.00    -0.066 N 
HETATM   19  H           1     -35.080  -2.510 -15.557  0.00  0.00     0.275 HD
HETATM   20  H           1     -35.820  -1.465 -16.683  0.00  0.00     0.275 HD
HETATM   21  H           1     -34.138  -1.368 -16.407  0.00  0.00     0.275 HD
ENDBRANCH  17  18
BRANCH  17  22
HETATM   22  C           1     -36.529   0.296 -15.219  0.00  0.00     0.017 C 
HETATM   23  C           1     -37.373  -0.437 -16.255  0.00  0.00     0.012 C 
HETATM   24  C           1     -36.084   1.638 -15.786  0.00  0.00     0.012 C 
ENDBRANCH  17  22
ENDBRANCH  14  17
ENDBRANCH   1  13
TORSDOF 10
ENDMDL
MODEL 4
REMARK VINA RESULT:      -5.6     12.277     15.781
REMARK  10 active torsions:
REMARK  status: ('A' for Active; 'I' for Inactive)
REMARK    1  A    between atoms: N_1  and  C_7 
REMARK    2  A    between atoms: C_4  and  C_5 
REMARK    3  A    between atoms: C_4  and  C_14 
REMARK    4  A    between atoms: C_5  and  C_6 
REMARK    5  A    between atoms: C_6  and  N_20 
REMARK    6  A    between atoms: C_7  and  C_19 
REMARK    7  A    between atoms: C_7  and  C_8 
REMARK    8  A    between atoms: C_14  and  C_17 
REMARK    9  A    between atoms: C_16  and  C_17 
REMARK   10  A    between atoms: C_17  and  N_24 
REMARK       I    between atoms: C_19  and  N_24 
ROOT
HETATM    1  C           1     -21.094  -5.134  -7.134  0.00  0.00     0.185 C 
ENDROOT
BRANCH   1   2
HETATM    2  C           1     -21.000  -6.534  -6.543  0.00  0.00     0.036 C 
BRANCH   2   3
HETATM    3  C           1     -21.901  -6.631  -5.318  0.00  0.00     0.004 C 
BRANCH   3   4
HETATM    4  C           1     -21.195  -6.012  -4.118  0.00  0.00     0.027 C 
BRANCH   4   5
HETATM    5  C           1     -21.589  -6.765  -2.854  0.00  0.00     0.229 C 
BRANCH   5   6
HETATM    6  N           1     -22.331  -5.843  -1.932  0.00  0.00    -0.079 N 
HETATM    7  H           1     -21.946  -5.934  -0.965  0.00  0.00     0.274 HD
HETATM    8  H           1     -23.345  -6.095  -1.930  0.00  0.00     0.274 HD
HETATM    9  H           1     -22.218  -4.857  -2.260  0.00  0.00     0.274 HD
ENDBRANCH   5   6
ENDBRANCH   4   5
ENDBRANCH   3   4
ENDBRANCH   2   3
ENDBRANCH   1   2
BRANCH   1  10
HETATM   10  C           1     -19.709  -4.551  -7.270  0.00  0.00     0.196 C 
HETATM   11  O           1     -19.368  -3.995  -8.336  0.00  0.00    -0.646 OA
HETATM   12  O           1     -18.904  -4.624  -6.316  0.00  0.00    -0.646 OA
ENDBRANCH   1  10
BRANCH   1  13
HETATM   13  N           1     -21.719  -5.203  -8.441  0.00  0.00    -0.345 N 
HETATM   14  C           1     -22.900  -4.550  -8.670  0.00  0.00     0.249 C 
HETATM   15  O           1     -23.422  -3.916  -7.784  0.00  0.00    -0.271 OA
HETATM   16  H           1     -21.282  -5.734  -9.183  0.00  0.00     0.163 HD
BRANCH  14  17
HETATM   17  C           1     -23.550  -4.621 -10.030  0.00  0.00     0.278 C 
BRANCH  17  18
HETATM   18  N           1     -25.036  -4.478  -9.881  0.00  0.00    -0.066 N 
HETATM   19  H           1     -25.244  -3.810  -9.104  0.00  0.00     0.275 HD
HETATM   20  H           1     -25.441  -4.113 -10.772  0.00  0.00     0.275 HD
HETATM   21  H           1     -25.455  -5.409  -9.661  0.00  0.00     0.275 HD
ENDBRANCH  17  18
BRANCH  17  22
HETATM   22  C           1     -23.018  -3.496 -10.908  0.00  0.00     0.017 C 
HETATM   23  C           1     -24.105  -3.052 -11.878  0.00  0.00     0.012 C 
HETATM   24  C           1     -21.809  -3.990 -11.691  0.00  0.00     0.012 C 
ENDBRANCH  17  22
ENDBRANCH  14  17
ENDBRANCH   1  13
TORSDOF 10
ENDMDL
MODEL 5
REMARK VINA RESULT:      -5.6      2.805      4.730
REMARK  10 active torsions:
REMARK  status: ('A' for Active; 'I' for Inactive)
REMARK    1  A    between atoms: N_1  and  C_7 
REMARK    2  A    between atoms: C_4  and  C_5 
REMARK    3  A    between atoms: C_4  and  C_14 
REMARK    4  A    between atoms: C_5  and  C_6 
REMARK    5  A    between atoms: C_6  and  N_20 
REMARK    6  A    between atoms: C_7  and  C_19 
REMARK    7  A    between atoms: C_7  and  C_8 
REMARK    8  A    between atoms: C_14  and  C_17 
REMARK    9  A    between atoms: C_16  and  C_17 
REMARK   10  A    between atoms: C_17  and  N_24 
REMARK       I    between atoms: C_19  and  N_24 
ROOT
HETATM    1  C           1     -36.657  -0.823 -11.398  0.00  0.00     0.185 C 
ENDROOT
BRANCH   1   2
HETATM    2  C           1     -36.685   0.371 -10.454  0.00  0.00     0.036 C 
BRANCH   2   3
HETATM    3  C           1     -37.580   0.057  -9.262  0.00  0.00     0.004 C 
BRANCH   3   4
HETATM    4  C           1     -36.883   0.484  -7.976  0.00  0.00     0.027 C 
BRANCH   4   5
HETATM    5  C           1     -37.755   0.122  -6.782  0.00  0.00     0.229 C 
BRANCH   5   6
HETATM    6  N           1     -37.338   0.933  -5.592  0.00  0.00    -0.079 N 
HETATM    7  H           1     -36.513   0.483  -5.135  0.00  0.00     0.274 HD
HETATM    8  H           1     -38.129   0.985  -4.911  0.00  0.00     0.274 HD
HETATM    9  H           1     -37.081   1.898  -5.900  0.00  0.00     0.274 HD
ENDBRANCH   5   6
ENDBRANCH   4   5
ENDBRANCH   3   4
ENDBRANCH   2   3
ENDBRANCH   1   2
BRANCH   1  10
HETATM   10  C           1     -36.803  -0.345 -12.821  0.00  0.00     0.196 C 
HETATM   11  O           1     -35.959   0.438 -13.307  0.00  0.00    -0.646 OA
HETATM   12  O           1     -37.769  -0.731 -13.515  0.00  0.00    -0.646 OA
ENDBRANCH   1  10
BRANCH   1  13
HETATM   13  N           1     -35.397  -1.525 -11.252  0.00  0.00    -0.345 N 
HETATM   14  C           1     -35.386  -2.850 -10.910  0.00  0.00     0.249 C 
HETATM   15  O           1     -36.428  -3.436 -10.730  0.00  0.00    -0.271 OA
HETATM   16  H           1     -34.524  -1.034 -11.403  0.00  0.00     0.163 HD
BRANCH  14  17
HETATM   17  C           1     -34.074  -3.580 -10.758  0.00  0.00     0.278 C 
BRANCH  17  18
HETATM   18  N           1     -34.338  -5.010 -10.388  0.00  0.00    -0.066 N 
HETATM   19  H           1     -34.081  -5.163  -9.386  0.00  0.00     0.275 HD
HETATM   20  H           1     -35.352  -5.221 -10.523  0.00  0.00     0.275 HD
HETATM   21  H           1     -33.765  -5.638 -10.995  0.00  0.00     0.275 HD
ENDBRANCH  17  18
BRANCH  17  22
HETATM   22  C           1     -33.310  -3.531 -12.075  0.00  0.00     0.017 C 
HETATM   23  C           1     -34.246  -3.901 -13.219  0.00  0.00     0.012 C 
HETATM   24  C           1     -32.152  -4.519 -12.028  0.00  0.00     0.012 C 
ENDBRANCH  17  22
ENDBRANCH  14  17
ENDBRANCH   1  13
TORSDOF 10
ENDMDL
MODEL 6
REMARK VINA RESULT:      -5.5     14.111     15.916
REMARK  10 active torsions:
REMARK  status: ('A' for Active; 'I' for Inactive)
REMARK    1  A    between atoms: N_1  and  C_7 
REMARK    2  A    between atoms: C_4  and  C_5 
REMARK    3  A    between atoms: C_4  and  C_14 
REMARK    4  A    between atoms: C_5  and  C_6 
REMARK    5  A    between atoms: C_6  and  N_20 
REMARK    6  A    between atoms: C_7  and  C_19 
REMARK    7  A    between atoms: C_7  and  C_8 
REMARK    8  A    between atoms: C_14  and  C_17 
REMARK    9  A    between atoms: C_16  and  C_17 
REMARK   10  A    between atoms: C_17  and  N_24 
REMARK       I    between atoms: C_19  and  N_24 
ROOT
HETATM    1  C           1     -21.318  -5.243  -7.156  0.00  0.00     0.185 C 
ENDROOT
BRANCH   1   2
HETATM    2  C           1     -22.299  -4.190  -7.657  0.00  0.00     0.036 C 
BRANCH   2   3
HETATM    3  C           1     -22.843  -4.608  -9.017  0.00  0.00     0.004 C 
BRANCH   3   4
HETATM    4  C           1     -22.183  -3.772 -10.107  0.00  0.00     0.027 C 
BRANCH   4   5
HETATM    5  C           1     -22.524  -4.356 -11.471  0.00  0.00     0.229 C 
BRANCH   5   6
HETATM    6  N           1     -21.599  -3.788 -12.506  0.00  0.00    -0.079 N 
HETATM    7  H           1     -20.855  -3.225 -12.036  0.00  0.00     0.274 HD
HETATM    8  H           1     -22.140  -3.177 -13.159  0.00  0.00     0.274 HD
HETATM    9  H           1     -21.157  -4.567 -13.044  0.00  0.00     0.274 HD
ENDBRANCH   5   6
ENDBRANCH   4   5
ENDBRANCH   3   4
ENDBRANCH   2   3
ENDBRANCH   1   2
BRANCH   1  10
HETATM   10  C           1     -19.951  -4.624  -7.002  0.00  0.00     0.196 C 
HETATM   11  O           1     -19.444  -4.506  -5.866  0.00  0.00    -0.646 OA
HETATM   12  O           1     -19.326  -4.230  -8.011  0.00  0.00    -0.646 OA
ENDBRANCH   1  10
BRANCH   1  13
HETATM   13  N           1     -21.766  -5.749  -5.874  0.00  0.00    -0.345 N 
HETATM   14  C           1     -21.525  -7.052  -5.529  0.00  0.00     0.249 C 
HETATM   15  O           1     -20.938  -7.780  -6.295  0.00  0.00    -0.271 OA
HETATM   16  H           1     -22.258  -5.139  -5.233  0.00  0.00     0.163 HD
BRANCH  14  17
HETATM   17  C           1     -21.992  -7.578  -4.195  0.00  0.00     0.278 C 
BRANCH  17  18
HETATM   18  N           1     -21.775  -9.062  -4.140  0.00  0.00    -0.066 N 
HETATM   19  H           1     -21.647  -9.430  -5.110  0.00  0.00     0.275 HD
HETATM   20  H           1     -20.921  -9.268  -3.575  0.00  0.00     0.275 HD
HETATM   21  H           1     -22.606  -9.519  -3.700  0.00  0.00     0.275 HD
ENDBRANCH  17  18
BRANCH  17  22
HETATM   22  C           1     -21.199  -6.910  -3.079  0.00  0.00     0.017 C 
HETATM   23  C           1     -20.450  -7.970  -2.282  0.00  0.00     0.012 C 
HETATM   24  C           1     -22.151  -6.160  -2.157  0.00  0.00     0.012 C 
ENDBRANCH  17  22
ENDBRANCH  14  17
ENDBRANCH   1  13
TORSDOF 10
ENDMDL
MODEL 7
REMARK VINA RESULT:      -5.4     12.400     13.790
REMARK  10 active torsions:
REMARK  status: ('A' for Active; 'I' for Inactive)
REMARK    1  A    between atoms: N_1  and  C_7 
REMARK    2  A    between atoms: C_4  and  C_5 
REMARK    3  A    between atoms: C_4  and  C_14 
REMARK    4  A    between atoms: C_5  and  C_6 
REMARK    5  A    between atoms: C_6  and  N_20 
REMARK    6  A    between atoms: C_7  and  C_19 
REMARK    7  A    between atoms: C_7  and  C_8 
REMARK    8  A    between atoms: C_14  and  C_17 
REMARK    9  A    between atoms: C_16  and  C_17 
REMARK   10  A    between atoms: C_17  and  N_24 
REMARK       I    between atoms: C_19  and  N_24 
ROOT
HETATM    1  C           1     -22.691  -4.090 -10.757  0.00  0.00     0.185 C 
ENDROOT
BRANCH   1   2
HETATM    2  C           1     -23.845  -3.388 -11.460  0.00  0.00     0.036 C 
BRANCH   2   3
HETATM    3  C           1     -23.799  -3.700 -12.950  0.00  0.00     0.004 C 
BRANCH   3   4
HETATM    4  C           1     -23.822  -2.398 -13.742  0.00  0.00     0.027 C 
BRANCH   4   5
HETATM    5  C           1     -22.811  -2.478 -14.879  0.00  0.00     0.229 C 
BRANCH   5   6
HETATM    6  N           1     -22.888  -1.230 -15.707  0.00  0.00    -0.079 N 
HETATM    7  H           1     -23.603  -0.586 -15.300  0.00  0.00     0.274 HD
HETATM    8  H           1     -23.158  -1.478 -16.686  0.00  0.00     0.274 HD
HETATM    9  H           1     -21.957  -0.757 -15.713  0.00  0.00     0.274 HD
ENDBRANCH   5   6
ENDBRANCH   4   5
ENDBRANCH   3   4
ENDBRANCH   2   3
ENDBRANCH   1   2
BRANCH   1  10
HETATM   10  C           1     -21.382  -3.542 -11.269  0.00  0.00     0.196 C 
HETATM   11  O           1     -20.432  -4.318 -11.510  0.00  0.00    -0.646 OA
HETATM   12  O           1     -21.247  -2.313 -11.452  0.00  0.00    -0.646 OA
ENDBRANCH   1  10
BRANCH   1  13
HETATM   13  N           1     -22.784  -3.862  -9.329  0.00  0.00    -0.345 N 
HETATM   14  C           1     -22.129  -4.690  -8.458  0.00  0.00     0.249 C 
HETATM   15  O           1     -21.472  -5.612  -8.880  0.00  0.00    -0.271 OA
HETATM   16  H           1     -23.334  -3.089  -8.975  0.00  0.00     0.163 HD
BRANCH  14  17
HETATM   17  C           1     -22.226  -4.452  -6.971  0.00  0.00     0.278 C 
BRANCH  17  18
HETATM   18  N           1     -23.646  -4.640  -6.527  0.00  0.00    -0.066 N 
HETATM   19  H           1     -24.114  -5.340  -7.146  0.00  0.00     0.275 HD
HETATM   20  H           1     -23.659  -4.984  -5.541  0.00  0.00     0.275 HD
HETATM   21  H           1     -24.153  -3.728  -6.587  0.00  0.00     0.275 HD
ENDBRANCH  17  18
BRANCH  17  22
HETATM   22  C           1     -21.331  -5.443  -6.238  0.00  0.00     0.017 C 
HETATM   23  C           1     -22.164  -6.237  -5.240  0.00  0.00     0.012 C 
HETATM   24  C           1     -20.235  -4.688  -5.498  0.00  0.00     0.012 C 
ENDBRANCH  17  22
ENDBRANCH  14  17
ENDBRANCH   1  13
TORSDOF 10
ENDMDL
MODEL 8
REMARK VINA RESULT:      -5.4     14.352     17.517
REMARK  10 active torsions:
REMARK  status: ('A' for Active; 'I' for Inactive)
REMARK    1  A    between atoms: N_1  and  C_7 
REMARK    2  A    between atoms: C_4  and  C_5 
REMARK    3  A    between atoms: C_4  and  C_14 
REMARK    4  A    between atoms: C_5  and  C_6 
REMARK    5  A    between atoms: C_6  and  N_20 
REMARK    6  A    between atoms: C_7  and  C_19 
REMARK    7  A    between atoms: C_7  and  C_8 
REMARK    8  A    between atoms: C_14  and  C_17 
REMARK    9  A    between atoms: C_16  and  C_17 
REMARK   10  A    between atoms: C_17  and  N_24 
REMARK       I    between atoms: C_19  and  N_24 
ROOT
HETATM    1  C           1     -20.676  -6.995  -4.671  0.00  0.00     0.185 C 
ENDROOT
BRANCH   1   2
HETATM    2  C           1     -21.670  -7.335  -3.568  0.00  0.00     0.036 C 
BRANCH   2   3
HETATM    3  C           1     -21.751  -6.177  -2.582  0.00  0.00     0.004 C 
BRANCH   3   4
HETATM    4  C           1     -22.236  -6.692  -1.232  0.00  0.00     0.027 C 
BRANCH   4   5
HETATM    5  C           1     -21.756  -8.123  -1.032  0.00  0.00     0.229 C 
BRANCH   5   6
HETATM    6  N           1     -22.784  -8.894  -0.258  0.00  0.00    -0.079 N 
HETATM    7  H           1     -22.368  -9.222   0.642  0.00  0.00     0.274 HD
HETATM    8  H           1     -23.097  -9.718  -0.820  0.00  0.00     0.274 HD
HETATM    9  H           1     -23.605  -8.278  -0.059  0.00  0.00     0.274 HD
ENDBRANCH   5   6
ENDBRANCH   4   5
ENDBRANCH   3   4
ENDBRANCH   2   3
ENDBRANCH   1   2
BRANCH   1  10
HETATM   10  C           1     -19.779  -8.180  -4.924  0.00  0.00     0.196 C 
HETATM   11  O           1     -19.260  -8.342  -6.050  0.00  0.00    -0.646 OA
HETATM   12  O           1     -19.554  -9.001  -4.008  0.00  0.00    -0.646 OA
ENDBRANCH   1  10
BRANCH   1  13
HETATM   13  N           1     -21.397  -6.666  -5.886  0.00  0.00    -0.345 N 
HETATM   14  C           1     -21.373  -5.387  -6.372  0.00  0.00     0.249 C 
HETATM   15  O           1     -20.751  -4.531  -5.788  0.00  0.00    -0.271 OA
HETATM   16  H           1     -21.918  -7.384  -6.374  0.00  0.00     0.163 HD
BRANCH  14  17
HETATM   17  C           1     -22.122  -5.046  -7.636  0.00  0.00     0.278 C 
BRANCH  17  18
HETATM   18  N           1     -23.414  -4.369  -7.283  0.00  0.00    -0.066 N 
HETATM   19  H           1     -24.056  -4.395  -8.107  0.00  0.00     0.275 HD
HETATM   20  H           1     -23.858  -4.867  -6.480  0.00  0.00     0.275 HD
HETATM   21  H           1     -23.225  -3.376  -7.019  0.00  0.00     0.275 HD
ENDBRANCH  17  18
BRANCH  17  22
HETATM   22  C           1     -21.277  -4.110  -8.491  0.00  0.00     0.017 C 
HETATM   23  C           1     -22.089  -3.650  -9.695  0.00  0.00     0.012 C 
HETATM   24  C           1     -20.032  -4.844  -8.970  0.00  0.00     0.012 C 
ENDBRANCH  17  22
ENDBRANCH  14  17
ENDBRANCH   1  13
TORSDOF 10
ENDMDL
MODEL 9
REMARK VINA RESULT:      -5.3     15.347     18.203
REMARK  10 active torsions:
REMARK  status: ('A' for Active; 'I' for Inactive)
REMARK    1  A    between atoms: N_1  and  C_7 
REMARK    2  A    between atoms: C_4  and  C_5 
REMARK    3  A    between atoms: C_4  and  C_14 
REMARK    4  A    between atoms: C_5  and  C_6 
REMARK    5  A    between atoms: C_6  and  N_20 
REMARK    6  A    between atoms: C_7  and  C_19 
REMARK    7  A    between atoms: C_7  and  C_8 
REMARK    8  A    between atoms: C_14  and  C_17 
REMARK    9  A    between atoms: C_16  and  C_17 
REMARK   10  A    between atoms: C_17  and  N_24 
REMARK       I    between atoms: C_19  and  N_24 
ROOT
HETATM    1  C           1     -20.350  -8.239  -4.179  0.00  0.00     0.185 C 
ENDROOT
BRANCH   1   2
HETATM    2  C           1     -21.429  -9.189  -3.675  0.00  0.00     0.036 C 
BRANCH   2   3
HETATM    3  C           1     -21.415  -9.213  -2.152  0.00  0.00     0.004 C 
BRANCH   3   4
HETATM    4  C           1     -20.961  -7.857  -1.627  0.00  0.00     0.027 C 
BRANCH   4   5
HETATM    5  C           1     -22.164  -7.088  -1.097  0.00  0.00     0.229 C 
BRANCH   5   6
HETATM    6  N           1     -22.371  -5.851  -1.920  0.00  0.00    -0.079 N 
HETATM    7  H           1     -22.702  -5.075  -1.305  0.00  0.00     0.274 HD
HETATM    8  H           1     -23.085  -6.041  -2.660  0.00  0.00     0.274 HD
HETATM    9  H           1     -21.469  -5.577  -2.371  0.00  0.00     0.274 HD
ENDBRANCH   5   6
ENDBRANCH   4   5
ENDBRANCH   3   4
ENDBRANCH   2   3
ENDBRANCH   1   2
BRANCH   1  10
HETATM   10  C           1     -19.110  -9.025  -4.529  0.00  0.00     0.196 C 
HETATM   11  O           1     -18.222  -9.205  -3.668  0.00  0.00    -0.646 OA
HETATM   12  O           1     -18.972  -9.495  -5.679  0.00  0.00    -0.646 OA
ENDBRANCH   1  10
BRANCH   1  13
HETATM   13  N           1     -20.830  -7.545  -5.358  0.00  0.00    -0.345 N 
HETATM   14  C           1     -21.058  -6.196  -5.313  0.00  0.00     0.249 C 
HETATM   15  O           1     -20.859  -5.583  -4.290  0.00  0.00    -0.271 OA
HETATM   16  H           1     -20.997  -8.058  -6.215  0.00  0.00     0.163 HD
BRANCH  14  17
HETATM   17  C           1     -21.558  -5.474  -6.540  0.00  0.00     0.278 C 
BRANCH  17  18
HETATM   18  N           1     -22.980  -5.050  -6.325  0.00  0.00    -0.066 N 
HETATM   19  H           1     -23.032  -4.413  -5.498  0.00  0.00     0.275 HD
HETATM   20  H           1     -23.325  -4.548  -7.173  0.00  0.00     0.275 HD
HETATM   21  H           1     -23.572  -5.894  -6.153  0.00  0.00     0.275 HD
ENDBRANCH  17  18
BRANCH  17  22
HETATM   22  C           1     -20.695  -4.244  -6.792  0.00  0.00     0.017 C 
HETATM   23  C           1     -21.435  -3.285  -7.716  0.00  0.00     0.012 C 
HETATM   24  C           1     -19.385  -4.666  -7.443  0.00  0.00     0.012 C 
ENDBRANCH  17  22
ENDBRANCH  14  17
ENDBRANCH   1  13
TORSDOF 10
ENDMDL
