MODEL 1
REMARK VINA RESULT:      -6.2      0.000      0.000
REMARK  8 active torsions:
REMARK  status: ('A' for Active; 'I' for Inactive)
REMARK    1  A    between atoms: O_3  and  P_4 
REMARK    2  A    between atoms: P_4  and  O_5 
REMARK    3  A    between atoms: O_5  and  C_6 
REMARK    4  A    between atoms: C_6  and  C_7 
REMARK    5  A    between atoms: C_7  and  C_8 
REMARK    6  A    between atoms: C_7  and  N_20 
REMARK       I    between atoms: C_8  and  N_9 
REMARK    7  A    between atoms: N_9  and  C_10 
REMARK    8  A    between atoms: C_10  and  C_12 
ROOT
HETATM    1  C           1     -23.311  -3.753 -10.904  0.00  0.00     0.298 C 
ENDROOT
BRANCH   1   2
HETATM    2  C           1     -22.977  -2.586 -11.823  0.00  0.00     0.224 C 
BRANCH   2   3
HETATM    3  O           1     -22.426  -3.073 -13.017  0.00  0.00    -0.287 OA
BRANCH   3   4
HETATM    4  P           1     -23.308  -2.842 -14.350  0.00  0.00     0.406 P 
HETATM    5  O           1     -22.419  -2.464 -15.471  0.00  0.00    -0.624 OA
HETATM    6  O           1     -24.288  -1.759 -14.109  0.00  0.00    -0.624 OA
BRANCH   4   7
HETATM    7  O           1     -24.092  -4.204 -14.721  0.00  0.00    -0.300 OA
HETATM    8  H           1     -23.416  -4.818 -14.954  0.00  0.00     0.223 HD
ENDBRANCH   4   7
ENDBRANCH   3   4
ENDBRANCH   2   3
ENDBRANCH   1   2
BRANCH   1   9
HETATM    9  C           1     -22.304  -3.814  -9.781  0.00  0.00     0.251 C 
HETATM   10  N           1     -22.728  -3.793  -8.480  0.00  0.00    -0.349 N 
HETATM   11  H           1     -23.716  -3.736  -8.270  0.00  0.00     0.163 HD
HETATM   12  O           1     -21.124  -3.882 -10.031  0.00  0.00    -0.271 OA
BRANCH  10  13
HETATM   13  C           1     -21.760  -3.852  -7.401  0.00  0.00     0.235 C 
BRANCH  13  14
HETATM   14  C           1     -21.733  -5.247  -6.825  0.00  0.00     0.191 C 
HETATM   15  O           1     -21.052  -6.137  -7.376  0.00  0.00    -0.647 OA
HETATM   16  O           1     -22.392  -5.511  -5.796  0.00  0.00    -0.647 OA
ENDBRANCH  13  14
ENDBRANCH  10  13
ENDBRANCH   1   9
BRANCH   1  17
HETATM   17  N           1     -24.685  -3.562 -10.332  0.00  0.00    -0.064 N 
HETATM   18  H           1     -24.614  -3.405  -9.301  0.00  0.00     0.275 HD
HETATM   19  H           1     -25.261  -4.413 -10.519  0.00  0.00     0.275 HD
HETATM   20  H           1     -25.136  -2.731 -10.780  0.00  0.00     0.275 HD
ENDBRANCH   1  17
TORSDOF 8
ENDMDL
MODEL 2
REMARK VINA RESULT:      -6.2      2.632      6.387
REMARK  8 active torsions:
REMARK  status: ('A' for Active; 'I' for Inactive)
REMARK    1  A    between atoms: O_3  and  P_4 
REMARK    2  A    between atoms: P_4  and  O_5 
REMARK    3  A    between atoms: O_5  and  C_6 
REMARK    4  A    between atoms: C_6  and  C_7 
REMARK    5  A    between atoms: C_7  and  C_8 
REMARK    6  A    between atoms: C_7  and  N_20 
REMARK       I    between atoms: C_8  and  N_9 
REMARK    7  A    between atoms: N_9  and  C_10 
REMARK    8  A    between atoms: C_10  and  C_12 
ROOT
HETATM    1  C           1     -23.189  -3.571  -9.246  0.00  0.00     0.298 C 
ENDROOT
BRANCH   1   2
HETATM    2  C           1     -22.148  -4.614  -9.625  0.00  0.00     0.224 C 
BRANCH   2   3
HETATM    3  O           1     -20.875  -4.164  -9.246  0.00  0.00    -0.287 OA
BRANCH   3   4
HETATM    4  P           1     -20.364  -4.632  -7.787  0.00  0.00     0.406 P 
HETATM    5  O           1     -20.654  -6.071  -7.601  0.00  0.00    -0.624 OA
HETATM    6  O           1     -21.066  -3.848  -6.745  0.00  0.00    -0.624 OA
BRANCH   4   7
HETATM    7  O           1     -18.773  -4.383  -7.667  0.00  0.00    -0.300 OA
HETATM    8  H           1     -18.524  -4.793  -6.856  0.00  0.00     0.223 HD
ENDBRANCH   4   7
ENDBRANCH   3   4
ENDBRANCH   2   3
ENDBRANCH   1   2
BRANCH   1   9
HETATM    9  C           1     -24.108  -3.327 -10.418  0.00  0.00     0.251 C 
HETATM   10  N           1     -23.587  -3.159 -11.673  0.00  0.00    -0.349 N 
HETATM   11  H           1     -22.586  -3.198 -11.815  0.00  0.00     0.163 HD
HETATM   12  O           1     -25.304  -3.279 -10.249  0.00  0.00    -0.271 OA
BRANCH  10  13
HETATM   13  C           1     -24.470  -2.924 -12.799  0.00  0.00     0.235 C 
BRANCH  13  14
HETATM   14  C           1     -23.670  -2.395 -13.965  0.00  0.00     0.191 C 
HETATM   15  O           1     -24.109  -1.441 -14.641  0.00  0.00    -0.647 OA
HETATM   16  O           1     -22.569  -2.911 -14.253  0.00  0.00    -0.647 OA
ENDBRANCH  13  14
ENDBRANCH  10  13
ENDBRANCH   1   9
BRANCH   1  17
HETATM   17  N           1     -23.992  -4.067  -8.078  0.00  0.00    -0.064 N 
HETATM   18  H           1     -23.427  -4.761  -7.539  0.00  0.00     0.275 HD
HETATM   19  H           1     -24.867  -4.520  -8.425  0.00  0.00     0.275 HD
HETATM   20  H           1     -24.239  -3.261  -7.459  0.00  0.00     0.275 HD
ENDBRANCH   1  17
TORSDOF 8
ENDMDL
MODEL 3
REMARK VINA RESULT:      -5.8      1.975      2.347
REMARK  8 active torsions:
REMARK  status: ('A' for Active; 'I' for Inactive)
REMARK    1  A    between atoms: O_3  and  P_4 
REMARK    2  A    between atoms: P_4  and  O_5 
REMARK    3  A    between atoms: O_5  and  C_6 
REMARK    4  A    between atoms: C_6  and  C_7 
REMARK    5  A    between atoms: C_7  and  C_8 
REMARK    6  A    between atoms: C_7  and  N_20 
REMARK       I    between atoms: C_8  and  N_9 
REMARK    7  A    between atoms: N_9  and  C_10 
REMARK    8  A    between atoms: C_10  and  C_12 
ROOT
HETATM    1  C           1     -22.853  -4.476  -8.992  0.00  0.00     0.298 C 
ENDROOT
BRANCH   1   2
HETATM    2  C           1     -22.283  -3.795 -10.228  0.00  0.00     0.224 C 
BRANCH   2   3
HETATM    3  O           1     -22.815  -4.394 -11.380  0.00  0.00    -0.287 OA
BRANCH   3   4
HETATM    4  P           1     -23.782  -3.464 -12.278  0.00  0.00     0.406 P 
HETATM    5  O           1     -23.065  -2.225 -12.654  0.00  0.00    -0.624 OA
HETATM    6  O           1     -24.994  -3.118 -11.500  0.00  0.00    -0.624 OA
BRANCH   4   7
HETATM    7  O           1     -24.211  -4.264 -13.614  0.00  0.00    -0.300 OA
HETATM    8  H           1     -24.012  -3.677 -14.323  0.00  0.00     0.223 HD
ENDBRANCH   4   7
ENDBRANCH   3   4
ENDBRANCH   2   3
ENDBRANCH   1   2
BRANCH   1   9
HETATM    9  C           1     -21.816  -4.480  -7.895  0.00  0.00     0.251 C 
HETATM   10  N           1     -21.230  -5.655  -7.511  0.00  0.00    -0.349 N 
HETATM   11  H           1     -21.492  -6.523  -7.962  0.00  0.00     0.163 HD
HETATM   12  O           1     -21.503  -3.445  -7.356  0.00  0.00    -0.271 OA
BRANCH  10  13
HETATM   13  C           1     -20.234  -5.659  -6.457  0.00  0.00     0.235 C 
BRANCH  13  14
HETATM   14  C           1     -20.541  -6.766  -5.477  0.00  0.00     0.191 C 
HETATM   15  O           1     -20.415  -7.959  -5.825  0.00  0.00    -0.647 OA
HETATM   16  O           1     -20.920  -6.488  -4.319  0.00  0.00    -0.647 OA
ENDBRANCH  13  14
ENDBRANCH  10  13
ENDBRANCH   1   9
BRANCH   1  17
HETATM   17  N           1     -24.069  -3.729  -8.526  0.00  0.00    -0.064 N 
HETATM   18  H           1     -24.928  -4.219  -8.865  0.00  0.00     0.275 HD
HETATM   19  H           1     -24.046  -2.757  -8.906  0.00  0.00     0.275 HD
HETATM   20  H           1     -24.077  -3.695  -7.481  0.00  0.00     0.275 HD
ENDBRANCH   1  17
TORSDOF 8
ENDMDL
MODEL 4
REMARK VINA RESULT:      -5.8      2.845      6.776
REMARK  8 active torsions:
REMARK  status: ('A' for Active; 'I' for Inactive)
REMARK    1  A    between atoms: O_3  and  P_4 
REMARK    2  A    between atoms: P_4  and  O_5 
REMARK    3  A    between atoms: O_5  and  C_6 
REMARK    4  A    between atoms: C_6  and  C_7 
REMARK    5  A    between atoms: C_7  and  C_8 
REMARK    6  A    between atoms: C_7  and  N_20 
REMARK       I    between atoms: C_8  and  N_9 
REMARK    7  A    between atoms: N_9  and  C_10 
REMARK    8  A    between atoms: C_10  and  C_12 
ROOT
HETATM    1  C           1     -21.752  -4.360 -10.524  0.00  0.00     0.298 C 
ENDROOT
BRANCH   1   2
HETATM    2  C           1     -21.925  -4.050  -9.044  0.00  0.00     0.224 C 
BRANCH   2   3
HETATM    3  O           1     -21.629  -5.193  -8.288  0.00  0.00    -0.287 OA
BRANCH   3   4
HETATM    4  P           1     -20.311  -5.106  -7.359  0.00  0.00     0.406 P 
HETATM    5  O           1     -19.747  -6.461  -7.174  0.00  0.00    -0.624 OA
HETATM    6  O           1     -20.675  -4.538  -6.040  0.00  0.00    -0.624 OA
BRANCH   4   7
HETATM    7  O           1     -19.213  -4.157  -8.068  0.00  0.00    -0.300 OA
HETATM    8  H           1     -18.381  -4.533  -7.835  0.00  0.00     0.223 HD
ENDBRANCH   4   7
ENDBRANCH   3   4
ENDBRANCH   2   3
ENDBRANCH   1   2
BRANCH   1   9
HETATM    9  C           1     -22.900  -3.764 -11.302  0.00  0.00     0.251 C 
HETATM   10  N           1     -22.848  -3.715 -12.669  0.00  0.00    -0.349 N 
HETATM   11  H           1     -22.041  -4.079 -13.158  0.00  0.00     0.163 HD
HETATM   12  O           1     -23.864  -3.329 -10.718  0.00  0.00    -0.271 OA
BRANCH  10  13
HETATM   13  C           1     -23.951  -3.141 -13.416  0.00  0.00     0.235 C 
BRANCH  13  14
HETATM   14  C           1     -23.413  -2.377 -14.601  0.00  0.00     0.191 C 
HETATM   15  O           1     -22.485  -2.859 -15.285  0.00  0.00    -0.647 OA
HETATM   16  O           1     -23.896  -1.263 -14.899  0.00  0.00    -0.647 OA
ENDBRANCH  13  14
ENDBRANCH  10  13
ENDBRANCH   1   9
BRANCH   1  17
HETATM   17  N           1     -20.460  -3.772 -11.011  0.00  0.00    -0.064 N 
HETATM   18  H           1     -20.429  -3.820 -12.054  0.00  0.00     0.275 HD
HETATM   19  H           1     -19.660  -4.311 -10.611  0.00  0.00     0.275 HD
HETATM   20  H           1     -20.395  -2.775 -10.706  0.00  0.00     0.275 HD
ENDBRANCH   1  17
TORSDOF 8
ENDMDL
MODEL 5
REMARK VINA RESULT:      -5.6      2.994      6.674
REMARK  8 active torsions:
REMARK  status: ('A' for Active; 'I' for Inactive)
REMARK    1  A    between atoms: O_3  and  P_4 
REMARK    2  A    between atoms: P_4  and  O_5 
REMARK    3  A    between atoms: O_5  and  C_6 
REMARK    4  A    between atoms: C_6  and  C_7 
REMARK    5  A    between atoms: C_7  and  C_8 
REMARK    6  A    between atoms: C_7  and  N_20 
REMARK       I    between atoms: C_8  and  N_9 
REMARK    7  A    between atoms: N_9  and  C_10 
REMARK    8  A    between atoms: C_10  and  C_12 
ROOT
HETATM    1  C           1     -20.733  -4.666  -8.969  0.00  0.00     0.298 C 
ENDROOT
BRANCH   1   2
HETATM    2  C           1     -21.930  -4.738  -8.032  0.00  0.00     0.224 C 
BRANCH   2   3
HETATM    3  O           1     -21.500  -4.559  -6.709  0.00  0.00    -0.287 OA
BRANCH   3   4
HETATM    4  P           1     -21.622  -5.848  -5.744  0.00  0.00     0.406 P 
HETATM    5  O           1     -20.778  -5.648  -4.544  0.00  0.00    -0.624 OA
HETATM    6  O           1     -21.167  -7.053  -6.473  0.00  0.00    -0.624 OA
BRANCH   4   7
HETATM    7  O           1     -23.160  -6.041  -5.294  0.00  0.00    -0.300 OA
HETATM    8  H           1     -23.668  -5.711  -6.016  0.00  0.00     0.223 HD
ENDBRANCH   4   7
ENDBRANCH   3   4
ENDBRANCH   2   3
ENDBRANCH   1   2
BRANCH   1   9
HETATM    9  C           1     -21.151  -4.030 -10.273  0.00  0.00     0.251 C 
HETATM   10  N           1     -22.416  -3.528 -10.415  0.00  0.00    -0.349 N 
HETATM   11  H           1     -23.072  -3.583  -9.646  0.00  0.00     0.163 HD
HETATM   12  O           1     -20.369  -3.965 -11.191  0.00  0.00    -0.271 OA
BRANCH  10  13
HETATM   13  C           1     -22.818  -2.917 -11.667  0.00  0.00     0.235 C 
BRANCH  13  14
HETATM   14  C           1     -24.304  -3.099 -11.863  0.00  0.00     0.191 C 
HETATM   15  O           1     -24.782  -3.131 -13.017  0.00  0.00    -0.647 OA
HETATM   16  O           1     -25.055  -3.218 -10.871  0.00  0.00    -0.647 OA
ENDBRANCH  13  14
ENDBRANCH  10  13
ENDBRANCH   1   9
BRANCH   1  17
HETATM   17  N           1     -19.651  -3.841  -8.337  0.00  0.00    -0.064 N 
HETATM   18  H           1     -19.782  -2.838  -8.597  0.00  0.00     0.275 HD
HETATM   19  H           1     -18.719  -4.172  -8.674  0.00  0.00     0.275 HD
HETATM   20  H           1     -19.700  -3.941  -7.297  0.00  0.00     0.275 HD
ENDBRANCH   1  17
TORSDOF 8
ENDMDL
MODEL 6
REMARK VINA RESULT:      -5.5     16.520     18.252
REMARK  8 active torsions:
REMARK  status: ('A' for Active; 'I' for Inactive)
REMARK    1  A    between atoms: O_3  and  P_4 
REMARK    2  A    between atoms: P_4  and  O_5 
REMARK    3  A    between atoms: O_5  and  C_6 
REMARK    4  A    between atoms: C_6  and  C_7 
REMARK    5  A    between atoms: C_7  and  C_8 
REMARK    6  A    between atoms: C_7  and  N_20 
REMARK       I    between atoms: C_8  and  N_9 
REMARK    7  A    between atoms: N_9  and  C_10 
REMARK    8  A    between atoms: C_10  and  C_12 
ROOT
HETATM    1  C           1      -9.916   5.419 -19.840  0.00  0.00     0.298 C 
ENDROOT
BRANCH   1   2
HETATM    2  C           1     -11.178   4.571 -19.758  0.00  0.00     0.224 C 
BRANCH   2   3
HETATM    3  O           1     -12.260   5.379 -19.379  0.00  0.00    -0.287 OA
BRANCH   3   4
HETATM    4  P           1     -13.556   5.323 -20.341  0.00  0.00     0.406 P 
HETATM    5  O           1     -14.783   5.444 -19.523  0.00  0.00    -0.624 OA
HETATM    6  O           1     -13.572   4.035 -21.070  0.00  0.00    -0.624 OA
BRANCH   4   7
HETATM    7  O           1     -13.493   6.540 -21.401  0.00  0.00    -0.300 OA
HETATM    8  H           1     -13.091   6.172 -22.170  0.00  0.00     0.223 HD
ENDBRANCH   4   7
ENDBRANCH   3   4
ENDBRANCH   2   3
ENDBRANCH   1   2
BRANCH   1   9
HETATM    9  C           1     -10.281   6.829 -20.234  0.00  0.00     0.251 C 
HETATM   10  N           1     -10.441   7.789 -19.271  0.00  0.00    -0.349 N 
HETATM   11  H           1     -10.315   7.553 -18.295  0.00  0.00     0.163 HD
HETATM   12  O           1     -10.431   7.111 -21.399  0.00  0.00    -0.271 OA
BRANCH  10  13
HETATM   13  C           1     -10.792   9.144 -19.650  0.00  0.00     0.235 C 
BRANCH  13  14
HETATM   14  C           1     -12.281   9.338 -19.506  0.00  0.00     0.191 C 
HETATM   15  O           1     -12.789   9.459 -18.371  0.00  0.00    -0.647 OA
HETATM   16  O           1     -13.008   9.378 -20.523  0.00  0.00    -0.647 OA
ENDBRANCH  13  14
ENDBRANCH  10  13
ENDBRANCH   1   9
BRANCH   1  17
HETATM   17  N           1      -9.236   5.434 -18.502  0.00  0.00    -0.064 N 
HETATM   18  H           1      -9.175   4.459 -18.132  0.00  0.00     0.275 HD
HETATM   19  H           1      -9.785   6.027 -17.840  0.00  0.00     0.275 HD
HETATM   20  H           1      -8.273   5.829 -18.606  0.00  0.00     0.275 HD
ENDBRANCH   1  17
TORSDOF 8
ENDMDL
MODEL 7
REMARK VINA RESULT:      -5.5      4.959      6.749
REMARK  8 active torsions:
REMARK  status: ('A' for Active; 'I' for Inactive)
REMARK    1  A    between atoms: O_3  and  P_4 
REMARK    2  A    between atoms: P_4  and  O_5 
REMARK    3  A    between atoms: O_5  and  C_6 
REMARK    4  A    between atoms: C_6  and  C_7 
REMARK    5  A    between atoms: C_7  and  C_8 
REMARK    6  A    between atoms: C_7  and  N_20 
REMARK       I    between atoms: C_8  and  N_9 
REMARK    7  A    between atoms: N_9  and  C_10 
REMARK    8  A    between atoms: C_10  and  C_12 
ROOT
HETATM    1  C           1     -20.631  -6.831  -5.308  0.00  0.00     0.298 C 
ENDROOT
BRANCH   1   2
HETATM    2  C           1     -20.415  -5.632  -6.221  0.00  0.00     0.224 C 
BRANCH   2   3
HETATM    3  O           1     -21.278  -5.721  -7.323  0.00  0.00    -0.287 OA
BRANCH   3   4
HETATM    4  P           1     -22.142  -4.398  -7.653  0.00  0.00     0.406 P 
HETATM    5  O           1     -22.388  -4.320  -9.111  0.00  0.00    -0.624 OA
HETATM    6  O           1     -21.394  -3.198  -7.214  0.00  0.00    -0.624 OA
BRANCH   4   7
HETATM    7  O           1     -23.554  -4.466  -6.873  0.00  0.00    -0.300 OA
HETATM    8  H           1     -24.107  -5.001  -7.417  0.00  0.00     0.223 HD
ENDBRANCH   4   7
ENDBRANCH   3   4
ENDBRANCH   2   3
ENDBRANCH   1   2
BRANCH   1   9
HETATM    9  C           1     -21.644  -6.479  -4.246  0.00  0.00     0.251 C 
HETATM   10  N           1     -21.279  -6.475  -2.927  0.00  0.00    -0.349 N 
HETATM   11  H           1     -20.330  -6.708  -2.663  0.00  0.00     0.163 HD
HETATM   12  O           1     -22.777  -6.201  -4.560  0.00  0.00    -0.271 OA
BRANCH  10  13
HETATM   13  C           1     -22.253  -6.137  -1.906  0.00  0.00     0.235 C 
BRANCH  13  14
HETATM   14  C           1     -22.232  -7.188  -0.822  0.00  0.00     0.191 C 
HETATM   15  O           1     -23.242  -7.370  -0.110  0.00  0.00    -0.647 OA
HETATM   16  O           1     -21.204  -7.875  -0.638  0.00  0.00    -0.647 OA
ENDBRANCH  13  14
ENDBRANCH  10  13
ENDBRANCH   1   9
BRANCH   1  17
HETATM   17  N           1     -21.137  -7.990  -6.115  0.00  0.00    -0.064 N 
HETATM   18  H           1     -21.227  -8.829  -5.500  0.00  0.00     0.275 HD
HETATM   19  H           1     -20.466  -8.194  -6.890  0.00  0.00     0.275 HD
HETATM   20  H           1     -22.072  -7.751  -6.518  0.00  0.00     0.275 HD
ENDBRANCH   1  17
TORSDOF 8
ENDMDL
MODEL 8
REMARK VINA RESULT:      -5.4      1.869      2.315
REMARK  8 active torsions:
REMARK  status: ('A' for Active; 'I' for Inactive)
REMARK    1  A    between atoms: O_3  and  P_4 
REMARK    2  A    between atoms: P_4  and  O_5 
REMARK    3  A    between atoms: O_5  and  C_6 
REMARK    4  A    between atoms: C_6  and  C_7 
REMARK    5  A    between atoms: C_7  and  C_8 
REMARK    6  A    between atoms: C_7  and  N_20 
REMARK       I    between atoms: C_8  and  N_9 
REMARK    7  A    between atoms: N_9  and  C_10 
REMARK    8  A    between atoms: C_10  and  C_12 
ROOT
HETATM    1  C           1     -21.263  -3.233 -10.801  0.00  0.00     0.298 C 
ENDROOT
BRANCH   1   2
HETATM    2  C           1     -22.602  -2.947 -11.466  0.00  0.00     0.224 C 
BRANCH   2   3
HETATM    3  O           1     -22.416  -2.793 -12.848  0.00  0.00    -0.287 OA
BRANCH   3   4
HETATM    4  P           1     -23.756  -2.586 -13.724  0.00  0.00     0.406 P 
HETATM    5  O           1     -24.935  -2.995 -12.927  0.00  0.00    -0.624 OA
HETATM    6  O           1     -23.677  -3.412 -14.949  0.00  0.00    -0.624 OA
BRANCH   4   7
HETATM    7  O           1     -23.898  -1.030 -14.133  0.00  0.00    -0.300 OA
HETATM    8  H           1     -23.106  -0.624 -13.823  0.00  0.00     0.223 HD
ENDBRANCH   4   7
ENDBRANCH   3   4
ENDBRANCH   2   3
ENDBRANCH   1   2
BRANCH   1   9
HETATM    9  C           1     -21.450  -4.265  -9.715  0.00  0.00     0.251 C 
HETATM   10  N           1     -20.413  -4.571  -8.876  0.00  0.00    -0.349 N 
HETATM   11  H           1     -19.520  -4.106  -8.984  0.00  0.00     0.163 HD
HETATM   12  O           1     -22.515  -4.820  -9.585  0.00  0.00    -0.271 OA
BRANCH  10  13
HETATM   13  C           1     -20.593  -5.562  -7.832  0.00  0.00     0.235 C 
BRANCH  13  14
HETATM   14  C           1     -20.657  -4.873  -6.490  0.00  0.00     0.191 C 
HETATM   15  O           1     -20.235  -5.456  -5.469  0.00  0.00    -0.647 OA
HETATM   16  O           1     -21.133  -3.721  -6.401  0.00  0.00    -0.647 OA
ENDBRANCH  13  14
ENDBRANCH  10  13
ENDBRANCH   1   9
BRANCH   1  17
HETATM   17  N           1     -20.298  -3.756 -11.825  0.00  0.00    -0.064 N 
HETATM   18  H           1     -20.785  -3.852 -12.744  0.00  0.00     0.275 HD
HETATM   19  H           1     -19.939  -4.688 -11.520  0.00  0.00     0.275 HD
HETATM   20  H           1     -19.499  -3.090 -11.921  0.00  0.00     0.275 HD
ENDBRANCH   1  17
TORSDOF 8
ENDMDL
MODEL 9
REMARK VINA RESULT:      -5.3     16.477     18.472
REMARK  8 active torsions:
REMARK  status: ('A' for Active; 'I' for Inactive)
REMARK    1  A    between atoms: O_3  and  P_4 
REMARK    2  A    between atoms: P_4  and  O_5 
REMARK    3  A    between atoms: O_5  and  C_6 
REMARK    4  A    between atoms: C_6  and  C_7 
REMARK    5  A    between atoms: C_7  and  C_8 
REMARK    6  A    between atoms: C_7  and  N_20 
REMARK       I    between atoms: C_8  and  N_9 
REMARK    7  A    between atoms: N_9  and  C_10 
REMARK    8  A    between atoms: C_10  and  C_12 
ROOT
HETATM    1  C           1     -10.192   5.948 -19.405  0.00  0.00     0.298 C 
ENDROOT
BRANCH   1   2
HETATM    2  C           1      -9.592   6.570 -20.657  0.00  0.00     0.224 C 
BRANCH   2   3
HETATM    3  O           1     -10.425   7.602 -21.113  0.00  0.00    -0.287 OA
BRANCH   3   4
HETATM    4  P           1     -10.031   9.093 -20.636  0.00  0.00     0.406 P 
HETATM    5  O           1      -8.719   9.465 -21.212  0.00  0.00    -0.624 OA
HETATM    6  O           1      -9.951   9.133 -19.158  0.00  0.00    -0.624 OA
BRANCH   4   7
HETATM    7  O           1     -11.155  10.137 -21.142  0.00  0.00    -0.300 OA
HETATM    8  H           1     -10.672  10.843 -21.536  0.00  0.00     0.223 HD
ENDBRANCH   4   7
ENDBRANCH   3   4
ENDBRANCH   2   3
ENDBRANCH   1   2
BRANCH   1   9
HETATM    9  C           1     -11.251   4.946 -19.798  0.00  0.00     0.251 C 
HETATM   10  N           1     -12.535   5.361 -20.024  0.00  0.00    -0.349 N 
HETATM   11  H           1     -12.776   6.339 -19.928  0.00  0.00     0.163 HD
HETATM   12  O           1     -10.964   3.778 -19.912  0.00  0.00    -0.271 OA
BRANCH  10  13
HETATM   13  C           1     -13.552   4.398 -20.401  0.00  0.00     0.235 C 
BRANCH  13  14
HETATM   14  C           1     -14.903   5.071 -20.414  0.00  0.00     0.191 C 
HETATM   15  O           1     -15.480   5.334 -19.338  0.00  0.00    -0.647 OA
HETATM   16  O           1     -15.445   5.365 -21.502  0.00  0.00    -0.647 OA
ENDBRANCH  13  14
ENDBRANCH  10  13
ENDBRANCH   1   9
BRANCH   1  17
HETATM   17  N           1      -9.114   5.254 -18.624  0.00  0.00    -0.064 N 
HETATM   18  H           1      -9.546   4.544 -17.991  0.00  0.00     0.275 HD
HETATM   19  H           1      -8.589   5.956 -18.057  0.00  0.00     0.275 HD
HETATM   20  H           1      -8.458   4.779 -19.285  0.00  0.00     0.275 HD
ENDBRANCH   1  17
TORSDOF 8
ENDMDL
