MODEL 1
REMARK VINA RESULT:      -6.5      0.000      0.000
REMARK  9 active torsions:
REMARK  status: ('A' for Active; 'I' for Inactive)
REMARK    1  A    between atoms: C_2  and  O_4 
REMARK    2  A    between atoms: C_2  and  C_3 
REMARK    3  A    between atoms: C_3  and  C_21 
REMARK    4  A    between atoms: C_3  and  N_20 
REMARK    5  A    between atoms: C_5  and  C_6 
REMARK    6  A    between atoms: C_5  and  C_11 
REMARK    7  A    between atoms: C_6  and  C_7 
REMARK    8  A    between atoms: C_6  and  N_15 
REMARK       I    between atoms: C_7  and  N_20 
REMARK    9  A    between atoms: C_11  and  C_18 
ROOT
HETATM    1  C           1     -28.499  -6.419 -18.608  0.00  0.00     0.249 C 
HETATM    2  H           1     -27.548  -8.248 -18.787  0.00  0.00     0.163 HD
HETATM    3  O           1     -28.592  -5.303 -19.062  0.00  0.00    -0.271 OA
HETATM    4  N           1     -27.625  -7.314 -19.166  0.00  0.00    -0.343 N 
ENDROOT
BRANCH   1   5
HETATM    5  C           1     -29.346  -6.825 -17.427  0.00  0.00     0.275 C 
BRANCH   5   6
HETATM    6  C           1     -28.737  -6.266 -16.149  0.00  0.00     0.053 C 
BRANCH   6   7
HETATM    7  C           1     -27.742  -7.268 -15.579  0.00  0.00     0.115 C 
BRANCH   7   8
HETATM    8  C           1     -26.336  -6.777 -15.824  0.00  0.00     0.172 C 
HETATM    9  O           1     -26.140  -5.781 -16.552  0.00  0.00    -0.648 OA
HETATM   10  O           1     -25.367  -7.367 -15.297  0.00  0.00    -0.648 OA
ENDBRANCH   7   8
ENDBRANCH   6   7
ENDBRANCH   5   6
BRANCH   5  11
HETATM   11  N           1     -29.398  -8.322 -17.343  0.00  0.00    -0.066 N 
HETATM   12  H           1     -30.333  -8.619 -16.984  0.00  0.00     0.275 HD
HETATM   13  H           1     -28.651  -8.659 -16.694  0.00  0.00     0.275 HD
HETATM   14  H           1     -29.243  -8.730 -18.292  0.00  0.00     0.275 HD
ENDBRANCH   5  11
ENDBRANCH   1   5
BRANCH   4  15
HETATM   15  C           1     -26.812  -6.922 -20.301  0.00  0.00     0.209 C 
BRANCH  15  16
HETATM   16  C           1     -25.461  -6.423 -19.806  0.00  0.00     0.200 C 
BRANCH  16  17
HETATM   17  O           1     -24.920  -7.352 -18.907  0.00  0.00    -0.398 OA
HETATM   18  H           1     -23.985  -7.333 -19.022  0.00  0.00     0.209 HD
ENDBRANCH  16  17
ENDBRANCH  15  16
BRANCH  15  19
HETATM   19  C           1     -26.609  -8.111 -21.208  0.00  0.00     0.198 C 
HETATM   20  O           1     -27.575  -8.851 -21.494  0.00  0.00    -0.646 OA
HETATM   21  O           1     -25.475  -8.356 -21.673  0.00  0.00    -0.646 OA
ENDBRANCH  15  19
ENDBRANCH   4  15
TORSDOF 9
ENDMDL
MODEL 2
REMARK VINA RESULT:      -5.8      8.420     11.416
REMARK  9 active torsions:
REMARK  status: ('A' for Active; 'I' for Inactive)
REMARK    1  A    between atoms: C_2  and  O_4 
REMARK    2  A    between atoms: C_2  and  C_3 
REMARK    3  A    between atoms: C_3  and  C_21 
REMARK    4  A    between atoms: C_3  and  N_20 
REMARK    5  A    between atoms: C_5  and  C_6 
REMARK    6  A    between atoms: C_5  and  C_11 
REMARK    7  A    between atoms: C_6  and  C_7 
REMARK    8  A    between atoms: C_6  and  N_15 
REMARK       I    between atoms: C_7  and  N_20 
REMARK    9  A    between atoms: C_11  and  C_18 
ROOT
HETATM    1  C           1     -22.527  -3.876 -10.038  0.00  0.00     0.249 C 
HETATM    2  H           1     -20.817  -4.911  -9.502  0.00  0.00     0.163 HD
HETATM    3  O           1     -23.446  -3.204  -9.632  0.00  0.00    -0.271 OA
HETATM    4  N           1     -21.587  -4.349  -9.162  0.00  0.00    -0.343 N 
ENDROOT
BRANCH   1   5
HETATM    5  C           1     -22.416  -4.193 -11.509  0.00  0.00     0.275 C 
BRANCH   5   6
HETATM    6  C           1     -22.485  -2.902 -12.313  0.00  0.00     0.053 C 
BRANCH   6   7
HETATM    7  C           1     -23.739  -2.906 -13.175  0.00  0.00     0.115 C 
BRANCH   7   8
HETATM    8  C           1     -23.428  -2.297 -14.521  0.00  0.00     0.172 C 
HETATM    9  O           1     -22.578  -2.830 -15.267  0.00  0.00    -0.648 OA
HETATM   10  O           1     -24.020  -1.259 -14.889  0.00  0.00    -0.648 OA
ENDBRANCH   7   8
ENDBRANCH   6   7
ENDBRANCH   5   6
BRANCH   5  11
HETATM   11  N           1     -23.546  -5.093 -11.911  0.00  0.00    -0.066 N 
HETATM   12  H           1     -23.659  -5.068 -12.950  0.00  0.00     0.275 HD
HETATM   13  H           1     -24.429  -4.768 -11.456  0.00  0.00     0.275 HD
HETATM   14  H           1     -23.339  -6.071 -11.607  0.00  0.00     0.275 HD
ENDBRANCH   5  11
ENDBRANCH   1   5
BRANCH   4  15
HETATM   15  C           1     -21.694  -4.044  -7.748  0.00  0.00     0.209 C 
BRANCH  15  16
HETATM   16  C           1     -22.709  -4.980  -7.105  0.00  0.00     0.200 C 
BRANCH  16  17
HETATM   17  O           1     -23.913  -4.291  -6.897  0.00  0.00    -0.398 OA
HETATM   18  H           1     -24.604  -4.846  -7.215  0.00  0.00     0.209 HD
ENDBRANCH  16  17
ENDBRANCH  15  16
BRANCH  15  19
HETATM   19  C           1     -20.349  -4.231  -7.091  0.00  0.00     0.198 C 
HETATM   20  O           1     -19.307  -4.202  -7.780  0.00  0.00    -0.646 OA
HETATM   21  O           1     -20.277  -4.415  -5.856  0.00  0.00    -0.646 OA
ENDBRANCH  15  19
ENDBRANCH   4  15
TORSDOF 9
ENDMDL
MODEL 3
REMARK VINA RESULT:      -5.7     10.419     12.741
REMARK  9 active torsions:
REMARK  status: ('A' for Active; 'I' for Inactive)
REMARK    1  A    between atoms: C_2  and  O_4 
REMARK    2  A    between atoms: C_2  and  C_3 
REMARK    3  A    between atoms: C_3  and  C_21 
REMARK    4  A    between atoms: C_3  and  N_20 
REMARK    5  A    between atoms: C_5  and  C_6 
REMARK    6  A    between atoms: C_5  and  C_11 
REMARK    7  A    between atoms: C_6  and  C_7 
REMARK    8  A    between atoms: C_6  and  N_15 
REMARK       I    between atoms: C_7  and  N_20 
REMARK    9  A    between atoms: C_11  and  C_18 
ROOT
HETATM    1  C           1     -21.661  -4.649  -7.591  0.00  0.00     0.249 C 
HETATM    2  H           1     -22.343  -5.672  -9.255  0.00  0.00     0.163 HD
HETATM    3  O           1     -21.572  -3.567  -7.062  0.00  0.00    -0.271 OA
HETATM    4  N           1     -22.268  -4.766  -8.813  0.00  0.00    -0.343 N 
ENDROOT
BRANCH   1   5
HETATM    5  C           1     -21.105  -5.872  -6.905  0.00  0.00     0.275 C 
BRANCH   5   6
HETATM    6  C           1     -21.033  -5.624  -5.404  0.00  0.00     0.053 C 
BRANCH   6   7
HETATM    7  C           1     -22.124  -6.422  -4.704  0.00  0.00     0.115 C 
BRANCH   7   8
HETATM    8  C           1     -21.781  -6.568  -3.241  0.00  0.00     0.172 C 
HETATM    9  O           1     -20.846  -7.320  -2.890  0.00  0.00    -0.648 OA
HETATM   10  O           1     -22.433  -5.936  -2.380  0.00  0.00    -0.648 OA
ENDBRANCH   7   8
ENDBRANCH   6   7
ENDBRANCH   5   6
BRANCH   5  11
HETATM   11  N           1     -19.729  -6.157  -7.430  0.00  0.00    -0.066 N 
HETATM   12  H           1     -19.193  -6.710  -6.724  0.00  0.00     0.275 HD
HETATM   13  H           1     -19.234  -5.255  -7.615  0.00  0.00     0.275 HD
HETATM   14  H           1     -19.801  -6.701  -8.319  0.00  0.00     0.275 HD
ENDBRANCH   5  11
ENDBRANCH   1   5
BRANCH   4  15
HETATM   15  C           1     -22.803  -3.590  -9.472  0.00  0.00     0.209 C 
BRANCH  15  16
HETATM   16  C           1     -22.115  -3.409 -10.819  0.00  0.00     0.200 C 
BRANCH  16  17
HETATM   17  O           1     -23.032  -2.892 -11.746  0.00  0.00    -0.398 OA
HETATM   18  H           1     -23.227  -3.585 -12.353  0.00  0.00     0.209 HD
ENDBRANCH  16  17
ENDBRANCH  15  16
BRANCH  15  19
HETATM   19  C           1     -24.286  -3.764  -9.683  0.00  0.00     0.198 C 
HETATM   20  O           1     -25.060  -2.798  -9.511  0.00  0.00    -0.646 OA
HETATM   21  O           1     -24.743  -4.875 -10.030  0.00  0.00    -0.646 OA
ENDBRANCH  15  19
ENDBRANCH   4  15
TORSDOF 9
ENDMDL
MODEL 4
REMARK VINA RESULT:      -5.7      9.457     11.654
REMARK  9 active torsions:
REMARK  status: ('A' for Active; 'I' for Inactive)
REMARK    1  A    between atoms: C_2  and  O_4 
REMARK    2  A    between atoms: C_2  and  C_3 
REMARK    3  A    between atoms: C_3  and  C_21 
REMARK    4  A    between atoms: C_3  and  N_20 
REMARK    5  A    between atoms: C_5  and  C_6 
REMARK    6  A    between atoms: C_5  and  C_11 
REMARK    7  A    between atoms: C_6  and  C_7 
REMARK    8  A    between atoms: C_6  and  N_15 
REMARK       I    between atoms: C_7  and  N_20 
REMARK    9  A    between atoms: C_11  and  C_18 
ROOT
HETATM    1  C           1     -21.929  -3.893  -8.638  0.00  0.00     0.249 C 
HETATM    2  H           1     -23.963  -3.939  -9.017  0.00  0.00     0.163 HD
HETATM    3  O           1     -20.838  -3.682  -9.112  0.00  0.00    -0.271 OA
HETATM    4  N           1     -23.050  -3.763  -9.415  0.00  0.00    -0.343 N 
ENDROOT
BRANCH   1   5
HETATM    5  C           1     -22.057  -4.299  -7.190  0.00  0.00     0.275 C 
BRANCH   5   6
HETATM    6  C           1     -21.260  -5.574  -6.949  0.00  0.00     0.053 C 
BRANCH   6   7
HETATM    7  C           1     -20.582  -5.500  -5.588  0.00  0.00     0.115 C 
BRANCH   7   8
HETATM    8  C           1     -21.304  -6.399  -4.614  0.00  0.00     0.172 C 
HETATM    9  O           1     -22.494  -6.163  -4.311  0.00  0.00    -0.648 OA
HETATM   10  O           1     -20.714  -7.380  -4.113  0.00  0.00    -0.648 OA
ENDBRANCH   7   8
ENDBRANCH   6   7
ENDBRANCH   5   6
BRANCH   5  11
HETATM   11  N           1     -23.500  -4.543  -6.866  0.00  0.00    -0.066 N 
HETATM   12  H           1     -23.848  -5.361  -7.415  0.00  0.00     0.275 HD
HETATM   13  H           1     -24.059  -3.694  -7.111  0.00  0.00     0.275 HD
HETATM   14  H           1     -23.600  -4.740  -5.845  0.00  0.00     0.275 HD
ENDBRANCH   5  11
ENDBRANCH   1   5
BRANCH   4  15
HETATM   15  C           1     -22.926  -3.373 -10.806  0.00  0.00     0.209 C 
BRANCH  15  16
HETATM   16  C           1     -22.210  -4.473 -11.578  0.00  0.00     0.200 C 
BRANCH  16  17
HETATM   17  O           1     -21.600  -3.925 -12.716  0.00  0.00    -0.398 OA
HETATM   18  H           1     -22.292  -3.682 -13.307  0.00  0.00     0.209 HD
ENDBRANCH  16  17
ENDBRANCH  15  16
BRANCH  15  19
HETATM   19  C           1     -24.300  -3.158 -11.391  0.00  0.00     0.198 C 
HETATM   20  O           1     -25.308  -3.205 -10.653  0.00  0.00    -0.646 OA
HETATM   21  O           1     -24.431  -2.935 -12.614  0.00  0.00    -0.646 OA
ENDBRANCH  15  19
ENDBRANCH   4  15
TORSDOF 9
ENDMDL
MODEL 5
REMARK VINA RESULT:      -5.7      9.239     12.169
REMARK  9 active torsions:
REMARK  status: ('A' for Active; 'I' for Inactive)
REMARK    1  A    between atoms: C_2  and  O_4 
REMARK    2  A    between atoms: C_2  and  C_3 
REMARK    3  A    between atoms: C_3  and  C_21 
REMARK    4  A    between atoms: C_3  and  N_20 
REMARK    5  A    between atoms: C_5  and  C_6 
REMARK    6  A    between atoms: C_5  and  C_11 
REMARK    7  A    between atoms: C_6  and  C_7 
REMARK    8  A    between atoms: C_6  and  N_15 
REMARK       I    between atoms: C_7  and  N_20 
REMARK    9  A    between atoms: C_11  and  C_18 
ROOT
HETATM    1  C           1     -20.746  -4.493  -9.769  0.00  0.00     0.249 C 
HETATM    2  H           1     -21.947  -4.185  -8.113  0.00  0.00     0.163 HD
HETATM    3  O           1     -19.761  -5.054 -10.188  0.00  0.00    -0.271 OA
HETATM    4  N           1     -21.122  -4.654  -8.463  0.00  0.00    -0.343 N 
ENDROOT
BRANCH   1   5
HETATM    5  C           1     -21.561  -3.616 -10.687  0.00  0.00     0.275 C 
BRANCH   5   6
HETATM    6  C           1     -22.521  -4.479 -11.495  0.00  0.00     0.053 C 
BRANCH   6   7
HETATM    7  C           1     -23.786  -4.728 -10.686  0.00  0.00     0.115 C 
BRANCH   7   8
HETATM    8  C           1     -24.635  -3.480 -10.682  0.00  0.00     0.172 C 
HETATM    9  O           1     -24.935  -2.931  -9.600  0.00  0.00    -0.648 OA
HETATM   10  O           1     -25.037  -2.994 -11.762  0.00  0.00    -0.648 OA
ENDBRANCH   7   8
ENDBRANCH   6   7
ENDBRANCH   5   6
BRANCH   5  11
HETATM   11  N           1     -20.645  -2.881 -11.620  0.00  0.00    -0.066 N 
HETATM   12  H           1     -19.711  -2.761 -11.167  0.00  0.00     0.275 HD
HETATM   13  H           1     -21.050  -1.944 -11.839  0.00  0.00     0.275 HD
HETATM   14  H           1     -20.536  -3.428 -12.504  0.00  0.00     0.275 HD
ENDBRANCH   5  11
ENDBRANCH   1   5
BRANCH   4  15
HETATM   15  C           1     -20.338  -5.497  -7.581  0.00  0.00     0.209 C 
BRANCH  15  16
HETATM   16  C           1     -19.343  -4.637  -6.812  0.00  0.00     0.200 C 
BRANCH  16  17
HETATM   17  O           1     -19.729  -4.568  -5.465  0.00  0.00    -0.398 OA
HETATM   18  H           1     -20.632  -4.301  -5.452  0.00  0.00     0.209 HD
ENDBRANCH  16  17
ENDBRANCH  15  16
BRANCH  15  19
HETATM   19  C           1     -21.255  -6.198  -6.610  0.00  0.00     0.198 C 
HETATM   20  O           1     -21.025  -7.380  -6.275  0.00  0.00    -0.646 OA
HETATM   21  O           1     -22.246  -5.597  -6.140  0.00  0.00    -0.646 OA
ENDBRANCH  15  19
ENDBRANCH   4  15
TORSDOF 9
ENDMDL
MODEL 6
REMARK VINA RESULT:      -5.3      9.336     12.312
REMARK  9 active torsions:
REMARK  status: ('A' for Active; 'I' for Inactive)
REMARK    1  A    between atoms: C_2  and  O_4 
REMARK    2  A    between atoms: C_2  and  C_3 
REMARK    3  A    between atoms: C_3  and  C_21 
REMARK    4  A    between atoms: C_3  and  N_20 
REMARK    5  A    between atoms: C_5  and  C_6 
REMARK    6  A    between atoms: C_5  and  C_11 
REMARK    7  A    between atoms: C_6  and  C_7 
REMARK    8  A    between atoms: C_6  and  N_15 
REMARK       I    between atoms: C_7  and  N_20 
REMARK    9  A    between atoms: C_11  and  C_18 
ROOT
HETATM    1  C           1     -21.834  -4.760  -8.923  0.00  0.00     0.249 C 
HETATM    2  H           1     -22.946  -5.072  -7.206  0.00  0.00     0.163 HD
HETATM    3  O           1     -20.740  -4.858  -9.425  0.00  0.00    -0.271 OA
HETATM    4  N           1     -22.030  -5.152  -7.625  0.00  0.00    -0.343 N 
ENDROOT
BRANCH   1   5
HETATM    5  C           1     -22.986  -4.208  -9.726  0.00  0.00     0.275 C 
BRANCH   5   6
HETATM    6  C           1     -22.458  -3.219 -10.757  0.00  0.00     0.053 C 
BRANCH   6   7
HETATM    7  C           1     -22.889  -3.657 -12.150  0.00  0.00     0.115 C 
BRANCH   7   8
HETATM    8  C           1     -24.202  -3.000 -12.501  0.00  0.00     0.172 C 
HETATM    9  O           1     -24.324  -2.388 -13.584  0.00  0.00    -0.648 OA
HETATM   10  O           1     -25.167  -3.068 -11.709  0.00  0.00    -0.648 OA
ENDBRANCH   7   8
ENDBRANCH   6   7
ENDBRANCH   5   6
BRANCH   5  11
HETATM   11  N           1     -23.944  -3.509  -8.808  0.00  0.00    -0.066 N 
HETATM   12  H           1     -24.634  -4.199  -8.434  0.00  0.00     0.275 HD
HETATM   13  H           1     -24.449  -2.762  -9.337  0.00  0.00     0.275 HD
HETATM   14  H           1     -23.417  -3.078  -8.016  0.00  0.00     0.275 HD
ENDBRANCH   5  11
ENDBRANCH   1   5
BRANCH   4  15
HETATM   15  C           1     -20.922  -5.683  -6.854  0.00  0.00     0.209 C 
BRANCH  15  16
HETATM   16  C           1     -20.091  -4.531  -6.303  0.00  0.00     0.200 C 
BRANCH  16  17
HETATM   17  O           1     -20.127  -4.557  -4.902  0.00  0.00    -0.398 OA
HETATM   18  H           1     -19.278  -4.282  -4.601  0.00  0.00     0.209 HD
ENDBRANCH  16  17
ENDBRANCH  15  16
BRANCH  15  19
HETATM   19  C           1     -21.457  -6.510  -5.711  0.00  0.00     0.198 C 
HETATM   20  O           1     -22.514  -6.173  -5.136  0.00  0.00    -0.646 OA
HETATM   21  O           1     -20.843  -7.534  -5.338  0.00  0.00    -0.646 OA
ENDBRANCH  15  19
ENDBRANCH   4  15
TORSDOF 9
ENDMDL
MODEL 7
REMARK VINA RESULT:      -5.2     12.921     15.316
REMARK  9 active torsions:
REMARK  status: ('A' for Active; 'I' for Inactive)
REMARK    1  A    between atoms: C_2  and  O_4 
REMARK    2  A    between atoms: C_2  and  C_3 
REMARK    3  A    between atoms: C_3  and  C_21 
REMARK    4  A    between atoms: C_3  and  N_20 
REMARK    5  A    between atoms: C_5  and  C_6 
REMARK    6  A    between atoms: C_5  and  C_11 
REMARK    7  A    between atoms: C_6  and  C_7 
REMARK    8  A    between atoms: C_6  and  N_15 
REMARK       I    between atoms: C_7  and  N_20 
REMARK    9  A    between atoms: C_11  and  C_18 
ROOT
HETATM    1  C           1     -21.496  -7.263  -5.221  0.00  0.00     0.249 C 
HETATM    2  H           1     -21.885  -5.267  -4.839  0.00  0.00     0.163 HD
HETATM    3  O           1     -21.215  -8.072  -6.073  0.00  0.00    -0.271 OA
HETATM    4  N           1     -21.651  -5.944  -5.553  0.00  0.00    -0.343 N 
ENDROOT
BRANCH   1   5
HETATM    5  C           1     -21.674  -7.707  -3.789  0.00  0.00     0.275 C 
BRANCH   5   6
HETATM    6  C           1     -21.150  -6.627  -2.853  0.00  0.00     0.053 C 
BRANCH   6   7
HETATM    7  C           1     -22.236  -6.247  -1.856  0.00  0.00     0.115 C 
BRANCH   7   8
HETATM    8  C           1     -22.243  -7.238  -0.717  0.00  0.00     0.172 C 
HETATM    9  O           1     -21.219  -7.908  -0.466  0.00  0.00    -0.648 OA
HETATM   10  O           1     -23.273  -7.386  -0.024  0.00  0.00    -0.648 OA
ENDBRANCH   7   8
ENDBRANCH   6   7
ENDBRANCH   5   6
BRANCH   5  11
HETATM   11  N           1     -20.910  -8.978  -3.563  0.00  0.00    -0.066 N 
HETATM   12  H           1     -20.062  -8.776  -2.987  0.00  0.00     0.275 HD
HETATM   13  H           1     -20.621  -9.379  -4.483  0.00  0.00     0.275 HD
HETATM   14  H           1     -21.517  -9.665  -3.060  0.00  0.00     0.275 HD
ENDBRANCH   5  11
ENDBRANCH   1   5
BRANCH   4  15
HETATM   15  C           1     -21.480  -5.519  -6.929  0.00  0.00     0.209 C 
BRANCH  15  16
HETATM   16  C           1     -22.532  -4.471  -7.269  0.00  0.00     0.200 C 
BRANCH  16  17
HETATM   17  O           1     -21.926  -3.209  -7.346  0.00  0.00    -0.398 OA
HETATM   18  H           1     -22.549  -2.585  -7.013  0.00  0.00     0.209 HD
ENDBRANCH  16  17
ENDBRANCH  15  16
BRANCH  15  19
HETATM   19  C           1     -20.103  -4.926  -7.103  0.00  0.00     0.198 C 
HETATM   20  O           1     -19.628  -4.776  -8.249  0.00  0.00    -0.646 OA
HETATM   21  O           1     -19.437  -4.585  -6.101  0.00  0.00    -0.646 OA
ENDBRANCH  15  19
ENDBRANCH   4  15
TORSDOF 9
ENDMDL
MODEL 8
REMARK VINA RESULT:      -5.1      9.400     11.656
REMARK  9 active torsions:
REMARK  status: ('A' for Active; 'I' for Inactive)
REMARK    1  A    between atoms: C_2  and  O_4 
REMARK    2  A    between atoms: C_2  and  C_3 
REMARK    3  A    between atoms: C_3  and  C_21 
REMARK    4  A    between atoms: C_3  and  N_20 
REMARK    5  A    between atoms: C_5  and  C_6 
REMARK    6  A    between atoms: C_5  and  C_11 
REMARK    7  A    between atoms: C_6  and  C_7 
REMARK    8  A    between atoms: C_6  and  N_15 
REMARK       I    between atoms: C_7  and  N_20 
REMARK    9  A    between atoms: C_11  and  C_18 
ROOT
HETATM    1  C           1     -22.449  -4.558  -8.715  0.00  0.00     0.249 C 
HETATM    2  H           1     -21.895  -4.403 -10.703  0.00  0.00     0.163 HD
HETATM    3  O           1     -23.375  -4.527  -7.940  0.00  0.00    -0.271 OA
HETATM    4  N           1     -22.671  -4.376 -10.054  0.00  0.00    -0.343 N 
ENDROOT
BRANCH   1   5
HETATM    5  C           1     -21.049  -4.800  -8.208  0.00  0.00     0.275 C 
BRANCH   5   6
HETATM    6  C           1     -21.052  -5.985  -7.252  0.00  0.00     0.053 C 
BRANCH   6   7
HETATM    7  C           1     -20.506  -5.550  -5.900  0.00  0.00     0.115 C 
BRANCH   7   8
HETATM    8  C           1     -21.492  -5.917  -4.817  0.00  0.00     0.172 C 
HETATM    9  O           1     -22.681  -6.166  -5.112  0.00  0.00    -0.648 OA
HETATM   10  O           1     -21.119  -5.973  -3.624  0.00  0.00    -0.648 OA
ENDBRANCH   7   8
ENDBRANCH   6   7
ENDBRANCH   5   6
BRANCH   5  11
HETATM   11  N           1     -20.562  -3.578  -7.486  0.00  0.00    -0.066 N 
HETATM   12  H           1     -19.761  -3.160  -8.010  0.00  0.00     0.275 HD
HETATM   13  H           1     -20.250  -3.844  -6.525  0.00  0.00     0.275 HD
HETATM   14  H           1     -21.338  -2.881  -7.419  0.00  0.00     0.275 HD
ENDBRANCH   5  11
ENDBRANCH   1   5
BRANCH   4  15
HETATM   15  C           1     -24.017  -4.143 -10.541  0.00  0.00     0.209 C 
BRANCH  15  16
HETATM   16  C           1     -24.712  -3.130  -9.642  0.00  0.00     0.200 C 
BRANCH  16  17
HETATM   17  O           1     -26.102  -3.262  -9.776  0.00  0.00    -0.398 OA
HETATM   18  H           1     -26.274  -3.442 -10.684  0.00  0.00     0.209 HD
ENDBRANCH  16  17
ENDBRANCH  15  16
BRANCH  15  19
HETATM   19  C           1     -23.955  -3.608 -11.950  0.00  0.00     0.198 C 
HETATM   20  O           1     -22.862  -3.556 -12.553  0.00  0.00    -0.646 OA
HETATM   21  O           1     -24.999  -3.215 -12.516  0.00  0.00    -0.646 OA
ENDBRANCH  15  19
ENDBRANCH   4  15
TORSDOF 9
ENDMDL
MODEL 9
REMARK VINA RESULT:      -5.0     19.654     21.353
REMARK  9 active torsions:
REMARK  status: ('A' for Active; 'I' for Inactive)
REMARK    1  A    between atoms: C_2  and  O_4 
REMARK    2  A    between atoms: C_2  and  C_3 
REMARK    3  A    between atoms: C_3  and  C_21 
REMARK    4  A    between atoms: C_3  and  N_20 
REMARK    5  A    between atoms: C_5  and  C_6 
REMARK    6  A    between atoms: C_5  and  C_11 
REMARK    7  A    between atoms: C_6  and  C_7 
REMARK    8  A    between atoms: C_6  and  N_15 
REMARK       I    between atoms: C_7  and  N_20 
REMARK    9  A    between atoms: C_11  and  C_18 
ROOT
HETATM    1  C           1     -10.232   5.964 -20.753  0.00  0.00     0.249 C 
HETATM    2  H           1     -11.921   6.985 -21.374  0.00  0.00     0.163 HD
HETATM    3  O           1      -9.131   6.073 -20.267  0.00  0.00    -0.271 OA
HETATM    4  N           1     -10.999   7.077 -20.967  0.00  0.00    -0.343 N 
ENDROOT
BRANCH   1   5
HETATM    5  C           1     -10.760   4.600 -21.124  0.00  0.00     0.275 C 
BRANCH   5   6
HETATM    6  C           1     -12.013   4.754 -21.975  0.00  0.00     0.053 C 
BRANCH   6   7
HETATM    7  C           1     -13.192   4.103 -21.266  0.00  0.00     0.115 C 
BRANCH   7   8
HETATM    8  C           1     -14.109   5.173 -20.725  0.00  0.00     0.172 C 
HETATM    9  O           1     -13.710   5.939 -19.821  0.00  0.00    -0.648 OA
HETATM   10  O           1     -15.267   5.295 -21.182  0.00  0.00    -0.648 OA
ENDBRANCH   7   8
ENDBRANCH   6   7
ENDBRANCH   5   6
BRANCH   5  11
HETATM   11  N           1     -11.094   3.839 -19.876  0.00  0.00    -0.066 N 
HETATM   12  H           1     -12.129   3.844 -19.731  0.00  0.00     0.275 HD
HETATM   13  H           1     -10.625   4.289 -19.058  0.00  0.00     0.275 HD
HETATM   14  H           1     -10.759   2.853 -19.968  0.00  0.00     0.275 HD
ENDBRANCH   5  11
ENDBRANCH   1   5
BRANCH   4  15
HETATM   15  C           1     -10.491   8.388 -20.611  0.00  0.00     0.209 C 
BRANCH  15  16
HETATM   16  C           1     -10.982   9.414 -21.624  0.00  0.00     0.200 C 
BRANCH  16  17
HETATM   17  O           1     -11.466  10.543 -20.948  0.00  0.00    -0.398 OA
HETATM   18  H           1     -11.016  10.582 -20.122  0.00  0.00     0.209 HD
ENDBRANCH  16  17
ENDBRANCH  15  16
BRANCH  15  19
HETATM   19  C           1     -10.985   8.761 -19.235  0.00  0.00     0.198 C 
HETATM   20  O           1     -12.210   8.762 -18.990  0.00  0.00    -0.646 OA
HETATM   21  O           1     -10.169   9.070 -18.340  0.00  0.00    -0.646 OA
ENDBRANCH  15  19
ENDBRANCH   4  15
TORSDOF 9
ENDMDL
