MODEL 1
REMARK VINA RESULT:      -6.8      0.000      0.000
REMARK  11 active torsions:
REMARK  status: ('A' for Active; 'I' for Inactive)
REMARK    1  A    between atoms: C_1  and  C_16 
REMARK    2  A    between atoms: C_1  and  C_2 
REMARK    3  A    between atoms: C_1  and  N_21 
REMARK    4  A    between atoms: C_2  and  C_25 
REMARK    5  A    between atoms: C_6  and  C_9 
REMARK    6  A    between atoms: C_6  and  C_7 
REMARK    7  A    between atoms: C_6  and  N_17 
REMARK    8  A    between atoms: C_7  and  O_24 
REMARK    9  A    between atoms: C_11  and  C_25 
REMARK       I    between atoms: C_11  and  N_12 
REMARK   10  A    between atoms: P_14  and  O_24 
REMARK   11  A    between atoms: P_14  and  O_19 
REMARK       I    between atoms: C_16  and  N_17 
ROOT
HETATM    1  H           1     -21.195  -5.213 -10.406  0.00  0.00     0.163 HD
HETATM    2  O           1     -21.791  -3.392  -7.923  0.00  0.00    -0.271 OA
HETATM    3  C           1     -21.327  -4.317  -8.546  0.00  0.00     0.249 C 
HETATM    4  N           1     -21.583  -4.438  -9.884  0.00  0.00    -0.343 N 
ENDROOT
BRANCH   3   5
HETATM    5  C           1     -20.465  -5.340  -7.846  0.00  0.00     0.275 C 
BRANCH   5   6
HETATM    6  C           1     -21.292  -6.067  -6.793  0.00  0.00     0.052 C 
BRANCH   6   7
HETATM    7  C           1     -20.878  -5.592  -5.407  0.00  0.00     0.105 C 
BRANCH   7   8
HETATM    8  C           1     -21.582  -6.421  -4.360  0.00  0.00     0.215 C 
HETATM    9  N           1     -21.674  -5.965  -3.072  0.00  0.00    -0.370 N 
HETATM   10  H           1     -22.146  -6.521  -2.371  0.00  0.00     0.159 HD
HETATM   11  H           1     -21.270  -5.071  -2.822  0.00  0.00     0.159 HD
HETATM   12  O           1     -22.065  -7.487  -4.659  0.00  0.00    -0.274 OA
ENDBRANCH   7   8
ENDBRANCH   6   7
ENDBRANCH   5   6
BRANCH   5  13
HETATM   13  N           1     -19.309  -4.651  -7.185  0.00  0.00    -0.066 N 
HETATM   14  H           1     -19.569  -4.394  -6.207  0.00  0.00     0.275 HD
HETATM   15  H           1     -18.484  -5.293  -7.169  0.00  0.00     0.275 HD
HETATM   16  H           1     -19.066  -3.787  -7.720  0.00  0.00     0.275 HD
ENDBRANCH   5  13
ENDBRANCH   3   5
BRANCH   4  17
HETATM   17  C           1     -22.412  -3.455 -10.556  0.00  0.00     0.210 C 
BRANCH  17  18
HETATM   18  C           1     -23.863  -3.847 -10.423  0.00  0.00     0.198 C 
HETATM   19  O           1     -24.693  -3.025  -9.977  0.00  0.00    -0.646 OA
HETATM   20  O           1     -24.235  -4.991 -10.760  0.00  0.00    -0.646 OA
ENDBRANCH  17  18
BRANCH  17  21
HETATM   21  C           1     -22.033  -3.396 -12.030  0.00  0.00     0.217 C 
BRANCH  21  22
HETATM   22  O           1     -22.722  -2.343 -12.648  0.00  0.00    -0.287 OA
BRANCH  22  23
HETATM   23  P           1     -23.508  -2.714 -14.010  0.00  0.00     0.406 P 
HETATM   24  O           1     -22.538  -2.841 -15.120  0.00  0.00    -0.624 OA
HETATM   25  O           1     -24.482  -1.646 -14.325  0.00  0.00    -0.624 OA
BRANCH  23  26
HETATM   26  O           1     -24.289  -4.115 -13.815  0.00  0.00    -0.300 OA
HETATM   27  H           1     -24.367  -4.222 -12.882  0.00  0.00     0.223 HD
ENDBRANCH  23  26
ENDBRANCH  22  23
ENDBRANCH  21  22
ENDBRANCH  17  21
ENDBRANCH   4  17
TORSDOF 11
ENDMDL
MODEL 2
REMARK VINA RESULT:      -6.1      3.089      7.535
REMARK  11 active torsions:
REMARK  status: ('A' for Active; 'I' for Inactive)
REMARK    1  A    between atoms: C_1  and  C_16 
REMARK    2  A    between atoms: C_1  and  C_2 
REMARK    3  A    between atoms: C_1  and  N_21 
REMARK    4  A    between atoms: C_2  and  C_25 
REMARK    5  A    between atoms: C_6  and  C_9 
REMARK    6  A    between atoms: C_6  and  C_7 
REMARK    7  A    between atoms: C_6  and  N_17 
REMARK    8  A    between atoms: C_7  and  O_24 
REMARK    9  A    between atoms: C_11  and  C_25 
REMARK       I    between atoms: C_11  and  N_12 
REMARK   10  A    between atoms: P_14  and  O_24 
REMARK   11  A    between atoms: P_14  and  O_19 
REMARK       I    between atoms: C_16  and  N_17 
ROOT
HETATM    1  H           1     -22.423  -5.665  -8.120  0.00  0.00     0.163 HD
HETATM    2  O           1     -22.565  -2.886  -9.570  0.00  0.00    -0.271 OA
HETATM    3  C           1     -22.868  -4.025  -9.301  0.00  0.00     0.249 C 
HETATM    4  N           1     -22.169  -4.711  -8.346  0.00  0.00    -0.343 N 
ENDROOT
BRANCH   3   5
HETATM    5  C           1     -24.018  -4.689 -10.019  0.00  0.00     0.275 C 
BRANCH   5   6
HETATM    6  C           1     -23.730  -4.726 -11.514  0.00  0.00     0.052 C 
BRANCH   6   7
HETATM    7  C           1     -24.326  -3.492 -12.177  0.00  0.00     0.105 C 
BRANCH   7   8
HETATM    8  C           1     -23.415  -3.026 -13.287  0.00  0.00     0.215 C 
HETATM    9  N           1     -22.090  -3.372 -13.276  0.00  0.00    -0.370 N 
HETATM   10  H           1     -21.480  -3.059 -14.021  0.00  0.00     0.159 HD
HETATM   11  H           1     -21.721  -3.939 -12.524  0.00  0.00     0.159 HD
HETATM   12  O           1     -23.856  -2.350 -14.185  0.00  0.00    -0.274 OA
ENDBRANCH   7   8
ENDBRANCH   6   7
ENDBRANCH   5   6
BRANCH   5  13
HETATM   13  N           1     -25.276  -3.911  -9.772  0.00  0.00    -0.066 N 
HETATM   14  H           1     -25.035  -2.968  -9.393  0.00  0.00     0.275 HD
HETATM   15  H           1     -25.799  -3.802 -10.670  0.00  0.00     0.275 HD
HETATM   16  H           1     -25.872  -4.422  -9.082  0.00  0.00     0.275 HD
ENDBRANCH   5  13
ENDBRANCH   3   5
BRANCH   4  17
HETATM   17  C           1     -21.064  -4.074  -7.656  0.00  0.00     0.210 C 
BRANCH  17  18
HETATM   18  C           1     -19.766  -4.467  -8.316  0.00  0.00     0.198 C 
HETATM   19  O           1     -18.687  -4.342  -7.697  0.00  0.00    -0.646 OA
HETATM   20  O           1     -19.769  -4.917  -9.482  0.00  0.00    -0.646 OA
ENDBRANCH  17  18
BRANCH  17  21
HETATM   21  C           1     -21.050  -4.520  -6.200  0.00  0.00     0.217 C 
BRANCH  21  22
HETATM   22  O           1     -21.177  -5.915  -6.137  0.00  0.00    -0.287 OA
BRANCH  22  23
HETATM   23  P           1     -22.018  -6.494  -4.886  0.00  0.00     0.406 P 
HETATM   24  O           1     -23.449  -6.161  -5.057  0.00  0.00    -0.624 OA
HETATM   25  O           1     -21.518  -5.887  -3.632  0.00  0.00    -0.624 OA
BRANCH  23  26
HETATM   26  O           1     -21.842  -8.098  -4.816  0.00  0.00    -0.300 OA
HETATM   27  H           1     -21.646  -8.360  -5.699  0.00  0.00     0.223 HD
ENDBRANCH  23  26
ENDBRANCH  22  23
ENDBRANCH  21  22
ENDBRANCH  17  21
ENDBRANCH   4  17
TORSDOF 11
ENDMDL
MODEL 3
REMARK VINA RESULT:      -6.0      2.606      4.180
REMARK  11 active torsions:
REMARK  status: ('A' for Active; 'I' for Inactive)
REMARK    1  A    between atoms: C_1  and  C_16 
REMARK    2  A    between atoms: C_1  and  C_2 
REMARK    3  A    between atoms: C_1  and  N_21 
REMARK    4  A    between atoms: C_2  and  C_25 
REMARK    5  A    between atoms: C_6  and  C_9 
REMARK    6  A    between atoms: C_6  and  C_7 
REMARK    7  A    between atoms: C_6  and  N_17 
REMARK    8  A    between atoms: C_7  and  O_24 
REMARK    9  A    between atoms: C_11  and  C_25 
REMARK       I    between atoms: C_11  and  N_12 
REMARK   10  A    between atoms: P_14  and  O_24 
REMARK   11  A    between atoms: P_14  and  O_19 
REMARK       I    between atoms: C_16  and  N_17 
ROOT
HETATM    1  H           1     -23.033  -5.067  -5.517  0.00  0.00     0.163 HD
HETATM    2  O           1     -20.780  -7.057  -6.416  0.00  0.00    -0.271 OA
HETATM    3  C           1     -21.622  -6.570  -5.699  0.00  0.00     0.249 C 
HETATM    4  N           1     -22.327  -5.475  -6.117  0.00  0.00    -0.343 N 
ENDROOT
BRANCH   3   5
HETATM    5  C           1     -21.897  -7.173  -4.343  0.00  0.00     0.275 C 
BRANCH   5   6
HETATM    6  C           1     -21.266  -6.304  -3.263  0.00  0.00     0.052 C 
BRANCH   6   7
HETATM    7  C           1     -22.214  -6.196  -2.077  0.00  0.00     0.105 C 
BRANCH   7   8
HETATM    8  C           1     -21.905  -7.289  -1.084  0.00  0.00     0.215 C 
HETATM    9  N           1     -22.783  -7.562  -0.069  0.00  0.00    -0.370 N 
HETATM   10  H           1     -22.575  -8.295   0.597  0.00  0.00     0.159 HD
HETATM   11  H           1     -23.640  -7.029   0.015  0.00  0.00     0.159 HD
HETATM   12  O           1     -20.883  -7.925  -1.185  0.00  0.00    -0.274 OA
ENDBRANCH   7   8
ENDBRANCH   6   7
ENDBRANCH   5   6
BRANCH   5  13
HETATM   13  N           1     -21.310  -8.552  -4.280  0.00  0.00    -0.066 N 
HETATM   14  H           1     -21.541  -9.069  -5.158  0.00  0.00     0.275 HD
HETATM   15  H           1     -20.272  -8.483  -4.178  0.00  0.00     0.275 HD
HETATM   16  H           1     -21.707  -9.062  -3.460  0.00  0.00     0.275 HD
ENDBRANCH   5  13
ENDBRANCH   3   5
BRANCH   4  17
HETATM   17  C           1     -22.062  -4.896  -7.420  0.00  0.00     0.210 C 
BRANCH  17  18
HETATM   18  C           1     -20.978  -3.854  -7.297  0.00  0.00     0.198 C 
HETATM   19  O           1     -19.841  -4.077  -7.765  0.00  0.00    -0.646 OA
HETATM   20  O           1     -21.217  -2.768  -6.727  0.00  0.00    -0.646 OA
ENDBRANCH  17  18
BRANCH  17  21
HETATM   21  C           1     -23.333  -4.247  -7.954  0.00  0.00     0.217 C 
BRANCH  21  22
HETATM   22  O           1     -23.052  -3.590  -9.160  0.00  0.00    -0.287 OA
BRANCH  22  23
HETATM   23  P           1     -24.176  -3.715 -10.313  0.00  0.00     0.406 P 
HETATM   24  O           1     -24.269  -5.122 -10.761  0.00  0.00    -0.624 OA
HETATM   25  O           1     -23.806  -2.856 -11.459  0.00  0.00    -0.624 OA
BRANCH  23  26
HETATM   26  O           1     -25.604  -3.243  -9.724  0.00  0.00    -0.300 OA
HETATM   27  H           1     -26.230  -3.474 -10.389  0.00  0.00     0.223 HD
ENDBRANCH  23  26
ENDBRANCH  22  23
ENDBRANCH  21  22
ENDBRANCH  17  21
ENDBRANCH   4  17
TORSDOF 11
ENDMDL
MODEL 4
REMARK VINA RESULT:      -5.9      3.633      8.122
REMARK  11 active torsions:
REMARK  status: ('A' for Active; 'I' for Inactive)
REMARK    1  A    between atoms: C_1  and  C_16 
REMARK    2  A    between atoms: C_1  and  C_2 
REMARK    3  A    between atoms: C_1  and  N_21 
REMARK    4  A    between atoms: C_2  and  C_25 
REMARK    5  A    between atoms: C_6  and  C_9 
REMARK    6  A    between atoms: C_6  and  C_7 
REMARK    7  A    between atoms: C_6  and  N_17 
REMARK    8  A    between atoms: C_7  and  O_24 
REMARK    9  A    between atoms: C_11  and  C_25 
REMARK       I    between atoms: C_11  and  N_12 
REMARK   10  A    between atoms: P_14  and  O_24 
REMARK   11  A    between atoms: P_14  and  O_19 
REMARK       I    between atoms: C_16  and  N_17 
ROOT
HETATM    1  H           1     -19.974  -6.588  -5.229  0.00  0.00     0.163 HD
HETATM    2  O           1     -22.731  -5.307  -6.005  0.00  0.00    -0.271 OA
HETATM    3  C           1     -21.535  -5.481  -6.016  0.00  0.00     0.249 C 
HETATM    4  N           1     -20.975  -6.442  -5.219  0.00  0.00    -0.343 N 
ENDROOT
BRANCH   3   5
HETATM    5  C           1     -20.659  -4.637  -6.909  0.00  0.00     0.275 C 
BRANCH   5   6
HETATM    6  C           1     -21.504  -3.562  -7.581  0.00  0.00     0.052 C 
BRANCH   6   7
HETATM    7  C           1     -21.775  -3.958  -9.026  0.00  0.00     0.105 C 
BRANCH   7   8
HETATM    8  C           1     -23.232  -3.729  -9.346  0.00  0.00     0.215 C 
HETATM    9  N           1     -24.186  -3.941  -8.387  0.00  0.00    -0.370 N 
HETATM   10  H           1     -25.163  -3.787  -8.603  0.00  0.00     0.159 HD
HETATM   11  H           1     -23.915  -4.252  -7.463  0.00  0.00     0.159 HD
HETATM   12  O           1     -23.556  -3.357 -10.449  0.00  0.00    -0.274 OA
ENDBRANCH   7   8
ENDBRANCH   6   7
ENDBRANCH   5   6
BRANCH   5  13
HETATM   13  N           1     -20.031  -5.506  -7.958  0.00  0.00    -0.066 N 
HETATM   14  H           1     -19.123  -5.881  -7.603  0.00  0.00     0.275 HD
HETATM   15  H           1     -20.673  -6.300  -8.181  0.00  0.00     0.275 HD
HETATM   16  H           1     -19.862  -4.943  -8.822  0.00  0.00     0.275 HD
ENDBRANCH   5  13
ENDBRANCH   3   5
BRANCH   4  17
HETATM   17  C           1     -21.817  -7.253  -4.360  0.00  0.00     0.210 C 
BRANCH  17  18
HETATM   18  C           1     -21.592  -6.861  -2.921  0.00  0.00     0.198 C 
HETATM   19  O           1     -22.296  -5.970  -2.399  0.00  0.00    -0.646 OA
HETATM   20  O           1     -20.702  -7.427  -2.251  0.00  0.00    -0.646 OA
ENDBRANCH  17  18
BRANCH  17  21
HETATM   21  C           1     -21.466  -8.723  -4.548  0.00  0.00     0.217 C 
BRANCH  21  22
HETATM   22  O           1     -20.464  -8.844  -5.522  0.00  0.00    -0.287 OA
BRANCH  22  23
HETATM   23  P           1     -19.146  -9.668  -5.083  0.00  0.00     0.406 P 
HETATM   24  O           1     -18.138  -9.599  -6.164  0.00  0.00    -0.624 OA
HETATM   25  O           1     -19.507 -11.081  -4.835  0.00  0.00    -0.624 OA
BRANCH  23  26
HETATM   26  O           1     -18.534  -9.023  -3.734  0.00  0.00    -0.300 OA
HETATM   27  H           1     -18.877  -8.146  -3.706  0.00  0.00     0.223 HD
ENDBRANCH  23  26
ENDBRANCH  22  23
ENDBRANCH  21  22
ENDBRANCH  17  21
ENDBRANCH   4  17
TORSDOF 11
ENDMDL
MODEL 5
REMARK VINA RESULT:      -5.9      2.099      3.401
REMARK  11 active torsions:
REMARK  status: ('A' for Active; 'I' for Inactive)
REMARK    1  A    between atoms: C_1  and  C_16 
REMARK    2  A    between atoms: C_1  and  C_2 
REMARK    3  A    between atoms: C_1  and  N_21 
REMARK    4  A    between atoms: C_2  and  C_25 
REMARK    5  A    between atoms: C_6  and  C_9 
REMARK    6  A    between atoms: C_6  and  C_7 
REMARK    7  A    between atoms: C_6  and  N_17 
REMARK    8  A    between atoms: C_7  and  O_24 
REMARK    9  A    between atoms: C_11  and  C_25 
REMARK       I    between atoms: C_11  and  N_12 
REMARK   10  A    between atoms: P_14  and  O_24 
REMARK   11  A    between atoms: P_14  and  O_19 
REMARK       I    between atoms: C_16  and  N_17 
ROOT
HETATM    1  H           1     -22.267  -4.090  -6.753  0.00  0.00     0.163 HD
HETATM    2  O           1     -20.854  -6.872  -7.077  0.00  0.00    -0.271 OA
HETATM    3  C           1     -21.356  -5.931  -6.508  0.00  0.00     0.249 C 
HETATM    4  N           1     -21.847  -4.877  -7.229  0.00  0.00    -0.343 N 
ENDROOT
BRANCH   3   5
HETATM    5  C           1     -21.441  -5.919  -5.001  0.00  0.00     0.275 C 
BRANCH   5   6
HETATM    6  C           1     -20.547  -7.014  -4.433  0.00  0.00     0.052 C 
BRANCH   6   7
HETATM    7  C           1     -21.394  -8.005  -3.646  0.00  0.00     0.105 C 
BRANCH   7   8
HETATM    8  C           1     -21.437  -9.324  -4.378  0.00  0.00     0.215 C 
HETATM    9  N           1     -20.683  -9.507  -5.507  0.00  0.00    -0.370 N 
HETATM   10  H           1     -20.713 -10.392  -5.997  0.00  0.00     0.159 HD
HETATM   11  H           1     -20.097  -8.756  -5.850  0.00  0.00     0.159 HD
HETATM   12  O           1     -22.136 -10.220  -3.967  0.00  0.00    -0.274 OA
ENDBRANCH   7   8
ENDBRANCH   6   7
ENDBRANCH   5   6
BRANCH   5  13
HETATM   13  N           1     -22.860  -6.164  -4.579  0.00  0.00    -0.066 N 
HETATM   14  H           1     -23.509  -5.684  -5.242  0.00  0.00     0.275 HD
HETATM   15  H           1     -23.052  -7.191  -4.586  0.00  0.00     0.275 HD
HETATM   16  H           1     -23.006  -5.790  -3.615  0.00  0.00     0.275 HD
ENDBRANCH   5  13
ENDBRANCH   3   5
BRANCH   4  17
HETATM   17  C           1     -21.765  -4.888  -8.677  0.00  0.00     0.210 C 
BRANCH  17  18
HETATM   18  C           1     -20.461  -4.265  -9.111  0.00  0.00     0.198 C 
HETATM   19  O           1     -20.098  -4.343 -10.305  0.00  0.00    -0.646 OA
HETATM   20  O           1     -19.744  -3.671  -8.278  0.00  0.00    -0.646 OA
ENDBRANCH  17  18
BRANCH  17  21
HETATM   21  C           1     -22.927  -4.093  -9.257  0.00  0.00     0.217 C 
BRANCH  21  22
HETATM   22  O           1     -23.340  -4.678 -10.462  0.00  0.00    -0.287 OA
BRANCH  22  23
HETATM   23  P           1     -23.737  -3.654 -11.646  0.00  0.00     0.406 P 
HETATM   24  O           1     -22.734  -2.568 -11.717  0.00  0.00    -0.624 OA
HETATM   25  O           1     -25.071  -3.076 -11.372  0.00  0.00    -0.624 OA
BRANCH  23  26
HETATM   26  O           1     -23.771  -4.447 -13.053  0.00  0.00    -0.300 OA
HETATM   27  H           1     -23.260  -5.225 -12.907  0.00  0.00     0.223 HD
ENDBRANCH  23  26
ENDBRANCH  22  23
ENDBRANCH  21  22
ENDBRANCH  17  21
ENDBRANCH   4  17
TORSDOF 11
ENDMDL
MODEL 6
REMARK VINA RESULT:      -5.8     17.083     19.134
REMARK  11 active torsions:
REMARK  status: ('A' for Active; 'I' for Inactive)
REMARK    1  A    between atoms: C_1  and  C_16 
REMARK    2  A    between atoms: C_1  and  C_2 
REMARK    3  A    between atoms: C_1  and  N_21 
REMARK    4  A    between atoms: C_2  and  C_25 
REMARK    5  A    between atoms: C_6  and  C_9 
REMARK    6  A    between atoms: C_6  and  C_7 
REMARK    7  A    between atoms: C_6  and  N_17 
REMARK    8  A    between atoms: C_7  and  O_24 
REMARK    9  A    between atoms: C_11  and  C_25 
REMARK       I    between atoms: C_11  and  N_12 
REMARK   10  A    between atoms: P_14  and  O_24 
REMARK   11  A    between atoms: P_14  and  O_19 
REMARK       I    between atoms: C_16  and  N_17 
ROOT
HETATM    1  H           1     -12.164   6.108 -21.354  0.00  0.00     0.163 HD
HETATM    2  O           1     -10.989   3.261 -21.952  0.00  0.00    -0.271 OA
HETATM    3  C           1     -11.781   4.173 -21.981  0.00  0.00     0.249 C 
HETATM    4  N           1     -11.501   5.343 -21.330  0.00  0.00    -0.343 N 
ENDROOT
BRANCH   3   5
HETATM    5  C           1     -13.079   4.021 -22.737  0.00  0.00     0.275 C 
BRANCH   5   6
HETATM    6  C           1     -13.955   5.243 -22.493  0.00  0.00     0.052 C 
BRANCH   6   7
HETATM    7  C           1     -15.143   4.852 -21.626  0.00  0.00     0.105 C 
BRANCH   7   8
HETATM    8  C           1     -14.961   5.414 -20.237  0.00  0.00     0.215 C 
HETATM    9  N           1     -15.873   5.128 -19.257  0.00  0.00    -0.370 N 
HETATM   10  H           1     -15.750   5.505 -18.325  0.00  0.00     0.159 HD
HETATM   11  H           1     -16.669   4.539 -19.463  0.00  0.00     0.159 HD
HETATM   12  O           1     -14.010   6.117 -19.991  0.00  0.00    -0.274 OA
ENDBRANCH   7   8
ENDBRANCH   6   7
ENDBRANCH   5   6
BRANCH   5  13
HETATM   13  N           1     -13.793   2.792 -22.259  0.00  0.00    -0.066 N 
HETATM   14  H           1     -14.601   2.591 -22.891  0.00  0.00     0.275 HD
HETATM   15  H           1     -13.134   1.981 -22.269  0.00  0.00     0.275 HD
HETATM   16  H           1     -14.141   2.946 -21.286  0.00  0.00     0.275 HD
ENDBRANCH   5  13
ENDBRANCH   3   5
BRANCH   4  17
HETATM   17  C           1     -10.254   5.489 -20.603  0.00  0.00     0.210 C 
BRANCH  17  18
HETATM   18  C           1     -10.512   5.330 -19.125  0.00  0.00     0.198 C 
HETATM   19  O           1     -11.593   4.844 -18.729  0.00  0.00    -0.646 OA
HETATM   20  O           1      -9.645   5.684 -18.298  0.00  0.00    -0.646 OA
ENDBRANCH  17  18
BRANCH  17  21
HETATM   21  C           1      -9.670   6.869 -20.872  0.00  0.00     0.217 C 
BRANCH  21  22
HETATM   22  O           1     -10.703   7.816 -20.908  0.00  0.00    -0.287 OA
BRANCH  22  23
HETATM   23  P           1     -10.508   9.112 -19.962  0.00  0.00     0.406 P 
HETATM   24  O           1     -11.733   9.941 -20.004  0.00  0.00    -0.624 OA
HETATM   25  O           1      -9.358   9.907 -20.446  0.00  0.00    -0.624 OA
BRANCH  23  26
HETATM   26  O           1     -10.233   8.633 -18.444  0.00  0.00    -0.300 OA
HETATM   27  H           1     -10.036   7.714 -18.511  0.00  0.00     0.223 HD
ENDBRANCH  23  26
ENDBRANCH  22  23
ENDBRANCH  21  22
ENDBRANCH  17  21
ENDBRANCH   4  17
TORSDOF 11
ENDMDL
MODEL 7
REMARK VINA RESULT:      -5.6      3.962      8.723
REMARK  11 active torsions:
REMARK  status: ('A' for Active; 'I' for Inactive)
REMARK    1  A    between atoms: C_1  and  C_16 
REMARK    2  A    between atoms: C_1  and  C_2 
REMARK    3  A    between atoms: C_1  and  N_21 
REMARK    4  A    between atoms: C_2  and  C_25 
REMARK    5  A    between atoms: C_6  and  C_9 
REMARK    6  A    between atoms: C_6  and  C_7 
REMARK    7  A    between atoms: C_6  and  N_17 
REMARK    8  A    between atoms: C_7  and  O_24 
REMARK    9  A    between atoms: C_11  and  C_25 
REMARK       I    between atoms: C_11  and  N_12 
REMARK   10  A    between atoms: P_14  and  O_24 
REMARK   11  A    between atoms: P_14  and  O_19 
REMARK       I    between atoms: C_16  and  N_17 
ROOT
HETATM    1  H           1     -21.671  -7.040  -6.915  0.00  0.00     0.163 HD
HETATM    2  O           1     -20.240  -4.425  -5.935  0.00  0.00    -0.271 OA
HETATM    3  C           1     -20.867  -5.148  -6.673  0.00  0.00     0.249 C 
HETATM    4  N           1     -21.145  -6.434  -6.297  0.00  0.00    -0.343 N 
ENDROOT
BRANCH   3   5
HETATM    5  C           1     -21.343  -4.632  -8.008  0.00  0.00     0.275 C 
BRANCH   5   6
HETATM    6  C           1     -20.157  -4.096  -8.799  0.00  0.00     0.052 C 
BRANCH   6   7
HETATM    7  C           1     -20.075  -4.811 -10.140  0.00  0.00     0.105 C 
BRANCH   7   8
HETATM    8  C           1     -20.944  -4.097 -11.146  0.00  0.00     0.215 C 
HETATM    9  N           1     -20.595  -2.851 -11.592  0.00  0.00    -0.370 N 
HETATM   10  H           1     -21.178  -2.372 -12.266  0.00  0.00     0.159 HD
HETATM   11  H           1     -19.753  -2.407 -11.246  0.00  0.00     0.159 HD
HETATM   12  O           1     -21.948  -4.627 -11.559  0.00  0.00    -0.274 OA
ENDBRANCH   7   8
ENDBRANCH   6   7
ENDBRANCH   5   6
BRANCH   5  13
HETATM   13  N           1     -22.337  -3.529  -7.792  0.00  0.00    -0.066 N 
HETATM   14  H           1     -22.175  -3.092  -6.857  0.00  0.00     0.275 HD
HETATM   15  H           1     -22.224  -2.807  -8.539  0.00  0.00     0.275 HD
HETATM   16  H           1     -23.305  -3.921  -7.831  0.00  0.00     0.275 HD
ENDBRANCH   5  13
ENDBRANCH   3   5
BRANCH   4  17
HETATM   17  C           1     -20.687  -6.930  -5.013  0.00  0.00     0.210 C 
BRANCH  17  18
HETATM   18  C           1     -20.243  -8.365  -5.159  0.00  0.00     0.198 C 
HETATM   19  O           1     -20.932  -9.168  -5.824  0.00  0.00    -0.646 OA
HETATM   20  O           1     -19.186  -8.750  -4.615  0.00  0.00    -0.646 OA
ENDBRANCH  17  18
BRANCH  17  21
HETATM   21  C           1     -21.825  -6.850  -4.004  0.00  0.00     0.217 C 
BRANCH  21  22
HETATM   22  O           1     -21.302  -6.581  -2.731  0.00  0.00    -0.287 OA
BRANCH  22  23
HETATM   23  P           1     -21.656  -7.657  -1.579  0.00  0.00     0.406 P 
HETATM   24  O           1     -20.441  -7.949  -0.787  0.00  0.00    -0.624 OA
HETATM   25  O           1     -22.149  -8.904  -2.203  0.00  0.00    -0.624 OA
BRANCH  23  26
HETATM   26  O           1     -22.798  -7.051  -0.610  0.00  0.00    -0.300 OA
HETATM   27  H           1     -22.805  -6.126  -0.791  0.00  0.00     0.223 HD
ENDBRANCH  23  26
ENDBRANCH  22  23
ENDBRANCH  21  22
ENDBRANCH  17  21
ENDBRANCH   4  17
TORSDOF 11
ENDMDL
MODEL 8
REMARK VINA RESULT:      -5.5     17.073     19.510
REMARK  11 active torsions:
REMARK  status: ('A' for Active; 'I' for Inactive)
REMARK    1  A    between atoms: C_1  and  C_16 
REMARK    2  A    between atoms: C_1  and  C_2 
REMARK    3  A    between atoms: C_1  and  N_21 
REMARK    4  A    between atoms: C_2  and  C_25 
REMARK    5  A    between atoms: C_6  and  C_9 
REMARK    6  A    between atoms: C_6  and  C_7 
REMARK    7  A    between atoms: C_6  and  N_17 
REMARK    8  A    between atoms: C_7  and  O_24 
REMARK    9  A    between atoms: C_11  and  C_25 
REMARK       I    between atoms: C_11  and  N_12 
REMARK   10  A    between atoms: P_14  and  O_24 
REMARK   11  A    between atoms: P_14  and  O_19 
REMARK       I    between atoms: C_16  and  N_17 
ROOT
HETATM    1  H           1     -11.641   5.796 -20.102  0.00  0.00     0.163 HD
HETATM    2  O           1     -10.906   4.580 -22.899  0.00  0.00    -0.271 OA
HETATM    3  C           1     -11.325   4.608 -21.766  0.00  0.00     0.249 C 
HETATM    4  N           1     -11.289   5.773 -21.051  0.00  0.00    -0.343 N 
ENDROOT
BRANCH   3   5
HETATM    5  C           1     -11.890   3.355 -21.141  0.00  0.00     0.275 C 
BRANCH   5   6
HETATM    6  C           1     -13.363   3.568 -20.818  0.00  0.00     0.052 C 
BRANCH   6   7
HETATM    7  C           1     -14.130   3.847 -22.103  0.00  0.00     0.105 C 
BRANCH   7   8
HETATM    8  C           1     -14.816   5.187 -21.999  0.00  0.00     0.215 C 
HETATM    9  N           1     -14.516   6.182 -22.892  0.00  0.00    -0.370 N 
HETATM   10  H           1     -14.977   7.080 -22.821  0.00  0.00     0.159 HD
HETATM   11  H           1     -13.833   6.018 -23.621  0.00  0.00     0.159 HD
HETATM   12  O           1     -15.631   5.382 -21.130  0.00  0.00    -0.274 OA
ENDBRANCH   7   8
ENDBRANCH   6   7
ENDBRANCH   5   6
BRANCH   5  13
HETATM   13  N           1     -11.142   3.047 -19.877  0.00  0.00    -0.066 N 
HETATM   14  H           1     -11.603   3.528 -19.073  0.00  0.00     0.275 HD
HETATM   15  H           1     -11.145   2.015 -19.714  0.00  0.00     0.275 HD
HETATM   16  H           1     -10.156   3.382 -19.966  0.00  0.00     0.275 HD
ENDBRANCH   5  13
ENDBRANCH   3   5
BRANCH   4  17
HETATM   17  C           1     -10.746   6.977 -21.652  0.00  0.00     0.210 C 
BRANCH  17  18
HETATM   18  C           1      -9.488   7.379 -20.923  0.00  0.00     0.198 C 
HETATM   19  O           1      -9.127   8.575 -20.912  0.00  0.00    -0.646 OA
HETATM   20  O           1      -8.806   6.515 -20.330  0.00  0.00    -0.646 OA
ENDBRANCH  17  18
BRANCH  17  21
HETATM   21  C           1     -11.772   8.099 -21.553  0.00  0.00     0.217 C 
BRANCH  21  22
HETATM   22  O           1     -12.544   7.927 -20.395  0.00  0.00    -0.287 OA
BRANCH  22  23
HETATM   23  P           1     -12.483   9.129 -19.319  0.00  0.00     0.406 P 
HETATM   24  O           1     -13.596   8.985 -18.355  0.00  0.00    -0.624 OA
HETATM   25  O           1     -12.603  10.427 -20.021  0.00  0.00    -0.624 OA
BRANCH  23  26
HETATM   26  O           1     -11.075   9.072 -18.529  0.00  0.00    -0.300 OA
HETATM   27  H           1     -11.288   8.731 -17.677  0.00  0.00     0.223 HD
ENDBRANCH  23  26
ENDBRANCH  22  23
ENDBRANCH  21  22
ENDBRANCH  17  21
ENDBRANCH   4  17
TORSDOF 11
ENDMDL
MODEL 9
REMARK VINA RESULT:      -5.4      5.980      8.315
REMARK  11 active torsions:
REMARK  status: ('A' for Active; 'I' for Inactive)
REMARK    1  A    between atoms: C_1  and  C_16 
REMARK    2  A    between atoms: C_1  and  C_2 
REMARK    3  A    between atoms: C_1  and  N_21 
REMARK    4  A    between atoms: C_2  and  C_25 
REMARK    5  A    between atoms: C_6  and  C_9 
REMARK    6  A    between atoms: C_6  and  C_7 
REMARK    7  A    between atoms: C_6  and  N_17 
REMARK    8  A    between atoms: C_7  and  O_24 
REMARK    9  A    between atoms: C_11  and  C_25 
REMARK       I    between atoms: C_11  and  N_12 
REMARK   10  A    between atoms: P_14  and  O_24 
REMARK   11  A    between atoms: P_14  and  O_19 
REMARK       I    between atoms: C_16  and  N_17 
ROOT
HETATM    1  H           1     -19.555  -7.074  -3.004  0.00  0.00     0.163 HD
HETATM    2  O           1     -21.919  -9.107  -2.658  0.00  0.00    -0.271 OA
HETATM    3  C           1     -21.250  -8.123  -2.448  0.00  0.00     0.249 C 
HETATM    4  N           1     -20.115  -7.898  -3.179  0.00  0.00    -0.343 N 
ENDROOT
BRANCH   3   5
HETATM    5  C           1     -21.666  -7.141  -1.380  0.00  0.00     0.275 C 
BRANCH   5   6
HETATM    6  C           1     -22.580  -7.836  -0.379  0.00  0.00     0.052 C 
BRANCH   6   7
HETATM    7  C           1     -21.777  -8.236   0.851  0.00  0.00     0.105 C 
BRANCH   7   8
HETATM    8  C           1     -21.433  -9.703   0.773  0.00  0.00     0.215 C 
HETATM    9  N           1     -22.207 -10.550   0.027  0.00  0.00    -0.370 N 
HETATM   10  H           1     -21.975 -11.534  -0.024  0.00  0.00     0.159 HD
HETATM   11  H           1     -23.011 -10.193  -0.473  0.00  0.00     0.159 HD
HETATM   12  O           1     -20.472 -10.129   1.369  0.00  0.00    -0.274 OA
ENDBRANCH   7   8
ENDBRANCH   6   7
ENDBRANCH   5   6
BRANCH   5  13
HETATM   13  N           1     -22.399  -5.995  -2.013  0.00  0.00    -0.066 N 
HETATM   14  H           1     -22.004  -5.093  -1.665  0.00  0.00     0.275 HD
HETATM   15  H           1     -22.291  -6.045  -3.052  0.00  0.00     0.275 HD
HETATM   16  H           1     -23.413  -6.051  -1.766  0.00  0.00     0.275 HD
ENDBRANCH   5  13
ENDBRANCH   3   5
BRANCH   4  17
HETATM   17  C           1     -19.715  -8.842  -4.206  0.00  0.00     0.210 C 
BRANCH  17  18
HETATM   18  C           1     -18.323  -9.345  -3.910  0.00  0.00     0.198 C 
HETATM   19  O           1     -17.843  -9.215  -2.764  0.00  0.00    -0.646 OA
HETATM   20  O           1     -17.652  -9.892  -4.811  0.00  0.00    -0.646 OA
ENDBRANCH  17  18
BRANCH  17  21
HETATM   21  C           1     -19.728  -8.150  -5.562  0.00  0.00     0.217 C 
BRANCH  21  22
HETATM   22  O           1     -21.045  -7.807  -5.900  0.00  0.00    -0.287 OA
BRANCH  22  23
HETATM   23  P           1     -21.398  -6.231  -5.861  0.00  0.00     0.406 P 
HETATM   24  O           1     -21.421  -5.697  -7.241  0.00  0.00    -0.624 OA
HETATM   25  O           1     -20.372  -5.515  -5.072  0.00  0.00    -0.624 OA
BRANCH  23  26
HETATM   26  O           1     -22.847  -6.022  -5.179  0.00  0.00    -0.300 OA
HETATM   27  H           1     -22.670  -5.913  -4.260  0.00  0.00     0.223 HD
ENDBRANCH  23  26
ENDBRANCH  22  23
ENDBRANCH  21  22
ENDBRANCH  17  21
ENDBRANCH   4  17
TORSDOF 11
ENDMDL
