MODEL 1
REMARK VINA RESULT:      -9.5      0.000      0.000
REMARK  8 active torsions:
REMARK  status: ('A' for Active; 'I' for Inactive)
REMARK    1  A    between atoms: C_2  and  C_3 
REMARK    2  A    between atoms: C_3  and  C_4 
REMARK    3  A    between atoms: C_4  and  C_30 
REMARK    4  A    between atoms: C_4  and  N_22 
REMARK    5  A    between atoms: N_6  and  C_11 
REMARK    6  A    between atoms: C_11  and  C_23 
REMARK    7  A    between atoms: C_11  and  C_13 
REMARK    8  A    between atoms: C_13  and  C_17 
REMARK       I    between atoms: N_22  and  C_23 
ROOT
HETATM    1  C           1     -19.770  -4.399  -7.476  0.00  0.00     0.278 C 
ENDROOT
BRANCH   1   2
HETATM    2  N           1     -18.291  -4.152  -7.503  0.00  0.00    -0.066 N 
HETATM    3  H           1     -17.809  -4.967  -7.945  0.00  0.00     0.275 HD
HETATM    4  H           1     -18.092  -3.288  -8.057  0.00  0.00     0.275 HD
HETATM    5  H           1     -17.941  -4.028  -6.527  0.00  0.00     0.275 HD
ENDBRANCH   1   2
BRANCH   1   6
HETATM    6  C           1     -20.076  -5.512  -6.505  0.00  0.00     0.249 C 
HETATM    7  O           1     -19.789  -6.652  -6.781  0.00  0.00    -0.271 OA
HETATM    8  N           1     -20.680  -5.230  -5.309  0.00  0.00    -0.344 N 
HETATM    9  H           1     -20.921  -4.274  -5.076  0.00  0.00     0.163 HD
BRANCH   8  10
HETATM   10  C           1     -20.975  -6.298  -4.375  0.00  0.00     0.189 C 
BRANCH  10  11
HETATM   11  C           1     -21.149  -5.718  -2.978  0.00  0.00     0.074 C 
BRANCH  11  12
HETATM   12  C           1     -21.340  -6.830  -1.994  0.00  0.00    -0.056 A 
HETATM   13  C           1     -22.389  -6.776  -1.075  0.00  0.00     0.007 A 
HETATM   14  C           1     -22.565  -7.813  -0.158  0.00  0.00     0.001 A 
HETATM   15  C           1     -21.694  -8.902  -0.160  0.00  0.00     0.000 A 
HETATM   16  C           1     -20.646  -8.955  -1.079  0.00  0.00     0.001 A 
HETATM   17  C           1     -20.469  -7.919  -1.995  0.00  0.00     0.007 A 
ENDBRANCH  11  12
ENDBRANCH  10  11
BRANCH  10  18
HETATM   18  C           1     -22.247  -6.995  -4.792  0.00  0.00     0.197 C 
HETATM   19  O           1     -22.256  -8.234  -4.956  0.00  0.00    -0.646 OA
HETATM   20  O           1     -23.292  -6.333  -4.973  0.00  0.00    -0.646 OA
ENDBRANCH  10  18
ENDBRANCH   8  10
ENDBRANCH   1   6
BRANCH   1  21
HETATM   21  C           1     -20.242  -4.797  -8.869  0.00  0.00     0.083 C 
BRANCH  21  22
HETATM   22  C           1     -21.660  -4.356  -9.061  0.00  0.00    -0.028 A 
HETATM   23  C           1     -22.630  -4.297  -8.085  0.00  0.00     0.096 A 
HETATM   24  N           1     -23.784  -3.845  -8.670  0.00  0.00    -0.365 N 
HETATM   25  H           1     -24.694  -3.698  -8.168  0.00  0.00     0.165 HD
HETATM   26  C           1     -23.578  -3.611 -10.011  0.00  0.00     0.042 A 
HETATM   27  C           1     -24.461  -3.149 -10.994  0.00  0.00     0.030 A 
HETATM   28  C           1     -22.247  -3.926 -10.283  0.00  0.00    -0.002 A 
HETATM   29  C           1     -23.965  -3.006 -12.294  0.00  0.00     0.002 A 
HETATM   30  C           1     -22.639  -3.313 -12.594  0.00  0.00     0.001 A 
HETATM   31  C           1     -21.769  -3.774 -11.599  0.00  0.00     0.014 A 
ENDBRANCH  21  22
ENDBRANCH   1  21
TORSDOF 8
ENDMDL
MODEL 2
REMARK VINA RESULT:      -9.4      1.504      1.964
REMARK  8 active torsions:
REMARK  status: ('A' for Active; 'I' for Inactive)
REMARK    1  A    between atoms: C_2  and  C_3 
REMARK    2  A    between atoms: C_3  and  C_4 
REMARK    3  A    between atoms: C_4  and  C_30 
REMARK    4  A    between atoms: C_4  and  N_22 
REMARK    5  A    between atoms: N_6  and  C_11 
REMARK    6  A    between atoms: C_11  and  C_23 
REMARK    7  A    between atoms: C_11  and  C_13 
REMARK    8  A    between atoms: C_13  and  C_17 
REMARK       I    between atoms: N_22  and  C_23 
ROOT
HETATM    1  C           1     -20.280  -4.607  -7.223  0.00  0.00     0.278 C 
ENDROOT
BRANCH   1   2
HETATM    2  N           1     -18.900  -4.225  -7.670  0.00  0.00    -0.066 N 
HETATM    3  H           1     -18.951  -3.368  -8.267  0.00  0.00     0.275 HD
HETATM    4  H           1     -18.305  -4.030  -6.833  0.00  0.00     0.275 HD
HETATM    5  H           1     -18.482  -5.008  -8.220  0.00  0.00     0.275 HD
ENDBRANCH   1   2
BRANCH   1   6
HETATM    6  C           1     -20.189  -5.444  -5.972  0.00  0.00     0.249 C 
HETATM    7  O           1     -20.201  -4.913  -4.887  0.00  0.00    -0.271 OA
HETATM    8  N           1     -20.092  -6.806  -6.065  0.00  0.00    -0.344 N 
HETATM    9  H           1     -20.081  -7.252  -6.973  0.00  0.00     0.163 HD
BRANCH   8  10
HETATM   10  C           1     -20.004  -7.611  -4.862  0.00  0.00     0.189 C 
BRANCH  10  11
HETATM   11  C           1     -21.380  -8.169  -4.523  0.00  0.00     0.074 C 
BRANCH  11  12
HETATM   12  C           1     -21.681  -7.914  -3.078  0.00  0.00    -0.056 A 
HETATM   13  C           1     -21.993  -6.625  -2.648  0.00  0.00     0.007 A 
HETATM   14  C           1     -22.272  -6.388  -1.302  0.00  0.00     0.001 A 
HETATM   15  C           1     -22.241  -7.440  -0.387  0.00  0.00     0.000 A 
HETATM   16  C           1     -21.930  -8.730  -0.818  0.00  0.00     0.001 A 
HETATM   17  C           1     -21.649  -8.967  -2.164  0.00  0.00     0.007 A 
ENDBRANCH  11  12
ENDBRANCH  10  11
BRANCH  10  18
HETATM   18  C           1     -19.042  -8.752  -5.089  0.00  0.00     0.197 C 
HETATM   19  O           1     -18.657  -9.446  -4.124  0.00  0.00    -0.646 OA
HETATM   20  O           1     -18.631  -9.003  -6.244  0.00  0.00    -0.646 OA
ENDBRANCH  10  18
ENDBRANCH   8  10
ENDBRANCH   1   6
BRANCH   1  21
HETATM   21  C           1     -20.963  -5.410  -8.322  0.00  0.00     0.083 C 
BRANCH  21  22
HETATM   22  C           1     -22.197  -4.690  -8.773  0.00  0.00    -0.028 A 
HETATM   23  C           1     -23.279  -4.365  -7.986  0.00  0.00     0.096 A 
HETATM   24  N           1     -24.191  -3.716  -8.777  0.00  0.00    -0.365 N 
HETATM   25  H           1     -25.117  -3.348  -8.448  0.00  0.00     0.165 HD
HETATM   26  C           1     -23.716  -3.615 -10.066  0.00  0.00     0.042 A 
HETATM   27  C           1     -24.298  -3.038 -11.201  0.00  0.00     0.030 A 
HETATM   28  C           1     -22.461  -4.222 -10.090  0.00  0.00    -0.002 A 
HETATM   29  C           1     -23.572  -3.085 -12.395  0.00  0.00     0.002 A 
HETATM   30  C           1     -22.315  -3.685 -12.448  0.00  0.00     0.001 A 
HETATM   31  C           1     -21.748  -4.258 -11.303  0.00  0.00     0.014 A 
ENDBRANCH  21  22
ENDBRANCH   1  21
TORSDOF 8
ENDMDL
MODEL 3
REMARK VINA RESULT:      -9.3      1.832      2.712
REMARK  8 active torsions:
REMARK  status: ('A' for Active; 'I' for Inactive)
REMARK    1  A    between atoms: C_2  and  C_3 
REMARK    2  A    between atoms: C_3  and  C_4 
REMARK    3  A    between atoms: C_4  and  C_30 
REMARK    4  A    between atoms: C_4  and  N_22 
REMARK    5  A    between atoms: N_6  and  C_11 
REMARK    6  A    between atoms: C_11  and  C_23 
REMARK    7  A    between atoms: C_11  and  C_13 
REMARK    8  A    between atoms: C_13  and  C_17 
REMARK       I    between atoms: N_22  and  C_23 
ROOT
HETATM    1  C           1     -22.127  -5.409  -6.691  0.00  0.00     0.278 C 
ENDROOT
BRANCH   1   2
HETATM    2  N           1     -23.515  -5.056  -6.246  0.00  0.00    -0.066 N 
HETATM    3  H           1     -23.562  -4.035  -6.024  0.00  0.00     0.275 HD
HETATM    4  H           1     -24.192  -5.276  -7.011  0.00  0.00     0.275 HD
HETATM    5  H           1     -23.760  -5.608  -5.394  0.00  0.00     0.275 HD
ENDBRANCH   1   2
BRANCH   1   6
HETATM    6  C           1     -21.375  -6.033  -5.541  0.00  0.00     0.249 C 
HETATM    7  O           1     -20.766  -5.335  -4.766  0.00  0.00    -0.271 OA
HETATM    8  N           1     -21.383  -7.392  -5.375  0.00  0.00    -0.344 N 
HETATM    9  H           1     -21.893  -7.978  -6.024  0.00  0.00     0.163 HD
BRANCH   8  10
HETATM   10  C           1     -20.660  -7.993  -4.271  0.00  0.00     0.189 C 
BRANCH  10  11
HETATM   11  C           1     -21.509  -9.093  -3.649  0.00  0.00     0.074 C 
BRANCH  11  12
HETATM   12  C           1     -21.885  -8.706  -2.252  0.00  0.00    -0.056 A 
HETATM   13  C           1     -21.890  -7.362  -1.878  0.00  0.00     0.007 A 
HETATM   14  C           1     -22.240  -7.003  -0.577  0.00  0.00     0.001 A 
HETATM   15  C           1     -22.585  -7.986   0.350  0.00  0.00     0.000 A 
HETATM   16  C           1     -22.581  -9.329  -0.025  0.00  0.00     0.001 A 
HETATM   17  C           1     -22.231  -9.689  -1.325  0.00  0.00     0.007 A 
ENDBRANCH  11  12
ENDBRANCH  10  11
BRANCH  10  18
HETATM   18  C           1     -19.367  -8.582  -4.777  0.00  0.00     0.197 C 
HETATM   19  O           1     -18.538  -9.056  -3.971  0.00  0.00    -0.646 OA
HETATM   20  O           1     -19.124  -8.597  -6.004  0.00  0.00    -0.646 OA
ENDBRANCH  10  18
ENDBRANCH   8  10
ENDBRANCH   1   6
BRANCH   1  21
HETATM   21  C           1     -21.404  -4.148  -7.144  0.00  0.00     0.083 C 
BRANCH  21  22
HETATM   22  C           1     -21.223  -4.183  -8.631  0.00  0.00    -0.028 A 
HETATM   23  C           1     -20.059  -4.490  -9.299  0.00  0.00     0.096 A 
HETATM   24  N           1     -20.315  -4.408 -10.643  0.00  0.00    -0.365 N 
HETATM   25  H           1     -19.612  -4.592 -11.400  0.00  0.00     0.165 HD
HETATM   26  C           1     -21.628  -4.053 -10.857  0.00  0.00     0.042 A 
HETATM   27  C           1     -22.327  -3.853 -12.053  0.00  0.00     0.030 A 
HETATM   28  C           1     -22.222  -3.904  -9.604  0.00  0.00    -0.002 A 
HETATM   29  C           1     -23.674  -3.490 -11.962  0.00  0.00     0.002 A 
HETATM   30  C           1     -24.294  -3.334 -10.723  0.00  0.00     0.001 A 
HETATM   31  C           1     -23.580  -3.537  -9.536  0.00  0.00     0.014 A 
ENDBRANCH  21  22
ENDBRANCH   1  21
TORSDOF 8
ENDMDL
MODEL 4
REMARK VINA RESULT:      -8.8      3.008      4.136
REMARK  8 active torsions:
REMARK  status: ('A' for Active; 'I' for Inactive)
REMARK    1  A    between atoms: C_2  and  C_3 
REMARK    2  A    between atoms: C_3  and  C_4 
REMARK    3  A    between atoms: C_4  and  C_30 
REMARK    4  A    between atoms: C_4  and  N_22 
REMARK    5  A    between atoms: N_6  and  C_11 
REMARK    6  A    between atoms: C_11  and  C_23 
REMARK    7  A    between atoms: C_11  and  C_13 
REMARK    8  A    between atoms: C_13  and  C_17 
REMARK       I    between atoms: N_22  and  C_23 
ROOT
HETATM    1  C           1     -21.657  -6.239  -5.424  0.00  0.00     0.278 C 
ENDROOT
BRANCH   1   2
HETATM    2  N           1     -21.758  -5.911  -3.964  0.00  0.00    -0.066 N 
HETATM    3  H           1     -20.827  -5.594  -3.611  0.00  0.00     0.275 HD
HETATM    4  H           1     -22.459  -5.148  -3.826  0.00  0.00     0.275 HD
HETATM    5  H           1     -22.060  -6.760  -3.436  0.00  0.00     0.275 HD
ENDBRANCH   1   2
BRANCH   1   6
HETATM    6  C           1     -20.799  -7.466  -5.605  0.00  0.00     0.249 C 
HETATM    7  O           1     -19.785  -7.404  -6.258  0.00  0.00    -0.271 OA
HETATM    8  N           1     -21.169  -8.651  -5.028  0.00  0.00    -0.344 N 
HETATM    9  H           1     -22.019  -8.704  -4.481  0.00  0.00     0.163 HD
BRANCH   8  10
HETATM   10  C           1     -20.346  -9.831  -5.202  0.00  0.00     0.189 C 
BRANCH  10  11
HETATM   11  C           1     -19.671 -10.178  -3.881  0.00  0.00     0.074 C 
BRANCH  11  12
HETATM   12  C           1     -18.191  -9.993  -4.012  0.00  0.00    -0.056 A 
HETATM   13  C           1     -17.582 -10.102  -5.262  0.00  0.00     0.007 A 
HETATM   14  C           1     -16.202  -9.931  -5.383  0.00  0.00     0.001 A 
HETATM   15  C           1     -15.433  -9.650  -4.254  0.00  0.00     0.000 A 
HETATM   16  C           1     -16.043  -9.541  -3.004  0.00  0.00     0.001 A 
HETATM   17  C           1     -17.421  -9.713  -2.883  0.00  0.00     0.007 A 
ENDBRANCH  11  12
ENDBRANCH  10  11
BRANCH  10  18
HETATM   18  C           1     -21.209 -10.988  -5.643  0.00  0.00     0.197 C 
HETATM   19  O           1     -21.115 -11.430  -6.809  0.00  0.00    -0.646 OA
HETATM   20  O           1     -22.019 -11.505  -4.842  0.00  0.00    -0.646 OA
ENDBRANCH  10  18
ENDBRANCH   8  10
ENDBRANCH   1   6
BRANCH   1  21
HETATM   21  C           1     -21.027  -5.066  -6.163  0.00  0.00     0.083 C 
BRANCH  21  22
HETATM   22  C           1     -21.921  -4.648  -7.290  0.00  0.00    -0.028 A 
HETATM   23  C           1     -23.269  -4.385  -7.201  0.00  0.00     0.096 A 
HETATM   24  N           1     -23.711  -4.038  -8.451  0.00  0.00    -0.365 N 
HETATM   25  H           1     -24.701  -3.782  -8.688  0.00  0.00     0.165 HD
HETATM   26  C           1     -22.669  -4.070  -9.351  0.00  0.00     0.042 A 
HETATM   27  C           1     -22.649  -3.793 -10.722  0.00  0.00     0.030 A 
HETATM   28  C           1     -21.529  -4.453  -8.644  0.00  0.00    -0.002 A 
HETATM   29  C           1     -21.426  -3.912 -11.389  0.00  0.00     0.002 A 
HETATM   30  C           1     -20.271  -4.293 -10.708  0.00  0.00     0.001 A 
HETATM   31  C           1     -20.308  -4.567  -9.336  0.00  0.00     0.014 A 
ENDBRANCH  21  22
ENDBRANCH   1  21
TORSDOF 8
ENDMDL
MODEL 5
REMARK VINA RESULT:      -8.7      1.767      8.547
REMARK  8 active torsions:
REMARK  status: ('A' for Active; 'I' for Inactive)
REMARK    1  A    between atoms: C_2  and  C_3 
REMARK    2  A    between atoms: C_3  and  C_4 
REMARK    3  A    between atoms: C_4  and  C_30 
REMARK    4  A    between atoms: C_4  and  N_22 
REMARK    5  A    between atoms: N_6  and  C_11 
REMARK    6  A    between atoms: C_11  and  C_23 
REMARK    7  A    between atoms: C_11  and  C_13 
REMARK    8  A    between atoms: C_13  and  C_17 
REMARK       I    between atoms: N_22  and  C_23 
ROOT
HETATM    1  C           1     -21.159  -8.219  -5.280  0.00  0.00     0.278 C 
ENDROOT
BRANCH   1   2
HETATM    2  N           1     -20.931  -9.569  -5.893  0.00  0.00    -0.066 N 
HETATM    3  H           1     -21.170  -9.536  -6.910  0.00  0.00     0.275 HD
HETATM    4  H           1     -19.926  -9.836  -5.782  0.00  0.00     0.275 HD
HETATM    5  H           1     -21.534 -10.275  -5.416  0.00  0.00     0.275 HD
ENDBRANCH   1   2
BRANCH   1   6
HETATM    6  C           1     -20.769  -7.147  -6.267  0.00  0.00     0.249 C 
HETATM    7  O           1     -19.641  -7.103  -6.699  0.00  0.00    -0.271 OA
HETATM    8  N           1     -21.692  -6.223  -6.675  0.00  0.00    -0.344 N 
HETATM    9  H           1     -22.638  -6.258  -6.315  0.00  0.00     0.163 HD
BRANCH   8  10
HETATM   10  C           1     -21.318  -5.192  -7.623  0.00  0.00     0.189 C 
BRANCH  10  11
HETATM   11  C           1     -22.537  -4.343  -7.958  0.00  0.00     0.074 C 
BRANCH  11  12
HETATM   12  C           1     -22.553  -4.047  -9.426  0.00  0.00    -0.056 A 
HETATM   13  C           1     -23.672  -3.448 -10.004  0.00  0.00     0.007 A 
HETATM   14  C           1     -23.686  -3.172 -11.372  0.00  0.00     0.001 A 
HETATM   15  C           1     -22.582  -3.495 -12.160  0.00  0.00     0.000 A 
HETATM   16  C           1     -21.463  -4.093 -11.581  0.00  0.00     0.001 A 
HETATM   17  C           1     -21.449  -4.370 -10.214  0.00  0.00     0.007 A 
ENDBRANCH  11  12
ENDBRANCH  10  11
BRANCH  10  18
HETATM   18  C           1     -20.248  -4.317  -7.019  0.00  0.00     0.197 C 
HETATM   19  O           1     -20.320  -3.980  -5.817  0.00  0.00    -0.646 OA
HETATM   20  O           1     -19.288  -3.927  -7.720  0.00  0.00    -0.646 OA
ENDBRANCH  10  18
ENDBRANCH   8  10
ENDBRANCH   1   6
BRANCH   1  21
HETATM   21  C           1     -20.311  -8.084  -4.023  0.00  0.00     0.083 C 
BRANCH  21  22
HETATM   22  C           1     -21.116  -7.425  -2.945  0.00  0.00    -0.028 A 
HETATM   23  C           1     -21.460  -6.093  -2.890  0.00  0.00     0.096 A 
HETATM   24  N           1     -22.194  -5.898  -1.749  0.00  0.00    -0.365 N 
HETATM   25  H           1     -22.594  -4.978  -1.443  0.00  0.00     0.165 HD
HETATM   26  C           1     -22.333  -7.084  -1.063  0.00  0.00     0.042 A 
HETATM   27  C           1     -22.994  -7.362   0.138  0.00  0.00     0.030 A 
HETATM   28  C           1     -21.661  -8.062  -1.797  0.00  0.00    -0.002 A 
HETATM   29  C           1     -22.967  -8.681   0.602  0.00  0.00     0.002 A 
HETATM   30  C           1     -22.304  -9.679  -0.110  0.00  0.00     0.001 A 
HETATM   31  C           1     -21.646  -9.384  -1.310  0.00  0.00     0.014 A 
ENDBRANCH  21  22
ENDBRANCH   1  21
TORSDOF 8
ENDMDL
MODEL 6
REMARK VINA RESULT:      -8.7      1.836      2.872
REMARK  8 active torsions:
REMARK  status: ('A' for Active; 'I' for Inactive)
REMARK    1  A    between atoms: C_2  and  C_3 
REMARK    2  A    between atoms: C_3  and  C_4 
REMARK    3  A    between atoms: C_4  and  C_30 
REMARK    4  A    between atoms: C_4  and  N_22 
REMARK    5  A    between atoms: N_6  and  C_11 
REMARK    6  A    between atoms: C_11  and  C_23 
REMARK    7  A    between atoms: C_11  and  C_13 
REMARK    8  A    between atoms: C_13  and  C_17 
REMARK       I    between atoms: N_22  and  C_23 
ROOT
HETATM    1  C           1     -21.710  -6.478  -5.737  0.00  0.00     0.278 C 
ENDROOT
BRANCH   1   2
HETATM    2  N           1     -22.412  -5.974  -4.511  0.00  0.00    -0.066 N 
HETATM    3  H           1     -23.077  -6.702  -4.165  0.00  0.00     0.275 HD
HETATM    4  H           1     -21.707  -5.765  -3.768  0.00  0.00     0.275 HD
HETATM    5  H           1     -22.939  -5.103  -4.745  0.00  0.00     0.275 HD
ENDBRANCH   1   2
BRANCH   1   6
HETATM    6  C           1     -20.692  -7.519  -5.341  0.00  0.00     0.249 C 
HETATM    7  O           1     -19.720  -7.708  -6.032  0.00  0.00    -0.271 OA
HETATM    8  N           1     -20.870  -8.249  -4.197  0.00  0.00    -0.344 N 
HETATM    9  H           1     -21.685  -8.091  -3.617  0.00  0.00     0.163 HD
BRANCH   8  10
HETATM   10  C           1     -19.893  -9.250  -3.815  0.00  0.00     0.189 C 
BRANCH  10  11
HETATM   11  C           1     -19.458  -9.011  -2.375  0.00  0.00     0.074 C 
BRANCH  11  12
HETATM   12  C           1     -20.656  -8.684  -1.538  0.00  0.00    -0.056 A 
HETATM   13  C           1     -21.265  -9.679  -0.773  0.00  0.00     0.007 A 
HETATM   14  C           1     -22.381  -9.374   0.006  0.00  0.00     0.001 A 
HETATM   15  C           1     -22.888  -8.075   0.020  0.00  0.00     0.000 A 
HETATM   16  C           1     -22.278  -7.080  -0.744  0.00  0.00     0.001 A 
HETATM   17  C           1     -21.163  -7.385  -1.524  0.00  0.00     0.007 A 
ENDBRANCH  11  12
ENDBRANCH  10  11
BRANCH  10  18
HETATM   18  C           1     -20.506 -10.623  -3.933  0.00  0.00     0.197 C 
HETATM   19  O           1     -21.712 -10.746  -4.239  0.00  0.00    -0.646 OA
HETATM   20  O           1     -19.808 -11.640  -3.726  0.00  0.00    -0.646 OA
ENDBRANCH  10  18
ENDBRANCH   8  10
ENDBRANCH   1   6
BRANCH   1  21
HETATM   21  C           1     -21.007  -5.319  -6.431  0.00  0.00     0.083 C 
BRANCH  21  22
HETATM   22  C           1     -21.913  -4.736  -7.471  0.00  0.00    -0.028 A 
HETATM   23  C           1     -23.242  -4.420  -7.304  0.00  0.00     0.096 A 
HETATM   24  N           1     -23.704  -3.915  -8.491  0.00  0.00    -0.365 N 
HETATM   25  H           1     -24.686  -3.587  -8.662  0.00  0.00     0.165 HD
HETATM   26  C           1     -22.694  -3.898  -9.427  0.00  0.00     0.042 A 
HETATM   27  C           1     -22.704  -3.472 -10.760  0.00  0.00     0.030 A 
HETATM   28  C           1     -21.554  -4.411  -8.809  0.00  0.00    -0.002 A 
HETATM   29  C           1     -21.510  -3.575 -11.481  0.00  0.00     0.002 A 
HETATM   30  C           1     -20.355  -4.084 -10.889  0.00  0.00     0.001 A 
HETATM   31  C           1     -20.363  -4.506  -9.554  0.00  0.00     0.014 A 
ENDBRANCH  21  22
ENDBRANCH   1  21
TORSDOF 8
ENDMDL
MODEL 7
REMARK VINA RESULT:      -8.4      2.123      3.197
REMARK  8 active torsions:
REMARK  status: ('A' for Active; 'I' for Inactive)
REMARK    1  A    between atoms: C_2  and  C_3 
REMARK    2  A    between atoms: C_3  and  C_4 
REMARK    3  A    between atoms: C_4  and  C_30 
REMARK    4  A    between atoms: C_4  and  N_22 
REMARK    5  A    between atoms: N_6  and  C_11 
REMARK    6  A    between atoms: C_11  and  C_23 
REMARK    7  A    between atoms: C_11  and  C_13 
REMARK    8  A    between atoms: C_13  and  C_17 
REMARK       I    between atoms: N_22  and  C_23 
ROOT
HETATM    1  C           1     -20.656  -5.829  -5.843  0.00  0.00     0.278 C 
ENDROOT
BRANCH   1   2
HETATM    2  N           1     -20.679  -6.732  -7.041  0.00  0.00    -0.066 N 
HETATM    3  H           1     -20.335  -7.681  -6.770  0.00  0.00     0.275 HD
HETATM    4  H           1     -21.658  -6.808  -7.401  0.00  0.00     0.275 HD
HETATM    5  H           1     -20.064  -6.338  -7.787  0.00  0.00     0.275 HD
ENDBRANCH   1   2
BRANCH   1   6
HETATM    6  C           1     -21.547  -6.399  -4.768  0.00  0.00     0.249 C 
HETATM    7  O           1     -22.748  -6.343  -4.885  0.00  0.00    -0.271 OA
HETATM    8  N           1     -20.995  -6.980  -3.659  0.00  0.00    -0.344 N 
HETATM    9  H           1     -19.988  -7.028  -3.560  0.00  0.00     0.163 HD
BRANCH   8  10
HETATM   10  C           1     -21.850  -7.528  -2.624  0.00  0.00     0.189 C 
BRANCH  10  11
HETATM   11  C           1     -21.123  -8.659  -1.910  0.00  0.00     0.074 C 
BRANCH  11  12
HETATM   12  C           1     -22.075  -9.786  -1.657  0.00  0.00    -0.056 A 
HETATM   13  C           1     -22.344 -10.711  -2.666  0.00  0.00     0.007 A 
HETATM   14  C           1     -23.232 -11.761  -2.431  0.00  0.00     0.001 A 
HETATM   15  C           1     -23.850 -11.886  -1.187  0.00  0.00     0.000 A 
HETATM   16  C           1     -23.580 -10.962  -0.178  0.00  0.00     0.001 A 
HETATM   17  C           1     -22.693  -9.912  -0.413  0.00  0.00     0.007 A 
ENDBRANCH  11  12
ENDBRANCH  10  11
BRANCH  10  18
HETATM   18  C           1     -22.194  -6.446  -1.630  0.00  0.00     0.197 C 
HETATM   19  O           1     -21.862  -5.261  -1.855  0.00  0.00    -0.646 OA
HETATM   20  O           1     -22.812  -6.733  -0.581  0.00  0.00    -0.646 OA
ENDBRANCH  10  18
ENDBRANCH   8  10
ENDBRANCH   1   6
BRANCH   1  21
HETATM   21  C           1     -21.160  -4.448  -6.241  0.00  0.00     0.083 C 
BRANCH  21  22
HETATM   22  C           1     -21.018  -4.271  -7.721  0.00  0.00    -0.028 A 
HETATM   23  C           1     -19.833  -4.193  -8.418  0.00  0.00     0.096 A 
HETATM   24  N           1     -20.138  -4.032  -9.745  0.00  0.00    -0.365 N 
HETATM   25  H           1     -19.433  -3.944 -10.516  0.00  0.00     0.165 HD
HETATM   26  C           1     -21.504  -4.005  -9.919  0.00  0.00     0.042 A 
HETATM   27  C           1     -22.264  -3.861 -11.086  0.00  0.00     0.030 A 
HETATM   28  C           1     -22.081  -4.153  -8.658  0.00  0.00    -0.002 A 
HETATM   29  C           1     -23.656  -3.869 -10.956  0.00  0.00     0.002 A 
HETATM   30  C           1     -24.261  -4.016  -9.709  0.00  0.00     0.001 A 
HETATM   31  C           1     -23.486  -4.158  -8.552  0.00  0.00     0.014 A 
ENDBRANCH  21  22
ENDBRANCH   1  21
TORSDOF 8
ENDMDL
MODEL 8
REMARK VINA RESULT:      -8.3      2.748      3.846
REMARK  8 active torsions:
REMARK  status: ('A' for Active; 'I' for Inactive)
REMARK    1  A    between atoms: C_2  and  C_3 
REMARK    2  A    between atoms: C_3  and  C_4 
REMARK    3  A    between atoms: C_4  and  C_30 
REMARK    4  A    between atoms: C_4  and  N_22 
REMARK    5  A    between atoms: N_6  and  C_11 
REMARK    6  A    between atoms: C_11  and  C_23 
REMARK    7  A    between atoms: C_11  and  C_13 
REMARK    8  A    between atoms: C_13  and  C_17 
REMARK       I    between atoms: N_22  and  C_23 
ROOT
HETATM    1  C           1     -21.593  -6.153  -6.270  0.00  0.00     0.278 C 
ENDROOT
BRANCH   1   2
HETATM    2  N           1     -22.551  -6.031  -5.123  0.00  0.00    -0.066 N 
HETATM    3  H           1     -23.518  -6.257  -5.449  0.00  0.00     0.275 HD
HETATM    4  H           1     -22.276  -6.699  -4.367  0.00  0.00     0.275 HD
HETATM    5  H           1     -22.528  -5.056  -4.751  0.00  0.00     0.275 HD
ENDBRANCH   1   2
BRANCH   1   6
HETATM    6  C           1     -20.504  -7.134  -5.913  0.00  0.00     0.249 C 
HETATM    7  O           1     -19.461  -7.128  -6.522  0.00  0.00    -0.271 OA
HETATM    8  N           1     -20.698  -8.032  -4.899  0.00  0.00    -0.344 N 
HETATM    9  H           1     -21.572  -8.039  -4.388  0.00  0.00     0.163 HD
BRANCH   8  10
HETATM   10  C           1     -19.652  -8.976  -4.555  0.00  0.00     0.189 C 
BRANCH  10  11
HETATM   11  C           1     -19.593  -9.139  -3.042  0.00  0.00     0.074 C 
BRANCH  11  12
HETATM   12  C           1     -18.320  -9.830  -2.663  0.00  0.00    -0.056 A 
HETATM   13  C           1     -17.094  -9.310  -3.077  0.00  0.00     0.007 A 
HETATM   14  C           1     -15.908  -9.955  -2.723  0.00  0.00     0.001 A 
HETATM   15  C           1     -15.949 -11.118  -1.955  0.00  0.00     0.000 A 
HETATM   16  C           1     -17.175 -11.637  -1.541  0.00  0.00     0.001 A 
HETATM   17  C           1     -18.361 -10.994  -1.895  0.00  0.00     0.007 A 
ENDBRANCH  11  12
ENDBRANCH  10  11
BRANCH  10  18
HETATM   18  C           1     -19.949 -10.311  -5.193  0.00  0.00     0.197 C 
HETATM   19  O           1     -19.295 -10.687  -6.190  0.00  0.00    -0.646 OA
HETATM   20  O           1     -20.849 -11.042  -4.724  0.00  0.00    -0.646 OA
ENDBRANCH  10  18
ENDBRANCH   8  10
ENDBRANCH   1   6
BRANCH   1  21
HETATM   21  C           1     -20.975  -4.792  -6.560  0.00  0.00     0.083 C 
BRANCH  21  22
HETATM   22  C           1     -20.999  -4.536  -8.036  0.00  0.00    -0.028 A 
HETATM   23  C           1     -19.926  -4.632  -8.893  0.00  0.00     0.096 A 
HETATM   24  N           1     -20.368  -4.318 -10.152  0.00  0.00    -0.365 N 
HETATM   25  H           1     -19.769  -4.307 -11.013  0.00  0.00     0.165 HD
HETATM   26  C           1     -21.712  -4.021 -10.125  0.00  0.00     0.042 A 
HETATM   27  C           1     -22.578  -3.650 -11.160  0.00  0.00     0.030 A 
HETATM   28  C           1     -22.134  -4.150  -8.801  0.00  0.00    -0.002 A 
HETATM   29  C           1     -23.914  -3.405 -10.830  0.00  0.00     0.002 A 
HETATM   30  C           1     -24.364  -3.526  -9.516  0.00  0.00     0.001 A 
HETATM   31  C           1     -23.485  -3.898  -8.492  0.00  0.00     0.014 A 
ENDBRANCH  21  22
ENDBRANCH   1  21
TORSDOF 8
ENDMDL
MODEL 9
REMARK VINA RESULT:      -8.1      2.398      4.097
REMARK  8 active torsions:
REMARK  status: ('A' for Active; 'I' for Inactive)
REMARK    1  A    between atoms: C_2  and  C_3 
REMARK    2  A    between atoms: C_3  and  C_4 
REMARK    3  A    between atoms: C_4  and  C_30 
REMARK    4  A    between atoms: C_4  and  N_22 
REMARK    5  A    between atoms: N_6  and  C_11 
REMARK    6  A    between atoms: C_11  and  C_23 
REMARK    7  A    between atoms: C_11  and  C_13 
REMARK    8  A    between atoms: C_13  and  C_17 
REMARK       I    between atoms: N_22  and  C_23 
ROOT
HETATM    1  C           1     -20.511  -7.100  -4.871  0.00  0.00     0.278 C 
ENDROOT
BRANCH   1   2
HETATM    2  N           1     -20.802  -7.735  -6.198  0.00  0.00    -0.066 N 
HETATM    3  H           1     -21.170  -8.702  -6.049  0.00  0.00     0.275 HD
HETATM    4  H           1     -21.516  -7.166  -6.707  0.00  0.00     0.275 HD
HETATM    5  H           1     -19.924  -7.780  -6.763  0.00  0.00     0.275 HD
ENDBRANCH   1   2
BRANCH   1   6
HETATM    6  C           1     -21.332  -7.775  -3.800  0.00  0.00     0.249 C 
HETATM    7  O           1     -22.354  -8.348  -4.094  0.00  0.00    -0.271 OA
HETATM    8  N           1     -20.919  -7.739  -2.496  0.00  0.00    -0.344 N 
HETATM    9  H           1     -20.063  -7.259  -2.249  0.00  0.00     0.163 HD
BRANCH   8  10
HETATM   10  C           1     -21.708  -8.387  -1.467  0.00  0.00     0.189 C 
BRANCH  10  11
HETATM   11  C           1     -20.861  -9.442  -0.767  0.00  0.00     0.074 C 
BRANCH  11  12
HETATM   12  C           1     -21.736 -10.574  -0.325  0.00  0.00    -0.056 A 
HETATM   13  C           1     -23.041 -10.677  -0.808  0.00  0.00     0.007 A 
HETATM   14  C           1     -23.855 -11.732  -0.395  0.00  0.00     0.001 A 
HETATM   15  C           1     -23.364 -12.683   0.499  0.00  0.00     0.000 A 
HETATM   16  C           1     -22.060 -12.580   0.980  0.00  0.00     0.001 A 
HETATM   17  C           1     -21.245 -11.526   0.568  0.00  0.00     0.007 A 
ENDBRANCH  11  12
ENDBRANCH  10  11
BRANCH  10  18
HETATM   18  C           1     -22.163  -7.360  -0.460  0.00  0.00     0.197 C 
HETATM   19  O           1     -22.569  -6.242  -0.846  0.00  0.00    -0.646 OA
HETATM   20  O           1     -22.136  -7.627   0.762  0.00  0.00    -0.646 OA
ENDBRANCH  10  18
ENDBRANCH   8  10
ENDBRANCH   1   6
BRANCH   1  21
HETATM   21  C           1     -20.870  -5.621  -4.928  0.00  0.00     0.083 C 
BRANCH  21  22
HETATM   22  C           1     -20.522  -5.075  -6.279  0.00  0.00    -0.028 A 
HETATM   23  C           1     -19.251  -4.885  -6.774  0.00  0.00     0.096 A 
HETATM   24  N           1     -19.368  -4.369  -8.038  0.00  0.00    -0.365 N 
HETATM   25  H           1     -18.561  -4.123  -8.663  0.00  0.00     0.165 HD
HETATM   26  C           1     -20.696  -4.221  -8.371  0.00  0.00     0.042 A 
HETATM   27  C           1     -21.285  -3.737  -9.545  0.00  0.00     0.030 A 
HETATM   28  C           1     -21.444  -4.658  -7.278  0.00  0.00    -0.002 A 
HETATM   29  C           1     -22.682  -3.700  -9.600  0.00  0.00     0.002 A 
HETATM   30  C           1     -23.455  -4.131  -8.523  0.00  0.00     0.001 A 
HETATM   31  C           1     -22.849  -4.612  -7.356  0.00  0.00     0.014 A 
ENDBRANCH  21  22
ENDBRANCH   1  21
TORSDOF 8
ENDMDL
