MODEL 1
REMARK VINA RESULT:      -5.5      0.000      0.000
REMARK  9 active torsions:
REMARK  status: ('A' for Active; 'I' for Inactive)
REMARK    1  A    between atoms: C_2  and  C_15 
REMARK    2  A    between atoms: C_2  and  C_4 
REMARK    3  A    between atoms: C_6  and  C_14 
REMARK    4  A    between atoms: C_6  and  C_7 
REMARK    5  A    between atoms: C_7  and  C_8 
REMARK    6  A    between atoms: C_7  and  N_17 
REMARK    7  A    between atoms: N_10  and  C_15 
REMARK    8  A    between atoms: C_14  and  S_19 
REMARK    9  A    between atoms: C_15  and  C_16 
REMARK       I    between atoms: C_16  and  N_17 
ROOT
HETATM    1  O           1     -21.634  -7.794  -4.636  0.00  0.00    -0.271 OA
HETATM    2  C           1     -21.441  -6.726  -4.105  0.00  0.00     0.249 C 
HETATM    3  N           1     -21.268  -5.603  -4.869  0.00  0.00    -0.345 N 
HETATM    4  H           1     -21.105  -4.708  -4.424  0.00  0.00     0.163 HD
ENDROOT
BRANCH   2   5
HETATM    5  C           1     -21.390  -6.630  -2.600  0.00  0.00     0.278 C 
BRANCH   5   6
HETATM    6  C           1     -21.539  -8.020  -1.996  0.00  0.00     0.021 C 
HETATM    7  C           1     -20.159  -8.617  -1.751  0.00  0.00     0.012 C 
BRANCH   6   8
HETATM    8  C           1     -22.290  -7.920  -0.675  0.00  0.00     0.002 C 
HETATM    9  C           1     -22.793  -9.300  -0.272  0.00  0.00     0.005 C 
ENDBRANCH   6   8
ENDBRANCH   5   6
BRANCH   5  10
HETATM   10  N           1     -22.509  -5.754  -2.118  0.00  0.00    -0.066 N 
HETATM   11  H           1     -23.059  -5.408  -2.936  0.00  0.00     0.275 HD
HETATM   12  H           1     -23.132  -6.304  -1.485  0.00  0.00     0.275 HD
HETATM   13  H           1     -22.112  -4.939  -1.597  0.00  0.00     0.275 HD
ENDBRANCH   5  10
ENDBRANCH   2   5
BRANCH   3  14
HETATM   14  C           1     -21.316  -5.696  -6.315  0.00  0.00     0.186 C 
BRANCH  14  15
HETATM   15  C           1     -22.099  -4.515  -6.873  0.00  0.00     0.046 C 
BRANCH  15  16
HETATM   16  C           1     -22.119  -4.591  -8.394  0.00  0.00     0.076 C 
BRANCH  16  17
HETATM   17  S           1     -23.683  -3.910  -9.014  0.00  0.00    -0.173 SA
HETATM   18  C           1     -23.803  -4.982 -10.473  0.00  0.00     0.089 C 
ENDBRANCH  16  17
ENDBRANCH  15  16
ENDBRANCH  14  15
BRANCH  14  19
HETATM   19  C           1     -19.913  -5.675  -6.868  0.00  0.00     0.196 C 
HETATM   20  O           1     -19.395  -6.728  -7.299  0.00  0.00    -0.646 OA
HETATM   21  O           1     -19.266  -4.605  -6.894  0.00  0.00    -0.646 OA
ENDBRANCH  14  19
ENDBRANCH   3  14
TORSDOF 9
ENDMDL
MODEL 2
REMARK VINA RESULT:      -5.3      3.192      6.668
REMARK  9 active torsions:
REMARK  status: ('A' for Active; 'I' for Inactive)
REMARK    1  A    between atoms: C_2  and  C_15 
REMARK    2  A    between atoms: C_2  and  C_4 
REMARK    3  A    between atoms: C_6  and  C_14 
REMARK    4  A    between atoms: C_6  and  C_7 
REMARK    5  A    between atoms: C_7  and  C_8 
REMARK    6  A    between atoms: C_7  and  N_17 
REMARK    7  A    between atoms: N_10  and  C_15 
REMARK    8  A    between atoms: C_14  and  S_19 
REMARK    9  A    between atoms: C_15  and  C_16 
REMARK       I    between atoms: C_16  and  N_17 
ROOT
HETATM    1  O           1     -22.890  -5.549  -5.836  0.00  0.00    -0.271 OA
HETATM    2  C           1     -21.683  -5.517  -5.853  0.00  0.00     0.249 C 
HETATM    3  N           1     -20.963  -6.375  -5.065  0.00  0.00    -0.345 N 
HETATM    4  H           1     -19.952  -6.347  -5.079  0.00  0.00     0.163 HD
ENDROOT
BRANCH   2   5
HETATM    5  C           1     -20.967  -4.531  -6.743  0.00  0.00     0.278 C 
BRANCH   5   6
HETATM    6  C           1     -21.323  -4.808  -8.199  0.00  0.00     0.021 C 
HETATM    7  C           1     -22.358  -3.794  -8.669  0.00  0.00     0.012 C 
BRANCH   6   8
HETATM    8  C           1     -20.071  -4.690  -9.057  0.00  0.00     0.002 C 
HETATM    9  C           1     -20.468  -4.372 -10.493  0.00  0.00     0.005 C 
ENDBRANCH   6   8
ENDBRANCH   5   6
BRANCH   5  10
HETATM   10  N           1     -19.485  -4.674  -6.557  0.00  0.00    -0.066 N 
HETATM   11  H           1     -19.282  -4.944  -5.568  0.00  0.00     0.275 HD
HETATM   12  H           1     -19.123  -5.413  -7.201  0.00  0.00     0.275 HD
HETATM   13  H           1     -19.019  -3.764  -6.771  0.00  0.00     0.275 HD
ENDBRANCH   5  10
ENDBRANCH   2   5
BRANCH   3  14
HETATM   14  C           1     -21.652  -7.321  -4.209  0.00  0.00     0.186 C 
BRANCH  14  15
HETATM   15  C           1     -20.976  -8.682  -4.313  0.00  0.00     0.046 C 
BRANCH  15  16
HETATM   16  C           1     -19.601  -8.519  -4.946  0.00  0.00     0.076 C 
BRANCH  16  17
HETATM   17  S           1     -18.624 -10.024  -4.668  0.00  0.00    -0.173 SA
HETATM   18  C           1     -17.891  -9.498  -3.093  0.00  0.00     0.089 C 
ENDBRANCH  16  17
ENDBRANCH  15  16
ENDBRANCH  14  15
BRANCH  14  19
HETATM   19  C           1     -21.597  -6.840  -2.780  0.00  0.00     0.196 C 
HETATM   20  O           1     -22.355  -5.921  -2.401  0.00  0.00    -0.646 OA
HETATM   21  O           1     -20.793  -7.359  -1.975  0.00  0.00    -0.646 OA
ENDBRANCH  14  19
ENDBRANCH   3  14
TORSDOF 9
ENDMDL
MODEL 3
REMARK VINA RESULT:      -5.3      2.628      6.514
REMARK  9 active torsions:
REMARK  status: ('A' for Active; 'I' for Inactive)
REMARK    1  A    between atoms: C_2  and  C_15 
REMARK    2  A    between atoms: C_2  and  C_4 
REMARK    3  A    between atoms: C_6  and  C_14 
REMARK    4  A    between atoms: C_6  and  C_7 
REMARK    5  A    between atoms: C_7  and  C_8 
REMARK    6  A    between atoms: C_7  and  N_17 
REMARK    7  A    between atoms: N_10  and  C_15 
REMARK    8  A    between atoms: C_14  and  S_19 
REMARK    9  A    between atoms: C_15  and  C_16 
REMARK       I    between atoms: C_16  and  N_17 
ROOT
HETATM    1  O           1     -20.058  -4.469  -5.186  0.00  0.00    -0.271 OA
HETATM    2  C           1     -20.507  -4.957  -6.196  0.00  0.00     0.249 C 
HETATM    3  N           1     -20.771  -6.299  -6.250  0.00  0.00    -0.345 N 
HETATM    4  H           1     -21.146  -6.707  -7.096  0.00  0.00     0.163 HD
ENDROOT
BRANCH   2   5
HETATM    5  C           1     -20.777  -4.086  -7.398  0.00  0.00     0.278 C 
BRANCH   5   6
HETATM    6  C           1     -21.820  -4.753  -8.287  0.00  0.00     0.021 C 
HETATM    7  C           1     -23.204  -4.234  -7.921  0.00  0.00     0.012 C 
BRANCH   6   8
HETATM    8  C           1     -21.525  -4.428  -9.745  0.00  0.00     0.002 C 
HETATM    9  C           1     -22.695  -3.655 -10.339  0.00  0.00     0.005 C 
ENDBRANCH   6   8
ENDBRANCH   5   6
BRANCH   5  10
HETATM   10  N           1     -19.507  -3.898  -8.175  0.00  0.00    -0.066 N 
HETATM   11  H           1     -18.935  -4.771  -8.125  0.00  0.00     0.275 HD
HETATM   12  H           1     -19.737  -3.688  -9.172  0.00  0.00     0.275 HD
HETATM   13  H           1     -18.964  -3.103  -7.767  0.00  0.00     0.275 HD
ENDBRANCH   5  10
ENDBRANCH   2   5
BRANCH   3  14
HETATM   14  C           1     -20.511  -7.135  -5.094  0.00  0.00     0.186 C 
BRANCH  14  15
HETATM   15  C           1     -21.772  -7.234  -4.247  0.00  0.00     0.046 C 
BRANCH  15  16
HETATM   16  C           1     -21.393  -7.555  -2.807  0.00  0.00     0.076 C 
BRANCH  16  17
HETATM   17  S           1     -22.155  -6.339  -1.696  0.00  0.00    -0.173 SA
HETATM   18  C           1     -22.494  -7.494  -0.338  0.00  0.00     0.089 C 
ENDBRANCH  16  17
ENDBRANCH  15  16
ENDBRANCH  14  15
BRANCH  14  19
HETATM   19  C           1     -20.102  -8.513  -5.552  0.00  0.00     0.196 C 
HETATM   20  O           1     -20.975  -9.372  -5.804  0.00  0.00    -0.646 OA
HETATM   21  O           1     -18.891  -8.797  -5.679  0.00  0.00    -0.646 OA
ENDBRANCH  14  19
ENDBRANCH   3  14
TORSDOF 9
ENDMDL
MODEL 4
REMARK VINA RESULT:      -5.1      2.580      3.329
REMARK  9 active torsions:
REMARK  status: ('A' for Active; 'I' for Inactive)
REMARK    1  A    between atoms: C_2  and  C_15 
REMARK    2  A    between atoms: C_2  and  C_4 
REMARK    3  A    between atoms: C_6  and  C_14 
REMARK    4  A    between atoms: C_6  and  C_7 
REMARK    5  A    between atoms: C_7  and  C_8 
REMARK    6  A    between atoms: C_7  and  N_17 
REMARK    7  A    between atoms: N_10  and  C_15 
REMARK    8  A    between atoms: C_14  and  S_19 
REMARK    9  A    between atoms: C_15  and  C_16 
REMARK       I    between atoms: C_16  and  N_17 
ROOT
HETATM    1  O           1     -21.231  -9.905  -2.239  0.00  0.00    -0.271 OA
HETATM    2  C           1     -21.104  -8.705  -2.190  0.00  0.00     0.249 C 
HETATM    3  N           1     -20.814  -8.000  -3.327  0.00  0.00    -0.345 N 
HETATM    4  H           1     -20.708  -6.994  -3.286  0.00  0.00     0.163 HD
ENDROOT
BRANCH   2   5
HETATM    5  C           1     -21.264  -7.982  -0.875  0.00  0.00     0.278 C 
BRANCH   5   6
HETATM    6  C           1     -21.736  -8.964   0.191  0.00  0.00     0.021 C 
HETATM    7  C           1     -21.087  -8.615   1.524  0.00  0.00     0.012 C 
BRANCH   6   8
HETATM    8  C           1     -23.250  -8.875   0.326  0.00  0.00     0.002 C 
HETATM    9  C           1     -23.866 -10.239   0.039  0.00  0.00     0.005 C 
ENDBRANCH   6   8
ENDBRANCH   5   6
BRANCH   5  10
HETATM   10  N           1     -22.278  -6.886  -1.027  0.00  0.00    -0.066 N 
HETATM   11  H           1     -22.633  -6.874  -2.010  0.00  0.00     0.275 HD
HETATM   12  H           1     -23.073  -7.055  -0.371  0.00  0.00     0.275 HD
HETATM   13  H           1     -21.831  -5.967  -0.807  0.00  0.00     0.275 HD
ENDBRANCH   5  10
ENDBRANCH   2   5
BRANCH   3  14
HETATM   14  C           1     -20.660  -8.695  -4.590  0.00  0.00     0.186 C 
BRANCH  14  15
HETATM   15  C           1     -21.277  -7.861  -5.706  0.00  0.00     0.046 C 
BRANCH  15  16
HETATM   16  C           1     -21.725  -6.517  -5.147  0.00  0.00     0.076 C 
BRANCH  16  17
HETATM   17  S           1     -21.581  -5.247  -6.435  0.00  0.00    -0.173 SA
HETATM   18  C           1     -19.956  -5.771  -7.051  0.00  0.00     0.089 C 
ENDBRANCH  16  17
ENDBRANCH  15  16
ENDBRANCH  14  15
BRANCH  14  19
HETATM   19  C           1     -19.193  -8.905  -4.872  0.00  0.00     0.196 C 
HETATM   20  O           1     -18.392  -9.071  -3.927  0.00  0.00    -0.646 OA
HETATM   21  O           1     -18.778  -8.914  -6.052  0.00  0.00    -0.646 OA
ENDBRANCH  14  19
ENDBRANCH   3  14
TORSDOF 9
ENDMDL
MODEL 5
REMARK VINA RESULT:      -5.1      2.796      3.805
REMARK  9 active torsions:
REMARK  status: ('A' for Active; 'I' for Inactive)
REMARK    1  A    between atoms: C_2  and  C_15 
REMARK    2  A    between atoms: C_2  and  C_4 
REMARK    3  A    between atoms: C_6  and  C_14 
REMARK    4  A    between atoms: C_6  and  C_7 
REMARK    5  A    between atoms: C_7  and  C_8 
REMARK    6  A    between atoms: C_7  and  N_17 
REMARK    7  A    between atoms: N_10  and  C_15 
REMARK    8  A    between atoms: C_14  and  S_19 
REMARK    9  A    between atoms: C_15  and  C_16 
REMARK       I    between atoms: C_16  and  N_17 
ROOT
HETATM    1  O           1     -22.234 -10.579  -3.798  0.00  0.00    -0.271 OA
HETATM    2  C           1     -21.771 -10.018  -2.833  0.00  0.00     0.249 C 
HETATM    3  N           1     -21.119  -8.824  -2.982  0.00  0.00    -0.345 N 
HETATM    4  H           1     -20.732  -8.354  -2.174  0.00  0.00     0.163 HD
ENDROOT
BRANCH   2   5
HETATM    5  C           1     -21.914 -10.633  -1.462  0.00  0.00     0.278 C 
BRANCH   5   6
HETATM    6  C           1     -23.033  -9.932  -0.703  0.00  0.00     0.021 C 
HETATM    7  C           1     -23.915 -10.973  -0.024  0.00  0.00     0.012 C 
BRANCH   6   8
HETATM    8  C           1     -22.431  -9.013   0.352  0.00  0.00     0.002 C 
HETATM    9  C           1     -22.701  -7.562  -0.026  0.00  0.00     0.005 C 
ENDBRANCH   6   8
ENDBRANCH   5   6
BRANCH   5  10
HETATM   10  N           1     -20.625 -10.478  -0.708  0.00  0.00    -0.066 N 
HETATM   11  H           1     -19.871 -11.015  -1.192  0.00  0.00     0.275 HD
HETATM   12  H           1     -20.364  -9.466  -0.672  0.00  0.00     0.275 HD
HETATM   13  H           1     -20.745 -10.843   0.263  0.00  0.00     0.275 HD
ENDBRANCH   5  10
ENDBRANCH   2   5
BRANCH   3  14
HETATM   14  C           1     -20.982  -8.233  -4.299  0.00  0.00     0.186 C 
BRANCH  14  15
HETATM   15  C           1     -21.216  -6.731  -4.207  0.00  0.00     0.046 C 
BRANCH  15  16
HETATM   16  C           1     -22.292  -6.322  -5.205  0.00  0.00     0.076 C 
BRANCH  16  17
HETATM   17  S           1     -21.528  -5.421  -6.583  0.00  0.00    -0.173 SA
HETATM   18  C           1     -20.096  -4.807  -5.651  0.00  0.00     0.089 C 
ENDBRANCH  16  17
ENDBRANCH  15  16
ENDBRANCH  14  15
BRANCH  14  19
HETATM   19  C           1     -19.593  -8.495  -4.826  0.00  0.00     0.196 C 
HETATM   20  O           1     -19.325  -8.260  -6.024  0.00  0.00    -0.646 OA
HETATM   21  O           1     -18.711  -8.948  -4.065  0.00  0.00    -0.646 OA
ENDBRANCH  14  19
ENDBRANCH   3  14
TORSDOF 9
ENDMDL
MODEL 6
REMARK VINA RESULT:      -5.0      3.207      4.414
REMARK  9 active torsions:
REMARK  status: ('A' for Active; 'I' for Inactive)
REMARK    1  A    between atoms: C_2  and  C_15 
REMARK    2  A    between atoms: C_2  and  C_4 
REMARK    3  A    between atoms: C_6  and  C_14 
REMARK    4  A    between atoms: C_6  and  C_7 
REMARK    5  A    between atoms: C_7  and  C_8 
REMARK    6  A    between atoms: C_7  and  N_17 
REMARK    7  A    between atoms: N_10  and  C_15 
REMARK    8  A    between atoms: C_14  and  S_19 
REMARK    9  A    between atoms: C_15  and  C_16 
REMARK       I    between atoms: C_16  and  N_17 
ROOT
HETATM    1  O           1     -19.516  -8.302  -2.168  0.00  0.00    -0.271 OA
HETATM    2  C           1     -20.709  -8.139  -2.069  0.00  0.00     0.249 C 
HETATM    3  N           1     -21.481  -8.024  -3.195  0.00  0.00    -0.345 N 
HETATM    4  H           1     -22.480  -7.887  -3.112  0.00  0.00     0.163 HD
ENDROOT
BRANCH   2   5
HETATM    5  C           1     -21.350  -8.061  -0.705  0.00  0.00     0.278 C 
BRANCH   5   6
HETATM    6  C           1     -21.821  -9.448  -0.285  0.00  0.00     0.021 C 
HETATM    7  C           1     -21.001  -9.923   0.907  0.00  0.00     0.012 C 
BRANCH   6   8
HETATM    8  C           1     -23.292  -9.385   0.105  0.00  0.00     0.002 C 
HETATM    9  C           1     -23.941 -10.742  -0.142  0.00  0.00     0.005 C 
ENDBRANCH   6   8
ENDBRANCH   5   6
BRANCH   5  10
HETATM   10  N           1     -22.524  -7.129  -0.757  0.00  0.00    -0.066 N 
HETATM   11  H           1     -22.466  -6.451   0.036  0.00  0.00     0.275 HD
HETATM   12  H           1     -22.515  -6.608  -1.663  0.00  0.00     0.275 HD
HETATM   13  H           1     -23.409  -7.680  -0.679  0.00  0.00     0.275 HD
ENDBRANCH   5  10
ENDBRANCH   2   5
BRANCH   3  14
HETATM   14  C           1     -20.865  -8.099  -4.505  0.00  0.00     0.186 C 
BRANCH  14  15
HETATM   15  C           1     -21.218  -9.429  -5.156  0.00  0.00     0.046 C 
BRANCH  15  16
HETATM   16  C           1     -20.051 -10.395  -5.005  0.00  0.00     0.076 C 
BRANCH  16  17
HETATM   17  S           1     -18.500  -9.535  -5.392  0.00  0.00    -0.173 SA
HETATM   18  C           1     -17.671 -10.954  -6.161  0.00  0.00     0.089 C 
ENDBRANCH  16  17
ENDBRANCH  15  16
ENDBRANCH  14  15
BRANCH  14  19
HETATM   19  C           1     -21.373  -6.967  -5.365  0.00  0.00     0.196 C 
HETATM   20  O           1     -21.018  -6.882  -6.560  0.00  0.00    -0.646 OA
HETATM   21  O           1     -22.148  -6.114  -4.880  0.00  0.00    -0.646 OA
ENDBRANCH  14  19
ENDBRANCH   3  14
TORSDOF 9
ENDMDL
MODEL 7
REMARK VINA RESULT:      -5.0      4.161      7.165
REMARK  9 active torsions:
REMARK  status: ('A' for Active; 'I' for Inactive)
REMARK    1  A    between atoms: C_2  and  C_15 
REMARK    2  A    between atoms: C_2  and  C_4 
REMARK    3  A    between atoms: C_6  and  C_14 
REMARK    4  A    between atoms: C_6  and  C_7 
REMARK    5  A    between atoms: C_7  and  C_8 
REMARK    6  A    between atoms: C_7  and  N_17 
REMARK    7  A    between atoms: N_10  and  C_15 
REMARK    8  A    between atoms: C_14  and  S_19 
REMARK    9  A    between atoms: C_15  and  C_16 
REMARK       I    between atoms: C_16  and  N_17 
ROOT
HETATM    1  O           1     -21.831  -9.277  -4.133  0.00  0.00    -0.271 OA
HETATM    2  C           1     -21.032  -8.434  -3.799  0.00  0.00     0.249 C 
HETATM    3  N           1     -20.915  -8.085  -2.481  0.00  0.00    -0.345 N 
HETATM    4  H           1     -20.246  -7.378  -2.202  0.00  0.00     0.163 HD
ENDROOT
BRANCH   2   5
HETATM    5  C           1     -20.162  -7.767  -4.837  0.00  0.00     0.278 C 
BRANCH   5   6
HETATM    6  C           1     -21.040  -7.022  -5.834  0.00  0.00     0.021 C 
HETATM    7  C           1     -22.089  -6.213  -5.083  0.00  0.00     0.012 C 
BRANCH   6   8
HETATM    8  C           1     -20.176  -6.084  -6.667  0.00  0.00     0.002 C 
HETATM    9  C           1     -19.994  -4.767  -5.922  0.00  0.00     0.005 C 
ENDBRANCH   6   8
ENDBRANCH   5   6
BRANCH   5  10
HETATM   10  N           1     -19.358  -8.808  -5.559  0.00  0.00    -0.066 N 
HETATM   11  H           1     -19.809  -9.022  -6.477  0.00  0.00     0.275 HD
HETATM   12  H           1     -18.390  -8.448  -5.721  0.00  0.00     0.275 HD
HETATM   13  H           1     -19.316  -9.677  -4.981  0.00  0.00     0.275 HD
ENDBRANCH   5  10
ENDBRANCH   2   5
BRANCH   3  14
HETATM   14  C           1     -21.751  -8.726  -1.485  0.00  0.00     0.186 C 
BRANCH  14  15
HETATM   15  C           1     -20.900  -9.658  -0.634  0.00  0.00     0.046 C 
BRANCH  15  16
HETATM   16  C           1     -21.202 -11.104  -1.006  0.00  0.00     0.076 C 
BRANCH  16  17
HETATM   17  S           1     -22.024 -11.928   0.386  0.00  0.00    -0.173 SA
HETATM   18  C           1     -23.715 -11.455  -0.071  0.00  0.00     0.089 C 
ENDBRANCH  16  17
ENDBRANCH  15  16
ENDBRANCH  14  15
BRANCH  14  19
HETATM   19  C           1     -22.381  -7.675  -0.605  0.00  0.00     0.196 C 
HETATM   20  O           1     -22.632  -7.931   0.593  0.00  0.00    -0.646 OA
HETATM   21  O           1     -22.652  -6.548  -1.073  0.00  0.00    -0.646 OA
ENDBRANCH  14  19
ENDBRANCH   3  14
TORSDOF 9
ENDMDL
MODEL 8
REMARK VINA RESULT:      -4.9      4.452      5.472
REMARK  9 active torsions:
REMARK  status: ('A' for Active; 'I' for Inactive)
REMARK    1  A    between atoms: C_2  and  C_15 
REMARK    2  A    between atoms: C_2  and  C_4 
REMARK    3  A    between atoms: C_6  and  C_14 
REMARK    4  A    between atoms: C_6  and  C_7 
REMARK    5  A    between atoms: C_7  and  C_8 
REMARK    6  A    between atoms: C_7  and  N_17 
REMARK    7  A    between atoms: N_10  and  C_15 
REMARK    8  A    between atoms: C_14  and  S_19 
REMARK    9  A    between atoms: C_15  and  C_16 
REMARK       I    between atoms: C_16  and  N_17 
ROOT
HETATM    1  O           1     -21.166  -6.799  -2.576  0.00  0.00    -0.271 OA
HETATM    2  C           1     -20.953  -7.850  -2.019  0.00  0.00     0.249 C 
HETATM    3  N           1     -20.270  -8.843  -2.667  0.00  0.00    -0.345 N 
HETATM    4  H           1     -20.092  -9.723  -2.201  0.00  0.00     0.163 HD
ENDROOT
BRANCH   2   5
HETATM    5  C           1     -21.441  -8.068  -0.607  0.00  0.00     0.278 C 
BRANCH   5   6
HETATM    6  C           1     -21.845  -9.526  -0.427  0.00  0.00     0.021 C 
HETATM    7  C           1     -21.021 -10.147   0.693  0.00  0.00     0.012 C 
BRANCH   6   8
HETATM    8  C           1     -23.324  -9.600  -0.071  0.00  0.00     0.002 C 
HETATM    9  C           1     -23.830 -11.019  -0.297  0.00  0.00     0.005 C 
ENDBRANCH   6   8
ENDBRANCH   5   6
BRANCH   5  10
HETATM   10  N           1     -22.626  -7.185  -0.346  0.00  0.00    -0.066 N 
HETATM   11  H           1     -22.318  -6.332   0.173  0.00  0.00     0.275 HD
HETATM   12  H           1     -23.056  -6.903  -1.256  0.00  0.00     0.275 HD
HETATM   13  H           1     -23.328  -7.707   0.226  0.00  0.00     0.275 HD
ENDBRANCH   5  10
ENDBRANCH   2   5
BRANCH   3  14
HETATM   14  C           1     -19.802  -8.633  -4.024  0.00  0.00     0.186 C 
BRANCH  14  15
HETATM   15  C           1     -18.488  -9.375  -4.227  0.00  0.00     0.046 C 
BRANCH  15  16
HETATM   16  C           1     -17.920  -9.781  -2.873  0.00  0.00     0.076 C 
BRANCH  16  17
HETATM   17  S           1     -16.110  -9.651  -2.913  0.00  0.00    -0.173 SA
HETATM   18  C           1     -15.926  -9.958  -4.692  0.00  0.00     0.089 C 
ENDBRANCH  16  17
ENDBRANCH  15  16
ENDBRANCH  14  15
BRANCH  14  19
HETATM   19  C           1     -20.830  -9.155  -4.997  0.00  0.00     0.196 C 
HETATM   20  O           1     -21.233  -8.428  -5.931  0.00  0.00    -0.646 OA
HETATM   21  O           1     -21.281 -10.314  -4.869  0.00  0.00    -0.646 OA
ENDBRANCH  14  19
ENDBRANCH   3  14
TORSDOF 9
ENDMDL
MODEL 9
REMARK VINA RESULT:      -4.9      3.528      5.466
REMARK  9 active torsions:
REMARK  status: ('A' for Active; 'I' for Inactive)
REMARK    1  A    between atoms: C_2  and  C_15 
REMARK    2  A    between atoms: C_2  and  C_4 
REMARK    3  A    between atoms: C_6  and  C_14 
REMARK    4  A    between atoms: C_6  and  C_7 
REMARK    5  A    between atoms: C_7  and  C_8 
REMARK    6  A    between atoms: C_7  and  N_17 
REMARK    7  A    between atoms: N_10  and  C_15 
REMARK    8  A    between atoms: C_14  and  S_19 
REMARK    9  A    between atoms: C_15  and  C_16 
REMARK       I    between atoms: C_16  and  N_17 
ROOT
HETATM    1  O           1     -21.213  -9.810  -4.533  0.00  0.00    -0.271 OA
HETATM    2  C           1     -20.170  -9.204  -4.598  0.00  0.00     0.249 C 
HETATM    3  N           1     -20.167  -7.836  -4.536  0.00  0.00    -0.345 N 
HETATM    4  H           1     -19.293  -7.329  -4.591  0.00  0.00     0.163 HD
ENDROOT
BRANCH   2   5
HETATM    5  C           1     -18.870  -9.955  -4.749  0.00  0.00     0.278 C 
BRANCH   5   6
HETATM    6  C           1     -17.957  -9.634  -3.572  0.00  0.00     0.021 C 
HETATM    7  C           1     -18.432 -10.393  -2.340  0.00  0.00     0.012 C 
BRANCH   6   8
HETATM    8  C           1     -16.532 -10.054  -3.907  0.00  0.00     0.002 C 
HETATM    9  C           1     -15.721 -10.169  -2.623  0.00  0.00     0.005 C 
ENDBRANCH   6   8
ENDBRANCH   5   6
BRANCH   5  10
HETATM   10  N           1     -18.200  -9.543  -6.027  0.00  0.00    -0.066 N 
HETATM   11  H           1     -18.514 -10.168  -6.803  0.00  0.00     0.275 HD
HETATM   12  H           1     -18.456  -8.554  -6.250  0.00  0.00     0.275 HD
HETATM   13  H           1     -17.163  -9.619  -5.916  0.00  0.00     0.275 HD
ENDBRANCH   5  10
ENDBRANCH   2   5
BRANCH   3  14
HETATM   14  C           1     -21.416  -7.115  -4.391  0.00  0.00     0.186 C 
BRANCH  14  15
HETATM   15  C           1     -21.288  -6.101  -3.263  0.00  0.00     0.046 C 
BRANCH  15  16
HETATM   16  C           1     -22.241  -6.473  -2.135  0.00  0.00     0.076 C 
BRANCH  16  17
HETATM   17  S           1     -21.530  -7.834  -1.167  0.00  0.00    -0.173 SA
HETATM   18  C           1     -22.787  -7.826   0.143  0.00  0.00     0.089 C 
ENDBRANCH  16  17
ENDBRANCH  15  16
ENDBRANCH  14  15
BRANCH  14  19
HETATM   19  C           1     -21.735  -6.397  -5.680  0.00  0.00     0.196 C 
HETATM   20  O           1     -21.066  -6.635  -6.709  0.00  0.00    -0.646 OA
HETATM   21  O           1     -22.667  -5.564  -5.718  0.00  0.00    -0.646 OA
ENDBRANCH  14  19
ENDBRANCH   3  14
TORSDOF 9
ENDMDL
