MODEL 1
REMARK VINA RESULT:      -6.1      0.000      0.000
REMARK  11 active torsions:
REMARK  status: ('A' for Active; 'I' for Inactive)
REMARK    1  A    between atoms: C_1  and  C_14 
REMARK    2  A    between atoms: C_1  and  C_24 
REMARK    3  A    between atoms: C_2  and  C_19 
REMARK    4  A    between atoms: N_6  and  C_14 
REMARK    5  A    between atoms: N_10  and  C_15 
REMARK    6  A    between atoms: C_12  and  C_16 
REMARK    7  A    between atoms: C_12  and  C_19 
REMARK    8  A    between atoms: N_13  and  C_19 
REMARK       I    between atoms: N_13  and  C_18 
REMARK    9  A    between atoms: C_14  and  C_18 
REMARK   10  A    between atoms: C_15  and  C_16 
REMARK   11  A    between atoms: S_23  and  C_24 
ROOT
HETATM    1  O           1     -33.965  -1.852 -11.188  0.00  0.00    -0.271 OA
HETATM    2  H           1     -35.300  -1.923 -14.026  0.00  0.00     0.163 HD
HETATM    3  N           1     -34.987  -1.531 -13.147  0.00  0.00    -0.345 N 
HETATM    4  C           1     -34.339  -2.320 -12.237  0.00  0.00     0.249 C 
ENDROOT
BRANCH   3   5
HETATM    5  C           1     -35.227  -0.131 -12.852  0.00  0.00     0.185 C 
BRANCH   5   6
HETATM    6  C           1     -36.461  -0.003 -11.994  0.00  0.00     0.196 C 
HETATM    7  O           1     -37.571  -0.368 -12.438  0.00  0.00    -0.646 OA
HETATM    8  O           1     -36.373   0.467 -10.839  0.00  0.00    -0.646 OA
ENDBRANCH   5   6
BRANCH   5   9
HETATM    9  C           1     -35.431   0.633 -14.154  0.00  0.00     0.038 C 
BRANCH   9  10
HETATM   10  C           1     -35.522  -0.352 -15.312  0.00  0.00     0.030 C 
BRANCH  10  11
HETATM   11  C           1     -36.911  -0.278 -15.935  0.00  0.00     0.230 C 
BRANCH  11  12
HETATM   12  N           1     -37.445   1.117 -15.801  0.00  0.00    -0.079 N 
HETATM   13  H           1     -37.663   1.499 -16.748  0.00  0.00     0.274 HD
HETATM   14  H           1     -38.316   1.102 -15.222  0.00  0.00     0.274 HD
HETATM   15  H           1     -36.730   1.722 -15.338  0.00  0.00     0.274 HD
ENDBRANCH  11  12
ENDBRANCH  10  11
ENDBRANCH   9  10
ENDBRANCH   5   9
ENDBRANCH   3   5
BRANCH   4  16
HETATM   16  C           1     -34.090  -3.777 -12.544  0.00  0.00     0.275 C 
BRANCH  16  17
HETATM   17  C           1     -32.851  -4.251 -11.794  0.00  0.00     0.053 C 
BRANCH  17  18
HETATM   18  C           1     -33.095  -5.650 -11.244  0.00  0.00     0.076 C 
BRANCH  18  19
HETATM   19  S           1     -34.749  -5.731 -10.503  0.00  0.00    -0.173 SA
HETATM   20  C           1     -34.710  -7.505 -10.121  0.00  0.00     0.089 C 
ENDBRANCH  18  19
ENDBRANCH  17  18
ENDBRANCH  16  17
BRANCH  16  21
HETATM   21  N           1     -33.875  -3.947 -14.019  0.00  0.00    -0.066 N 
HETATM   22  H           1     -33.511  -4.908 -14.211  0.00  0.00     0.275 HD
HETATM   23  H           1     -34.782  -3.811 -14.520  0.00  0.00     0.275 HD
HETATM   24  H           1     -33.182  -3.240 -14.354  0.00  0.00     0.275 HD
ENDBRANCH  16  21
ENDBRANCH   4  16
TORSDOF 11
ENDMDL
MODEL 2
REMARK VINA RESULT:      -5.7      3.114      6.690
REMARK  11 active torsions:
REMARK  status: ('A' for Active; 'I' for Inactive)
REMARK    1  A    between atoms: C_1  and  C_14 
REMARK    2  A    between atoms: C_1  and  C_24 
REMARK    3  A    between atoms: C_2  and  C_19 
REMARK    4  A    between atoms: N_6  and  C_14 
REMARK    5  A    between atoms: N_10  and  C_15 
REMARK    6  A    between atoms: C_12  and  C_16 
REMARK    7  A    between atoms: C_12  and  C_19 
REMARK    8  A    between atoms: N_13  and  C_19 
REMARK       I    between atoms: N_13  and  C_18 
REMARK    9  A    between atoms: C_14  and  C_18 
REMARK   10  A    between atoms: C_15  and  C_16 
REMARK   11  A    between atoms: S_23  and  C_24 
ROOT
HETATM    1  O           1     -34.180  -1.653 -10.128  0.00  0.00    -0.271 OA
HETATM    2  H           1     -36.235  -3.389 -11.742  0.00  0.00     0.163 HD
HETATM    3  N           1     -35.377  -3.164 -11.256  0.00  0.00    -0.345 N 
HETATM    4  C           1     -35.206  -1.922 -10.708  0.00  0.00     0.249 C 
ENDROOT
BRANCH   3   5
HETATM    5  C           1     -34.328  -4.158 -11.140  0.00  0.00     0.185 C 
BRANCH   5   6
HETATM    6  C           1     -33.392  -4.040 -12.318  0.00  0.00     0.196 C 
HETATM    7  O           1     -32.183  -4.329 -12.187  0.00  0.00    -0.646 OA
HETATM    8  O           1     -33.826  -3.654 -13.425  0.00  0.00    -0.646 OA
ENDBRANCH   5   6
BRANCH   5   9
HETATM    9  C           1     -34.948  -5.549 -11.122  0.00  0.00     0.038 C 
BRANCH   9  10
HETATM   10  C           1     -34.150  -6.449 -10.188  0.00  0.00     0.030 C 
BRANCH  10  11
HETATM   11  C           1     -34.741  -7.852 -10.204  0.00  0.00     0.230 C 
BRANCH  11  12
HETATM   12  N           1     -33.632  -8.862 -10.214  0.00  0.00    -0.079 N 
HETATM   13  H           1     -33.485  -9.227  -9.246  0.00  0.00     0.274 HD
HETATM   14  H           1     -33.886  -9.652 -10.850  0.00  0.00     0.274 HD
HETATM   15  H           1     -32.752  -8.411 -10.553  0.00  0.00     0.274 HD
ENDBRANCH  11  12
ENDBRANCH  10  11
ENDBRANCH   9  10
ENDBRANCH   5   9
ENDBRANCH   3   5
BRANCH   4  16
HETATM   16  C           1     -36.298  -0.887 -10.828  0.00  0.00     0.275 C 
BRANCH  16  17
HETATM   17  C           1     -35.999   0.032 -12.006  0.00  0.00     0.053 C 
BRANCH  17  18
HETATM   18  C           1     -36.982  -0.252 -13.134  0.00  0.00     0.076 C 
BRANCH  18  19
HETATM   19  S           1     -36.238   0.223 -14.720  0.00  0.00    -0.173 SA
HETATM   20  C           1     -34.747   0.986 -14.021  0.00  0.00     0.089 C 
ENDBRANCH  18  19
ENDBRANCH  17  18
ENDBRANCH  16  17
BRANCH  16  21
HETATM   21  N           1     -36.361  -0.078  -9.567  0.00  0.00    -0.066 N 
HETATM   22  H           1     -35.491  -0.232  -9.009  0.00  0.00     0.275 HD
HETATM   23  H           1     -36.445   0.935  -9.809  0.00  0.00     0.275 HD
HETATM   24  H           1     -37.192  -0.373  -9.006  0.00  0.00     0.275 HD
ENDBRANCH  16  21
ENDBRANCH   4  16
TORSDOF 11
ENDMDL
MODEL 3
REMARK VINA RESULT:      -5.7     12.091     13.935
REMARK  11 active torsions:
REMARK  status: ('A' for Active; 'I' for Inactive)
REMARK    1  A    between atoms: C_1  and  C_14 
REMARK    2  A    between atoms: C_1  and  C_24 
REMARK    3  A    between atoms: C_2  and  C_19 
REMARK    4  A    between atoms: N_6  and  C_14 
REMARK    5  A    between atoms: N_10  and  C_15 
REMARK    6  A    between atoms: C_12  and  C_16 
REMARK    7  A    between atoms: C_12  and  C_19 
REMARK    8  A    between atoms: N_13  and  C_19 
REMARK       I    between atoms: N_13  and  C_18 
REMARK    9  A    between atoms: C_14  and  C_18 
REMARK   10  A    between atoms: C_15  and  C_16 
REMARK   11  A    between atoms: S_23  and  C_24 
ROOT
HETATM    1  O           1     -21.561  -3.592  -7.363  0.00  0.00    -0.271 OA
HETATM    2  H           1     -22.287  -5.864  -9.401  0.00  0.00     0.163 HD
HETATM    3  N           1     -22.217  -4.925  -9.030  0.00  0.00    -0.345 N 
HETATM    4  C           1     -21.645  -4.713  -7.806  0.00  0.00     0.249 C 
ENDROOT
BRANCH   3   5
HETATM    5  C           1     -22.724  -3.804  -9.798  0.00  0.00     0.185 C 
BRANCH   5   6
HETATM    6  C           1     -24.232  -3.802  -9.749  0.00  0.00     0.196 C 
HETATM    7  O           1     -24.866  -4.853  -9.986  0.00  0.00    -0.646 OA
HETATM    8  O           1     -24.847  -2.750  -9.469  0.00  0.00    -0.646 OA
ENDBRANCH   5   6
BRANCH   5   9
HETATM    9  C           1     -22.262  -3.930 -11.244  0.00  0.00     0.038 C 
BRANCH   9  10
HETATM   10  C           1     -22.584  -2.644 -11.994  0.00  0.00     0.030 C 
BRANCH  10  11
HETATM   11  C           1     -23.412  -2.970 -13.230  0.00  0.00     0.230 C 
BRANCH  11  12
HETATM   12  N           1     -22.512  -3.046 -14.428  0.00  0.00    -0.079 N 
HETATM   13  H           1     -22.823  -3.827 -15.048  0.00  0.00     0.274 HD
HETATM   14  H           1     -22.558  -2.143 -14.955  0.00  0.00     0.274 HD
HETATM   15  H           1     -21.530  -3.218 -14.117  0.00  0.00     0.274 HD
ENDBRANCH  11  12
ENDBRANCH  10  11
ENDBRANCH   9  10
ENDBRANCH   5   9
ENDBRANCH   3   5
BRANCH   4  16
HETATM   16  C           1     -21.118  -5.880  -7.007  0.00  0.00     0.275 C 
BRANCH  16  17
HETATM   17  C           1     -21.246  -5.578  -5.519  0.00  0.00     0.053 C 
BRANCH  17  18
HETATM   18  C           1     -22.266  -6.520  -4.895  0.00  0.00     0.076 C 
BRANCH  18  19
HETATM   19  S           1     -21.487  -8.125  -4.565  0.00  0.00    -0.173 SA
HETATM   20  C           1     -21.031  -7.775  -2.843  0.00  0.00     0.089 C 
ENDBRANCH  18  19
ENDBRANCH  17  18
ENDBRANCH  16  17
BRANCH  16  21
HETATM   21  N           1     -19.675  -6.108  -7.347  0.00  0.00    -0.066 N 
HETATM   22  H           1     -19.459  -5.668  -8.270  0.00  0.00     0.275 HD
HETATM   23  H           1     -19.073  -5.681  -6.608  0.00  0.00     0.275 HD
HETATM   24  H           1     -19.488  -7.135  -7.400  0.00  0.00     0.275 HD
ENDBRANCH  16  21
ENDBRANCH   4  16
TORSDOF 11
ENDMDL
MODEL 4
REMARK VINA RESULT:      -5.4      2.043      2.314
REMARK  11 active torsions:
REMARK  status: ('A' for Active; 'I' for Inactive)
REMARK    1  A    between atoms: C_1  and  C_14 
REMARK    2  A    between atoms: C_1  and  C_24 
REMARK    3  A    between atoms: C_2  and  C_19 
REMARK    4  A    between atoms: N_6  and  C_14 
REMARK    5  A    between atoms: N_10  and  C_15 
REMARK    6  A    between atoms: C_12  and  C_16 
REMARK    7  A    between atoms: C_12  and  C_19 
REMARK    8  A    between atoms: N_13  and  C_19 
REMARK       I    between atoms: N_13  and  C_18 
REMARK    9  A    between atoms: C_14  and  C_18 
REMARK   10  A    between atoms: C_15  and  C_16 
REMARK   11  A    between atoms: S_23  and  C_24 
ROOT
HETATM    1  O           1     -34.332  -3.164 -13.647  0.00  0.00    -0.271 OA
HETATM    2  H           1     -35.251  -0.877 -11.706  0.00  0.00     0.163 HD
HETATM    3  N           1     -35.121  -1.367 -12.582  0.00  0.00    -0.345 N 
HETATM    4  C           1     -34.487  -2.580 -12.602  0.00  0.00     0.249 C 
ENDROOT
BRANCH   3   5
HETATM    5  C           1     -35.608  -0.784 -13.818  0.00  0.00     0.185 C 
BRANCH   5   6
HETATM    6  C           1     -34.777   0.427 -14.163  0.00  0.00     0.196 C 
HETATM    7  O           1     -34.209   0.498 -15.274  0.00  0.00    -0.646 OA
HETATM    8  O           1     -34.659   1.359 -13.339  0.00  0.00    -0.646 OA
ENDBRANCH   5   6
BRANCH   5   9
HETATM    9  C           1     -37.063  -0.369 -13.643  0.00  0.00     0.038 C 
BRANCH   9  10
HETATM   10  C           1     -37.562   0.284 -14.925  0.00  0.00     0.030 C 
BRANCH  10  11
HETATM   11  C           1     -37.711  -0.774 -16.011  0.00  0.00     0.230 C 
BRANCH  11  12
HETATM   12  N           1     -36.614  -0.610 -17.021  0.00  0.00    -0.079 N 
HETATM   13  H           1     -36.783   0.256 -17.581  0.00  0.00     0.274 HD
HETATM   14  H           1     -35.695  -0.534 -16.529  0.00  0.00     0.274 HD
HETATM   15  H           1     -36.600  -1.438 -17.658  0.00  0.00     0.274 HD
ENDBRANCH  11  12
ENDBRANCH  10  11
ENDBRANCH   9  10
ENDBRANCH   5   9
ENDBRANCH   3   5
BRANCH   4  16
HETATM   16  C           1     -33.980  -3.186 -11.316  0.00  0.00     0.275 C 
BRANCH  16  17
HETATM   17  C           1     -34.917  -4.304 -10.877  0.00  0.00     0.053 C 
BRANCH  17  18
HETATM   18  C           1     -34.150  -5.619 -10.826  0.00  0.00     0.076 C 
BRANCH  18  19
HETATM   19  S           1     -35.022  -6.789  -9.748  0.00  0.00    -0.173 SA
HETATM   20  C           1     -34.054  -8.251 -10.217  0.00  0.00     0.089 C 
ENDBRANCH  18  19
ENDBRANCH  17  18
ENDBRANCH  16  17
BRANCH  16  21
HETATM   21  N           1     -33.930  -2.130 -10.251  0.00  0.00    -0.066 N 
HETATM   22  H           1     -33.834  -1.190 -10.695  0.00  0.00     0.275 HD
HETATM   23  H           1     -34.811  -2.162  -9.690  0.00  0.00     0.275 HD
HETATM   24  H           1     -33.111  -2.305  -9.626  0.00  0.00     0.275 HD
ENDBRANCH  16  21
ENDBRANCH   4  16
TORSDOF 11
ENDMDL
MODEL 5
REMARK VINA RESULT:      -5.3     10.213     11.771
REMARK  11 active torsions:
REMARK  status: ('A' for Active; 'I' for Inactive)
REMARK    1  A    between atoms: C_1  and  C_14 
REMARK    2  A    between atoms: C_1  and  C_24 
REMARK    3  A    between atoms: C_2  and  C_19 
REMARK    4  A    between atoms: N_6  and  C_14 
REMARK    5  A    between atoms: N_10  and  C_15 
REMARK    6  A    between atoms: C_12  and  C_16 
REMARK    7  A    between atoms: C_12  and  C_19 
REMARK    8  A    between atoms: N_13  and  C_19 
REMARK       I    between atoms: N_13  and  C_18 
REMARK    9  A    between atoms: C_14  and  C_18 
REMARK   10  A    between atoms: C_15  and  C_16 
REMARK   11  A    between atoms: S_23  and  C_24 
ROOT
HETATM    1  O           1     -27.557  -5.871 -19.645  0.00  0.00    -0.271 OA
HETATM    2  H           1     -26.306  -7.143 -17.065  0.00  0.00     0.163 HD
HETATM    3  N           1     -27.012  -6.719 -17.653  0.00  0.00    -0.345 N 
HETATM    4  C           1     -26.714  -6.378 -18.944  0.00  0.00     0.249 C 
ENDROOT
BRANCH   3   5
HETATM    5  C           1     -28.340  -6.471 -17.126  0.00  0.00     0.185 C 
BRANCH   5   6
HETATM    6  C           1     -28.297  -6.513 -15.618  0.00  0.00     0.196 C 
HETATM    7  O           1     -27.921  -7.551 -15.032  0.00  0.00    -0.646 OA
HETATM    8  O           1     -28.637  -5.509 -14.955  0.00  0.00    -0.646 OA
ENDBRANCH   5   6
BRANCH   5   9
HETATM    9  C           1     -29.295  -7.542 -17.637  0.00  0.00     0.038 C 
BRANCH   9  10
HETATM   10  C           1     -30.732  -7.096 -17.397  0.00  0.00     0.030 C 
BRANCH  10  11
HETATM   11  C           1     -30.822  -5.581 -17.521  0.00  0.00     0.230 C 
BRANCH  11  12
HETATM   12  N           1     -31.808  -5.055 -16.520  0.00  0.00    -0.079 N 
HETATM   13  H           1     -32.586  -4.569 -17.019  0.00  0.00     0.274 HD
HETATM   14  H           1     -32.195  -5.851 -15.961  0.00  0.00     0.274 HD
HETATM   15  H           1     -31.330  -4.381 -15.880  0.00  0.00     0.274 HD
ENDBRANCH  11  12
ENDBRANCH  10  11
ENDBRANCH   9  10
ENDBRANCH   5   9
ENDBRANCH   3   5
BRANCH   4  16
HETATM   16  C           1     -25.331  -6.636 -19.492  0.00  0.00     0.275 C 
BRANCH  16  17
HETATM   17  C           1     -25.435  -7.480 -20.756  0.00  0.00     0.053 C 
BRANCH  17  18
HETATM   18  C           1     -24.108  -8.184 -21.007  0.00  0.00     0.076 C 
BRANCH  18  19
HETATM   19  S           1     -23.617  -7.955 -22.738  0.00  0.00    -0.173 SA
HETATM   20  C           1     -22.107  -8.959 -22.652  0.00  0.00     0.089 C 
ENDBRANCH  18  19
ENDBRANCH  17  18
ENDBRANCH  16  17
BRANCH  16  21
HETATM   21  N           1     -24.516  -7.369 -18.468  0.00  0.00    -0.066 N 
HETATM   22  H           1     -23.621  -7.691 -18.899  0.00  0.00     0.275 HD
HETATM   23  H           1     -24.308  -6.730 -17.668  0.00  0.00     0.275 HD
HETATM   24  H           1     -25.054  -8.197 -18.124  0.00  0.00     0.275 HD
ENDBRANCH  16  21
ENDBRANCH   4  16
TORSDOF 11
ENDMDL
MODEL 6
REMARK VINA RESULT:      -5.1     13.955     16.878
REMARK  11 active torsions:
REMARK  status: ('A' for Active; 'I' for Inactive)
REMARK    1  A    between atoms: C_1  and  C_14 
REMARK    2  A    between atoms: C_1  and  C_24 
REMARK    3  A    between atoms: C_2  and  C_19 
REMARK    4  A    between atoms: N_6  and  C_14 
REMARK    5  A    between atoms: N_10  and  C_15 
REMARK    6  A    between atoms: C_12  and  C_16 
REMARK    7  A    between atoms: C_12  and  C_19 
REMARK    8  A    between atoms: N_13  and  C_19 
REMARK       I    between atoms: N_13  and  C_18 
REMARK    9  A    between atoms: C_14  and  C_18 
REMARK   10  A    between atoms: C_15  and  C_16 
REMARK   11  A    between atoms: S_23  and  C_24 
ROOT
HETATM    1  O           1     -19.544  -4.560  -5.851  0.00  0.00    -0.271 OA
HETATM    2  H           1     -22.471  -5.680  -6.002  0.00  0.00     0.163 HD
HETATM    3  N           1     -21.523  -5.578  -5.663  0.00  0.00    -0.345 N 
HETATM    4  C           1     -20.676  -4.680  -6.255  0.00  0.00     0.249 C 
ENDROOT
BRANCH   3   5
HETATM    5  C           1     -21.060  -6.385  -4.550  0.00  0.00     0.185 C 
BRANCH   5   6
HETATM    6  C           1     -20.587  -7.723  -5.062  0.00  0.00     0.196 C 
HETATM    7  O           1     -19.633  -8.304  -4.502  0.00  0.00    -0.646 OA
HETATM    8  O           1     -21.151  -8.251  -6.045  0.00  0.00    -0.646 OA
ENDBRANCH   5   6
BRANCH   5   9
HETATM    9  C           1     -22.204  -6.592  -3.566  0.00  0.00     0.038 C 
BRANCH   9  10
HETATM   10  C           1     -21.813  -6.028  -2.207  0.00  0.00     0.030 C 
BRANCH  10  11
HETATM   11  C           1     -22.146  -7.042  -1.120  0.00  0.00     0.230 C 
BRANCH  11  12
HETATM   12  N           1     -21.074  -8.089  -1.066  0.00  0.00    -0.079 N 
HETATM   13  H           1     -21.084  -8.549  -0.129  0.00  0.00     0.274 HD
HETATM   14  H           1     -21.248  -8.804  -1.809  0.00  0.00     0.274 HD
HETATM   15  H           1     -20.142  -7.642  -1.224  0.00  0.00     0.274 HD
ENDBRANCH  11  12
ENDBRANCH  10  11
ENDBRANCH   9  10
ENDBRANCH   5   9
ENDBRANCH   3   5
BRANCH   4  16
HETATM   16  C           1     -21.157  -3.841  -7.414  0.00  0.00     0.275 C 
BRANCH  16  17
HETATM   17  C           1     -22.582  -4.243  -7.776  0.00  0.00     0.053 C 
BRANCH  17  18
HETATM   18  C           1     -22.769  -4.148  -9.284  0.00  0.00     0.076 C 
BRANCH  18  19
HETATM   19  S           1     -24.418  -3.487  -9.650  0.00  0.00    -0.173 SA
HETATM   20  C           1     -24.149  -3.256 -11.430  0.00  0.00     0.089 C 
ENDBRANCH  18  19
ENDBRANCH  17  18
ENDBRANCH  16  17
BRANCH  16  21
HETATM   21  N           1     -20.262  -4.062  -8.597  0.00  0.00    -0.066 N 
HETATM   22  H           1     -19.613  -3.249  -8.700  0.00  0.00     0.275 HD
HETATM   23  H           1     -19.706  -4.935  -8.453  0.00  0.00     0.275 HD
HETATM   24  H           1     -20.843  -4.156  -9.460  0.00  0.00     0.275 HD
ENDBRANCH  16  21
ENDBRANCH   4  16
TORSDOF 11
ENDMDL
MODEL 7
REMARK VINA RESULT:      -5.0     13.657     15.784
REMARK  11 active torsions:
REMARK  status: ('A' for Active; 'I' for Inactive)
REMARK    1  A    between atoms: C_1  and  C_14 
REMARK    2  A    between atoms: C_1  and  C_24 
REMARK    3  A    between atoms: C_2  and  C_19 
REMARK    4  A    between atoms: N_6  and  C_14 
REMARK    5  A    between atoms: N_10  and  C_15 
REMARK    6  A    between atoms: C_12  and  C_16 
REMARK    7  A    between atoms: C_12  and  C_19 
REMARK    8  A    between atoms: N_13  and  C_19 
REMARK       I    between atoms: N_13  and  C_18 
REMARK    9  A    between atoms: C_14  and  C_18 
REMARK   10  A    between atoms: C_15  and  C_16 
REMARK   11  A    between atoms: S_23  and  C_24 
ROOT
HETATM    1  O           1     -21.229  -7.504  -6.387  0.00  0.00    -0.271 OA
HETATM    2  H           1     -21.300  -4.437  -5.731  0.00  0.00     0.163 HD
HETATM    3  N           1     -21.309  -5.274  -6.299  0.00  0.00    -0.345 N 
HETATM    4  C           1     -21.219  -6.505  -5.708  0.00  0.00     0.249 C 
ENDROOT
BRANCH   3   5
HETATM    5  C           1     -21.418  -5.170  -7.742  0.00  0.00     0.185 C 
BRANCH   5   6
HETATM    6  C           1     -20.075  -4.799  -8.321  0.00  0.00     0.196 C 
HETATM    7  O           1     -19.888  -4.862  -9.555  0.00  0.00    -0.646 OA
HETATM    8  O           1     -19.150  -4.427  -7.566  0.00  0.00    -0.646 OA
ENDBRANCH   5   6
BRANCH   5   9
HETATM    9  C           1     -22.438  -4.096  -8.096  0.00  0.00     0.038 C 
BRANCH   9  10
HETATM   10  C           1     -23.235  -4.536  -9.317  0.00  0.00     0.030 C 
BRANCH  10  11
HETATM   11  C           1     -24.069  -3.369  -9.829  0.00  0.00     0.230 C 
BRANCH  11  12
HETATM   12  N           1     -25.525  -3.670  -9.630  0.00  0.00    -0.079 N 
HETATM   13  H           1     -25.833  -3.302  -8.702  0.00  0.00     0.274 HD
HETATM   14  H           1     -26.082  -3.214 -10.388  0.00  0.00     0.274 HD
HETATM   15  H           1     -25.675  -4.704  -9.661  0.00  0.00     0.274 HD
ENDBRANCH  11  12
ENDBRANCH  10  11
ENDBRANCH   9  10
ENDBRANCH   5   9
ENDBRANCH   3   5
BRANCH   4  16
HETATM   16  C           1     -21.105  -6.613  -4.207  0.00  0.00     0.275 C 
BRANCH  16  17
HETATM   17  C           1     -20.912  -8.073  -3.815  0.00  0.00     0.053 C 
BRANCH  17  18
HETATM   18  C           1     -20.486  -8.156  -2.356  0.00  0.00     0.076 C 
BRANCH  18  19
HETATM   19  S           1     -21.724  -9.089  -1.414  0.00  0.00    -0.173 SA
HETATM   20  C           1     -22.266  -7.706  -0.371  0.00  0.00     0.089 C 
ENDBRANCH  18  19
ENDBRANCH  17  18
ENDBRANCH  16  17
BRANCH  16  21
HETATM   21  N           1     -22.359  -6.089  -3.572  0.00  0.00    -0.066 N 
HETATM   22  H           1     -22.739  -6.801  -2.907  0.00  0.00     0.275 HD
HETATM   23  H           1     -22.143  -5.208  -3.053  0.00  0.00     0.275 HD
HETATM   24  H           1     -23.069  -5.893  -4.314  0.00  0.00     0.275 HD
ENDBRANCH  16  21
ENDBRANCH   4  16
TORSDOF 11
ENDMDL
MODEL 8
REMARK VINA RESULT:      -5.0     10.923     12.750
REMARK  11 active torsions:
REMARK  status: ('A' for Active; 'I' for Inactive)
REMARK    1  A    between atoms: C_1  and  C_14 
REMARK    2  A    between atoms: C_1  and  C_24 
REMARK    3  A    between atoms: C_2  and  C_19 
REMARK    4  A    between atoms: N_6  and  C_14 
REMARK    5  A    between atoms: N_10  and  C_15 
REMARK    6  A    between atoms: C_12  and  C_16 
REMARK    7  A    between atoms: C_12  and  C_19 
REMARK    8  A    between atoms: N_13  and  C_19 
REMARK       I    between atoms: N_13  and  C_18 
REMARK    9  A    between atoms: C_14  and  C_18 
REMARK   10  A    between atoms: C_15  and  C_16 
REMARK   11  A    between atoms: S_23  and  C_24 
ROOT
HETATM    1  O           1     -27.615  -5.727 -19.275  0.00  0.00    -0.271 OA
HETATM    2  H           1     -25.113  -7.275 -18.185  0.00  0.00     0.163 HD
HETATM    3  N           1     -25.971  -6.738 -18.152  0.00  0.00    -0.345 N 
HETATM    4  C           1     -26.592  -6.368 -19.314  0.00  0.00     0.249 C 
ENDROOT
BRANCH   3   5
HETATM    5  C           1     -26.541  -6.361 -16.874  0.00  0.00     0.185 C 
BRANCH   5   6
HETATM    6  C           1     -25.475  -6.432 -15.808  0.00  0.00     0.196 C 
HETATM    7  O           1     -24.970  -5.380 -15.359  0.00  0.00    -0.646 OA
HETATM    8  O           1     -25.099  -7.542 -15.374  0.00  0.00    -0.646 OA
ENDBRANCH   5   6
BRANCH   5   9
HETATM    9  C           1     -27.675  -7.316 -16.523  0.00  0.00     0.038 C 
BRANCH   9  10
HETATM   10  C           1     -28.949  -6.521 -16.274  0.00  0.00     0.030 C 
BRANCH  10  11
HETATM   11  C           1     -30.012  -6.933 -17.284  0.00  0.00     0.230 C 
BRANCH  11  12
HETATM   12  N           1     -29.531  -8.125 -18.058  0.00  0.00    -0.079 N 
HETATM   13  H           1     -29.844  -8.045 -19.051  0.00  0.00     0.274 HD
HETATM   14  H           1     -28.487  -8.165 -18.022  0.00  0.00     0.274 HD
HETATM   15  H           1     -29.927  -8.996 -17.638  0.00  0.00     0.274 HD
ENDBRANCH  11  12
ENDBRANCH  10  11
ENDBRANCH   9  10
ENDBRANCH   5   9
ENDBRANCH   3   5
BRANCH   4  16
HETATM   16  C           1     -25.998  -6.760 -20.645  0.00  0.00     0.275 C 
BRANCH  16  17
HETATM   17  C           1     -24.983  -7.878 -20.439  0.00  0.00     0.053 C 
BRANCH  17  18
HETATM   18  C           1     -24.231  -8.127 -21.739  0.00  0.00     0.076 C 
BRANCH  18  19
HETATM   19  S           1     -22.491  -8.492 -21.374  0.00  0.00    -0.173 SA
HETATM   20  C           1     -22.156  -9.416 -22.899  0.00  0.00     0.089 C 
ENDBRANCH  18  19
ENDBRANCH  17  18
ENDBRANCH  16  17
BRANCH  16  21
HETATM   21  N           1     -25.314  -5.573 -21.257  0.00  0.00    -0.066 N 
HETATM   22  H           1     -25.653  -4.699 -20.796  0.00  0.00     0.275 HD
HETATM   23  H           1     -24.282  -5.660 -21.123  0.00  0.00     0.275 HD
HETATM   24  H           1     -25.532  -5.535 -22.279  0.00  0.00     0.275 HD
ENDBRANCH  16  21
ENDBRANCH   4  16
TORSDOF 11
ENDMDL
MODEL 9
REMARK VINA RESULT:      -4.9     14.379     17.343
REMARK  11 active torsions:
REMARK  status: ('A' for Active; 'I' for Inactive)
REMARK    1  A    between atoms: C_1  and  C_14 
REMARK    2  A    between atoms: C_1  and  C_24 
REMARK    3  A    between atoms: C_2  and  C_19 
REMARK    4  A    between atoms: N_6  and  C_14 
REMARK    5  A    between atoms: N_10  and  C_15 
REMARK    6  A    between atoms: C_12  and  C_16 
REMARK    7  A    between atoms: C_12  and  C_19 
REMARK    8  A    between atoms: N_13  and  C_19 
REMARK       I    between atoms: N_13  and  C_18 
REMARK    9  A    between atoms: C_14  and  C_18 
REMARK   10  A    between atoms: C_15  and  C_16 
REMARK   11  A    between atoms: S_23  and  C_24 
ROOT
HETATM    1  O           1     -22.655  -5.561  -5.782  0.00  0.00    -0.271 OA
HETATM    2  H           1     -19.806  -6.516  -4.879  0.00  0.00     0.163 HD
HETATM    3  N           1     -20.817  -6.483  -4.910  0.00  0.00    -0.345 N 
HETATM    4  C           1     -21.448  -5.600  -5.745  0.00  0.00     0.249 C 
ENDROOT
BRANCH   3   5
HETATM    5  C           1     -21.598  -7.372  -4.071  0.00  0.00     0.185 C 
BRANCH   5   6
HETATM    6  C           1     -21.617  -6.841  -2.659  0.00  0.00     0.196 C 
HETATM    7  O           1     -22.407  -5.923  -2.348  0.00  0.00    -0.646 OA
HETATM    8  O           1     -20.845  -7.319  -1.801  0.00  0.00    -0.646 OA
ENDBRANCH   5   6
BRANCH   5   9
HETATM    9  C           1     -20.972  -8.760  -4.084  0.00  0.00     0.038 C 
BRANCH   9  10
HETATM   10  C           1     -19.658  -8.718  -4.853  0.00  0.00     0.030 C 
BRANCH  10  11
HETATM   11  C           1     -18.542  -9.283  -3.985  0.00  0.00     0.230 C 
BRANCH  11  12
HETATM   12  N           1     -19.081  -9.604  -2.623  0.00  0.00    -0.079 N 
HETATM   13  H           1     -18.361 -10.130  -2.079  0.00  0.00     0.274 HD
HETATM   14  H           1     -19.315  -8.715  -2.123  0.00  0.00     0.274 HD
HETATM   15  H           1     -19.942 -10.188  -2.717  0.00  0.00     0.274 HD
ENDBRANCH  11  12
ENDBRANCH  10  11
ENDBRANCH   9  10
ENDBRANCH   5   9
ENDBRANCH   3   5
BRANCH   4  16
HETATM   16  C           1     -20.635  -4.675  -6.617  0.00  0.00     0.275 C 
BRANCH  16  17
HETATM   17  C           1     -21.563  -3.692  -7.319  0.00  0.00     0.053 C 
BRANCH  17  18
HETATM   18  C           1     -21.853  -4.186  -8.730  0.00  0.00     0.076 C 
BRANCH  18  19
HETATM   19  S           1     -23.614  -3.954  -9.104  0.00  0.00    -0.173 SA
HETATM   20  C           1     -23.606  -4.866 -10.673  0.00  0.00     0.089 C 
ENDBRANCH  18  19
ENDBRANCH  17  18
ENDBRANCH  16  17
BRANCH  16  21
HETATM   21  N           1     -19.893  -5.480  -7.643  0.00  0.00    -0.066 N 
HETATM   22  H           1     -19.556  -6.370  -7.213  0.00  0.00     0.275 HD
HETATM   23  H           1     -20.531  -5.698  -8.441  0.00  0.00     0.275 HD
HETATM   24  H           1     -19.074  -4.930  -7.991  0.00  0.00     0.275 HD
ENDBRANCH  16  21
ENDBRANCH   4  16
TORSDOF 11
ENDMDL
