MODEL 1
REMARK VINA RESULT:      -7.5      0.000      0.000
REMARK  9 active torsions:
REMARK  status: ('A' for Active; 'I' for Inactive)
REMARK    1  A    between atoms: N_2  and  C_25 
REMARK       I    between atoms: N_2  and  C_10 
REMARK       I    between atoms: N_4  and  C_16 
REMARK    2  A    between atoms: N_6  and  C_11 
REMARK    3  A    between atoms: C_10  and  C_11 
REMARK    4  A    between atoms: C_11  and  C_18 
REMARK    5  A    between atoms: C_16  and  C_17 
REMARK    6  A    between atoms: C_17  and  C_18 
REMARK    7  A    between atoms: C_23  and  C_25 
REMARK    8  A    between atoms: C_25  and  C_26 
REMARK    9  A    between atoms: C_26  and  C_27 
ROOT
HETATM    1  H           1     -36.342  -1.735  -9.278  0.00  0.00     0.163 HD
HETATM    2  N           1     -35.833  -1.351 -10.063  0.00  0.00    -0.344 N 
HETATM    3  O           1     -33.627  -1.708 -10.079  0.00  0.00    -0.271 OA
HETATM    4  C           1     -34.713  -1.986 -10.531  0.00  0.00     0.249 C 
ENDROOT
BRANCH   4   5
HETATM    5  C           1     -34.835  -3.034 -11.609  0.00  0.00     0.275 C 
BRANCH   5   6
HETATM    6  N           1     -33.481  -3.315 -12.187  0.00  0.00    -0.066 N 
HETATM    7  H           1     -32.759  -2.763 -11.671  0.00  0.00     0.275 HD
HETATM    8  H           1     -33.269  -4.334 -12.097  0.00  0.00     0.275 HD
HETATM    9  H           1     -33.470  -3.044 -13.197  0.00  0.00     0.275 HD
ENDBRANCH   5   6
BRANCH   5  10
HETATM   10  C           1     -35.408  -4.313 -11.013  0.00  0.00     0.052 C 
BRANCH  10  11
HETATM   11  C           1     -34.276  -5.168 -10.462  0.00  0.00     0.105 C 
BRANCH  11  12
HETATM   12  C           1     -34.717  -6.610 -10.404  0.00  0.00     0.215 C 
HETATM   13  N           1     -35.031  -7.277 -11.557  0.00  0.00    -0.370 N 
HETATM   14  H           1     -35.327  -8.245 -11.517  0.00  0.00     0.159 HD
HETATM   15  H           1     -34.969  -6.803 -12.449  0.00  0.00     0.159 HD
HETATM   16  O           1     -34.791  -7.177  -9.339  0.00  0.00    -0.274 OA
ENDBRANCH  11  12
ENDBRANCH  10  11
ENDBRANCH   5  10
ENDBRANCH   4   5
BRANCH   2  17
HETATM   17  C           1     -36.287  -0.126 -10.694  0.00  0.00     0.189 C 
BRANCH  17  18
HETATM   18  C           1     -36.960   0.749  -9.664  0.00  0.00     0.197 C 
HETATM   19  O           1     -38.075   1.257  -9.910  0.00  0.00    -0.646 OA
HETATM   20  O           1     -36.402   0.964  -8.566  0.00  0.00    -0.646 OA
ENDBRANCH  17  18
BRANCH  17  21
HETATM   21  C           1     -37.279  -0.464 -11.799  0.00  0.00     0.074 C 
BRANCH  21  22
HETATM   22  C           1     -36.721  -0.031 -13.120  0.00  0.00    -0.056 A 
HETATM   23  C           1     -35.411   0.439 -13.204  0.00  0.00     0.007 A 
HETATM   24  C           1     -34.892   0.843 -14.434  0.00  0.00     0.001 A 
HETATM   25  C           1     -35.683   0.776 -15.580  0.00  0.00     0.000 A 
HETATM   26  C           1     -36.994   0.306 -15.497  0.00  0.00     0.001 A 
HETATM   27  C           1     -37.513  -0.098 -14.267  0.00  0.00     0.007 A 
ENDBRANCH  21  22
ENDBRANCH  17  21
ENDBRANCH   2  17
TORSDOF 9
ENDMDL
MODEL 2
REMARK VINA RESULT:      -7.2      1.767      2.346
REMARK  9 active torsions:
REMARK  status: ('A' for Active; 'I' for Inactive)
REMARK    1  A    between atoms: N_2  and  C_25 
REMARK       I    between atoms: N_2  and  C_10 
REMARK       I    between atoms: N_4  and  C_16 
REMARK    2  A    between atoms: N_6  and  C_11 
REMARK    3  A    between atoms: C_10  and  C_11 
REMARK    4  A    between atoms: C_11  and  C_18 
REMARK    5  A    between atoms: C_16  and  C_17 
REMARK    6  A    between atoms: C_17  and  C_18 
REMARK    7  A    between atoms: C_23  and  C_25 
REMARK    8  A    between atoms: C_25  and  C_26 
REMARK    9  A    between atoms: C_26  and  C_27 
ROOT
HETATM    1  H           1     -33.599  -2.669  -9.651  0.00  0.00     0.163 HD
HETATM    2  N           1     -33.915  -2.779 -10.606  0.00  0.00    -0.344 N 
HETATM    3  O           1     -32.638  -4.046 -11.930  0.00  0.00    -0.271 OA
HETATM    4  C           1     -33.655  -3.939 -11.285  0.00  0.00     0.249 C 
ENDROOT
BRANCH   4   5
HETATM    5  C           1     -34.637  -5.083 -11.229  0.00  0.00     0.275 C 
BRANCH   5   6
HETATM    6  N           1     -34.799  -5.669 -12.599  0.00  0.00    -0.066 N 
HETATM    7  H           1     -34.756  -4.907 -13.313  0.00  0.00     0.275 HD
HETATM    8  H           1     -34.032  -6.355 -12.777  0.00  0.00     0.275 HD
HETATM    9  H           1     -35.723  -6.153 -12.663  0.00  0.00     0.275 HD
ENDBRANCH   5   6
BRANCH   5  10
HETATM   10  C           1     -34.117  -6.153 -10.278  0.00  0.00     0.052 C 
BRANCH  10  11
HETATM   11  C           1     -34.823  -7.471 -10.562  0.00  0.00     0.105 C 
BRANCH  11  12
HETATM   12  C           1     -34.115  -8.588  -9.835  0.00  0.00     0.215 C 
HETATM   13  N           1     -33.417  -9.530 -10.541  0.00  0.00    -0.370 N 
HETATM   14  H           1     -32.942 -10.280 -10.053  0.00  0.00     0.159 HD
HETATM   15  H           1     -33.377  -9.479 -11.551  0.00  0.00     0.159 HD
HETATM   16  O           1     -34.163  -8.651  -8.629  0.00  0.00    -0.274 OA
ENDBRANCH  11  12
ENDBRANCH  10  11
ENDBRANCH   5  10
ENDBRANCH   4   5
BRANCH   2  17
HETATM   17  C           1     -34.644  -1.707 -11.256  0.00  0.00     0.189 C 
BRANCH  17  18
HETATM   18  C           1     -35.928  -1.446 -10.506  0.00  0.00     0.197 C 
HETATM   19  O           1     -35.943  -0.633  -9.556  0.00  0.00    -0.646 OA
HETATM   20  O           1     -36.976  -2.043 -10.835  0.00  0.00    -0.646 OA
ENDBRANCH  17  18
BRANCH  17  21
HETATM   21  C           1     -34.967  -2.110 -12.689  0.00  0.00     0.074 C 
BRANCH  21  22
HETATM   22  C           1     -35.107  -0.881 -13.534  0.00  0.00    -0.056 A 
HETATM   23  C           1     -34.610   0.340 -13.078  0.00  0.00     0.007 A 
HETATM   24  C           1     -34.740   1.484 -13.865  0.00  0.00     0.001 A 
HETATM   25  C           1     -35.367   1.406 -15.108  0.00  0.00     0.000 A 
HETATM   26  C           1     -35.865   0.186 -15.565  0.00  0.00     0.001 A 
HETATM   27  C           1     -35.734  -0.958 -14.778  0.00  0.00     0.007 A 
ENDBRANCH  21  22
ENDBRANCH  17  21
ENDBRANCH   2  17
TORSDOF 9
ENDMDL
MODEL 3
REMARK VINA RESULT:      -6.7     15.192     18.305
REMARK  9 active torsions:
REMARK  status: ('A' for Active; 'I' for Inactive)
REMARK    1  A    between atoms: N_2  and  C_25 
REMARK       I    between atoms: N_2  and  C_10 
REMARK       I    between atoms: N_4  and  C_16 
REMARK    2  A    between atoms: N_6  and  C_11 
REMARK    3  A    between atoms: C_10  and  C_11 
REMARK    4  A    between atoms: C_11  and  C_18 
REMARK    5  A    between atoms: C_16  and  C_17 
REMARK    6  A    between atoms: C_17  and  C_18 
REMARK    7  A    between atoms: C_23  and  C_25 
REMARK    8  A    between atoms: C_25  and  C_26 
REMARK    9  A    between atoms: C_26  and  C_27 
ROOT
HETATM    1  H           1     -21.594  -8.490  -6.138  0.00  0.00     0.163 HD
HETATM    2  N           1     -20.864  -7.958  -5.680  0.00  0.00    -0.344 N 
HETATM    3  O           1     -19.597  -6.678  -7.001  0.00  0.00    -0.271 OA
HETATM    4  C           1     -20.483  -6.743  -6.182  0.00  0.00     0.249 C 
ENDROOT
BRANCH   4   5
HETATM    5  C           1     -21.170  -5.484  -5.713  0.00  0.00     0.275 C 
BRANCH   5   6
HETATM    6  N           1     -20.141  -4.433  -5.420  0.00  0.00    -0.066 N 
HETATM    7  H           1     -19.848  -3.974  -6.312  0.00  0.00     0.275 HD
HETATM    8  H           1     -20.549  -3.716  -4.778  0.00  0.00     0.275 HD
HETATM    9  H           1     -19.311  -4.876  -4.966  0.00  0.00     0.275 HD
ENDBRANCH   5   6
BRANCH   5  10
HETATM   10  C           1     -22.112  -4.983  -6.800  0.00  0.00     0.052 C 
BRANCH  10  11
HETATM   11  C           1     -21.506  -3.759  -7.472  0.00  0.00     0.105 C 
BRANCH  11  12
HETATM   12  C           1     -21.220  -4.069  -8.921  0.00  0.00     0.215 C 
HETATM   13  N           1     -20.063  -4.713  -9.269  0.00  0.00    -0.370 N 
HETATM   14  H           1     -19.872  -4.921 -10.241  0.00  0.00     0.159 HD
HETATM   15  H           1     -19.398  -4.979  -8.554  0.00  0.00     0.159 HD
HETATM   16  O           1     -22.014  -3.751  -9.775  0.00  0.00    -0.274 OA
ENDBRANCH  11  12
ENDBRANCH  10  11
ENDBRANCH   5  10
ENDBRANCH   4   5
BRANCH   2  17
HETATM   17  C           1     -20.221  -8.485  -4.491  0.00  0.00     0.189 C 
BRANCH  17  18
HETATM   18  C           1     -19.007  -9.288  -4.891  0.00  0.00     0.197 C 
HETATM   19  O           1     -19.002  -9.916  -5.971  0.00  0.00    -0.646 OA
HETATM   20  O           1     -18.007  -9.323  -4.142  0.00  0.00    -0.646 OA
ENDBRANCH  17  18
BRANCH  17  21
HETATM   21  C           1     -21.199  -9.382  -3.742  0.00  0.00     0.074 C 
BRANCH  21  22
HETATM   22  C           1     -21.661  -8.688  -2.499  0.00  0.00    -0.056 A 
HETATM   23  C           1     -22.041  -9.434  -1.383  0.00  0.00     0.007 A 
HETATM   24  C           1     -22.472  -8.788  -0.225  0.00  0.00     0.001 A 
HETATM   25  C           1     -22.522  -7.395  -0.183  0.00  0.00     0.000 A 
HETATM   26  C           1     -22.142  -6.648  -1.298  0.00  0.00     0.001 A 
HETATM   27  C           1     -21.712  -7.294  -2.456  0.00  0.00     0.007 A 
ENDBRANCH  21  22
ENDBRANCH  17  21
ENDBRANCH   2  17
TORSDOF 9
ENDMDL
MODEL 4
REMARK VINA RESULT:      -6.5      2.233      3.946
REMARK  9 active torsions:
REMARK  status: ('A' for Active; 'I' for Inactive)
REMARK    1  A    between atoms: N_2  and  C_25 
REMARK       I    between atoms: N_2  and  C_10 
REMARK       I    between atoms: N_4  and  C_16 
REMARK    2  A    between atoms: N_6  and  C_11 
REMARK    3  A    between atoms: C_10  and  C_11 
REMARK    4  A    between atoms: C_11  and  C_18 
REMARK    5  A    between atoms: C_16  and  C_17 
REMARK    6  A    between atoms: C_17  and  C_18 
REMARK    7  A    between atoms: C_23  and  C_25 
REMARK    8  A    between atoms: C_25  and  C_26 
REMARK    9  A    between atoms: C_26  and  C_27 
ROOT
HETATM    1  H           1     -34.050  -0.525 -13.118  0.00  0.00     0.163 HD
HETATM    2  N           1     -34.712  -1.190 -12.739  0.00  0.00    -0.344 N 
HETATM    3  O           1     -34.590  -3.271 -13.541  0.00  0.00    -0.271 OA
HETATM    4  C           1     -34.370  -2.511 -12.628  0.00  0.00     0.249 C 
ENDROOT
BRANCH   4   5
HETATM    5  C           1     -33.717  -3.018 -11.366  0.00  0.00     0.275 C 
BRANCH   5   6
HETATM    6  N           1     -33.660  -1.912 -10.355  0.00  0.00    -0.066 N 
HETATM    7  H           1     -32.666  -1.620 -10.213  0.00  0.00     0.275 HD
HETATM    8  H           1     -34.215  -1.097 -10.699  0.00  0.00     0.275 HD
HETATM    9  H           1     -34.057  -2.248  -9.448  0.00  0.00     0.275 HD
ENDBRANCH   5   6
BRANCH   5  10
HETATM   10  C           1     -34.529  -4.177 -10.803  0.00  0.00     0.052 C 
BRANCH  10  11
HETATM   11  C           1     -33.714  -5.461 -10.897  0.00  0.00     0.105 C 
BRANCH  11  12
HETATM   12  C           1     -34.588  -6.639 -10.543  0.00  0.00     0.215 C 
HETATM   13  N           1     -35.116  -7.422 -11.533  0.00  0.00    -0.370 N 
HETATM   14  H           1     -35.703  -8.213 -11.295  0.00  0.00     0.159 HD
HETATM   15  H           1     -34.922  -7.211 -12.503  0.00  0.00     0.159 HD
HETATM   16  O           1     -34.821  -6.891  -9.384  0.00  0.00    -0.274 OA
ENDBRANCH  11  12
ENDBRANCH  10  11
ENDBRANCH   5  10
ENDBRANCH   4   5
BRANCH   2  17
HETATM   17  C           1     -36.025  -0.744 -12.315  0.00  0.00     0.189 C 
BRANCH  17  18
HETATM   18  C           1     -36.869  -0.440 -13.529  0.00  0.00     0.197 C 
HETATM   19  O           1     -36.368   0.161 -14.503  0.00  0.00    -0.646 OA
HETATM   20  O           1     -38.069  -0.790 -13.560  0.00  0.00    -0.646 OA
ENDBRANCH  17  18
BRANCH  17  21
HETATM   21  C           1     -35.883   0.514 -11.468  0.00  0.00     0.074 C 
BRANCH  21  22
HETATM   22  C           1     -36.648   0.347 -10.191  0.00  0.00    -0.056 A 
HETATM   23  C           1     -37.045   1.468  -9.463  0.00  0.00     0.007 A 
HETATM   24  C           1     -37.758   1.312  -8.275  0.00  0.00     0.001 A 
HETATM   25  C           1     -38.075   0.034  -7.816  0.00  0.00     0.000 A 
HETATM   26  C           1     -37.679  -1.088  -8.544  0.00  0.00     0.001 A 
HETATM   27  C           1     -36.966  -0.932  -9.732  0.00  0.00     0.007 A 
ENDBRANCH  21  22
ENDBRANCH  17  21
ENDBRANCH   2  17
TORSDOF 9
ENDMDL
MODEL 5
REMARK VINA RESULT:      -6.4     15.048     17.184
REMARK  9 active torsions:
REMARK  status: ('A' for Active; 'I' for Inactive)
REMARK    1  A    between atoms: N_2  and  C_25 
REMARK       I    between atoms: N_2  and  C_10 
REMARK       I    between atoms: N_4  and  C_16 
REMARK    2  A    between atoms: N_6  and  C_11 
REMARK    3  A    between atoms: C_10  and  C_11 
REMARK    4  A    between atoms: C_11  and  C_18 
REMARK    5  A    between atoms: C_16  and  C_17 
REMARK    6  A    between atoms: C_17  and  C_18 
REMARK    7  A    between atoms: C_23  and  C_25 
REMARK    8  A    between atoms: C_25  and  C_26 
REMARK    9  A    between atoms: C_26  and  C_27 
ROOT
HETATM    1  H           1     -23.556  -6.422  -4.036  0.00  0.00     0.163 HD
HETATM    2  N           1     -22.549  -6.502  -3.978  0.00  0.00    -0.344 N 
HETATM    3  O           1     -21.559  -5.332  -2.353  0.00  0.00    -0.271 OA
HETATM    4  C           1     -21.924  -6.408  -2.763  0.00  0.00     0.249 C 
ENDROOT
BRANCH   4   5
HETATM    5  C           1     -21.692  -7.648  -1.936  0.00  0.00     0.275 C 
BRANCH   5   6
HETATM    6  N           1     -20.218  -7.857  -1.752  0.00  0.00    -0.066 N 
HETATM    7  H           1     -19.696  -7.064  -2.189  0.00  0.00     0.275 HD
HETATM    8  H           1     -19.998  -7.897  -0.731  0.00  0.00     0.275 HD
HETATM    9  H           1     -19.935  -8.754  -2.207  0.00  0.00     0.275 HD
ENDBRANCH   5   6
BRANCH   5  10
HETATM   10  C           1     -22.355  -7.484  -0.575  0.00  0.00     0.052 C 
BRANCH  10  11
HETATM   11  C           1     -21.769  -8.495   0.401  0.00  0.00     0.105 C 
BRANCH  11  12
HETATM   12  C           1     -22.415  -9.840   0.181  0.00  0.00     0.215 C 
HETATM   13  N           1     -21.669 -10.983   0.286  0.00  0.00    -0.370 N 
HETATM   14  H           1     -22.103 -11.886   0.137  0.00  0.00     0.159 HD
HETATM   15  H           1     -20.684 -10.926   0.510  0.00  0.00     0.159 HD
HETATM   16  O           1     -23.591  -9.910  -0.087  0.00  0.00    -0.274 OA
ENDBRANCH  11  12
ENDBRANCH  10  11
ENDBRANCH   5  10
ENDBRANCH   4   5
BRANCH   2  17
HETATM   17  C           1     -21.767  -6.716  -5.180  0.00  0.00     0.189 C 
BRANCH  17  18
HETATM   18  C           1     -20.962  -7.985  -5.037  0.00  0.00     0.197 C 
HETATM   19  O           1     -21.538  -9.094  -5.052  0.00  0.00    -0.646 OA
HETATM   20  O           1     -19.721  -7.926  -4.903  0.00  0.00    -0.646 OA
ENDBRANCH  17  18
BRANCH  17  21
HETATM   21  C           1     -20.825  -5.537  -5.387  0.00  0.00     0.074 C 
BRANCH  21  22
HETATM   22  C           1     -20.962  -5.028  -6.789  0.00  0.00    -0.056 A 
HETATM   23  C           1     -19.895  -5.140  -7.680  0.00  0.00     0.007 A 
HETATM   24  C           1     -20.023  -4.665  -8.985  0.00  0.00     0.001 A 
HETATM   25  C           1     -21.219  -4.081  -9.399  0.00  0.00     0.000 A 
HETATM   26  C           1     -22.287  -3.969  -8.509  0.00  0.00     0.001 A 
HETATM   27  C           1     -22.159  -4.443  -7.204  0.00  0.00     0.007 A 
ENDBRANCH  21  22
ENDBRANCH  17  21
ENDBRANCH   2  17
TORSDOF 9
ENDMDL
MODEL 6
REMARK VINA RESULT:      -6.3     15.586     18.767
REMARK  9 active torsions:
REMARK  status: ('A' for Active; 'I' for Inactive)
REMARK    1  A    between atoms: N_2  and  C_25 
REMARK       I    between atoms: N_2  and  C_10 
REMARK       I    between atoms: N_4  and  C_16 
REMARK    2  A    between atoms: N_6  and  C_11 
REMARK    3  A    between atoms: C_10  and  C_11 
REMARK    4  A    between atoms: C_11  and  C_18 
REMARK    5  A    between atoms: C_16  and  C_17 
REMARK    6  A    between atoms: C_17  and  C_18 
REMARK    7  A    between atoms: C_23  and  C_25 
REMARK    8  A    between atoms: C_25  and  C_26 
REMARK    9  A    between atoms: C_26  and  C_27 
ROOT
HETATM    1  H           1     -20.856  -6.580  -2.540  0.00  0.00     0.163 HD
HETATM    2  N           1     -20.988  -7.153  -3.364  0.00  0.00    -0.344 N 
HETATM    3  O           1     -22.625  -6.528  -4.749  0.00  0.00    -0.271 OA
HETATM    4  C           1     -21.438  -6.587  -4.526  0.00  0.00     0.249 C 
ENDROOT
BRANCH   4   5
HETATM    5  C           1     -20.454  -6.038  -5.529  0.00  0.00     0.275 C 
BRANCH   5   6
HETATM    6  N           1     -20.464  -6.895  -6.760  0.00  0.00    -0.066 N 
HETATM    7  H           1     -20.602  -7.894  -6.488  0.00  0.00     0.275 HD
HETATM    8  H           1     -21.244  -6.595  -7.386  0.00  0.00     0.275 HD
HETATM    9  H           1     -19.553  -6.792  -7.262  0.00  0.00     0.275 HD
ENDBRANCH   5   6
BRANCH   5  10
HETATM   10  C           1     -20.847  -4.614  -5.899  0.00  0.00     0.052 C 
BRANCH  10  11
HETATM   11  C           1     -21.021  -4.511  -7.409  0.00  0.00     0.105 C 
BRANCH  11  12
HETATM   12  C           1     -22.445  -4.125  -7.726  0.00  0.00     0.215 C 
HETATM   13  N           1     -23.460  -4.505  -6.891  0.00  0.00    -0.370 N 
HETATM   14  H           1     -24.415  -4.246  -7.104  0.00  0.00     0.159 HD
HETATM   15  H           1     -23.256  -5.047  -6.060  0.00  0.00     0.159 HD
HETATM   16  O           1     -22.689  -3.478  -8.717  0.00  0.00    -0.274 OA
ENDBRANCH  11  12
ENDBRANCH  10  11
ENDBRANCH   5  10
ENDBRANCH   4   5
BRANCH   2  17
HETATM   17  C           1     -20.699  -8.573  -3.313  0.00  0.00     0.189 C 
BRANCH  17  18
HETATM   18  C           1     -21.793  -9.281  -2.552  0.00  0.00     0.197 C 
HETATM   19  O           1     -22.262 -10.355  -2.987  0.00  0.00    -0.646 OA
HETATM   20  O           1     -22.231  -8.793  -1.487  0.00  0.00    -0.646 OA
ENDBRANCH  17  18
BRANCH  17  21
HETATM   21  C           1     -19.366  -8.794  -2.609  0.00  0.00     0.074 C 
BRANCH  21  22
HETATM   22  C           1     -18.345  -9.250  -3.604  0.00  0.00    -0.056 A 
HETATM   23  C           1     -17.062  -9.595  -3.180  0.00  0.00     0.007 A 
HETATM   24  C           1     -16.111 -10.020  -4.107  0.00  0.00     0.001 A 
HETATM   25  C           1     -16.443 -10.100  -5.459  0.00  0.00     0.000 A 
HETATM   26  C           1     -17.726  -9.756  -5.884  0.00  0.00     0.001 A 
HETATM   27  C           1     -18.677  -9.331  -4.957  0.00  0.00     0.007 A 
ENDBRANCH  21  22
ENDBRANCH  17  21
ENDBRANCH   2  17
TORSDOF 9
ENDMDL
MODEL 7
REMARK VINA RESULT:      -6.3     25.526     27.170
REMARK  9 active torsions:
REMARK  status: ('A' for Active; 'I' for Inactive)
REMARK    1  A    between atoms: N_2  and  C_25 
REMARK       I    between atoms: N_2  and  C_10 
REMARK       I    between atoms: N_4  and  C_16 
REMARK    2  A    between atoms: N_6  and  C_11 
REMARK    3  A    between atoms: C_10  and  C_11 
REMARK    4  A    between atoms: C_11  and  C_18 
REMARK    5  A    between atoms: C_16  and  C_17 
REMARK    6  A    between atoms: C_17  and  C_18 
REMARK    7  A    between atoms: C_23  and  C_25 
REMARK    8  A    between atoms: C_25  and  C_26 
REMARK    9  A    between atoms: C_26  and  C_27 
ROOT
HETATM    1  H           1     -10.901   8.011 -21.987  0.00  0.00     0.163 HD
HETATM    2  N           1     -11.643   8.073 -21.301  0.00  0.00    -0.344 N 
HETATM    3  O           1     -13.653   7.352 -21.955  0.00  0.00    -0.271 OA
HETATM    4  C           1     -12.656   7.152 -21.303  0.00  0.00     0.249 C 
ENDROOT
BRANCH   4   5
HETATM    5  C           1     -12.526   5.887 -20.491  0.00  0.00     0.275 C 
BRANCH   5   6
HETATM    6  N           1     -13.829   5.146 -20.511  0.00  0.00    -0.066 N 
HETATM    7  H           1     -14.610   5.806 -20.295  0.00  0.00     0.275 HD
HETATM    8  H           1     -13.979   4.730 -21.459  0.00  0.00     0.275 HD
HETATM    9  H           1     -13.808   4.385 -19.795  0.00  0.00     0.275 HD
ENDBRANCH   5   6
BRANCH   5  10
HETATM   10  C           1     -11.434   5.010 -21.088  0.00  0.00     0.052 C 
BRANCH  10  11
HETATM   11  C           1     -10.593   4.413 -19.967  0.00  0.00     0.105 C 
BRANCH  11  12
HETATM   12  C           1      -9.647   5.460 -19.434  0.00  0.00     0.215 C 
HETATM   13  N           1      -9.599   5.720 -18.091  0.00  0.00    -0.370 N 
HETATM   14  H           1      -8.965   6.423 -17.733  0.00  0.00     0.159 HD
HETATM   15  H           1     -10.199   5.209 -17.455  0.00  0.00     0.159 HD
HETATM   16  O           1      -8.931   6.070 -20.193  0.00  0.00    -0.274 OA
ENDBRANCH  11  12
ENDBRANCH  10  11
ENDBRANCH   5  10
ENDBRANCH   4   5
BRANCH   2  17
HETATM   17  C           1     -11.633   9.138 -20.317  0.00  0.00     0.189 C 
BRANCH  17  18
HETATM   18  C           1     -10.269   9.219 -19.677  0.00  0.00     0.197 C 
HETATM   19  O           1      -9.298   9.659 -20.330  0.00  0.00    -0.646 OA
HETATM   20  O           1     -10.110   8.845 -18.495  0.00  0.00    -0.646 OA
ENDBRANCH  17  18
BRANCH  17  21
HETATM   21  C           1     -12.679   8.849 -19.248  0.00  0.00     0.074 C 
BRANCH  21  22
HETATM   22  C           1     -13.472  10.090 -18.976  0.00  0.00    -0.056 A 
HETATM   23  C           1     -14.204  10.206 -17.794  0.00  0.00     0.007 A 
HETATM   24  C           1     -14.941  11.362 -17.541  0.00  0.00     0.001 A 
HETATM   25  C           1     -14.947  12.402 -18.469  0.00  0.00     0.000 A 
HETATM   26  C           1     -14.215  12.288 -19.651  0.00  0.00     0.001 A 
HETATM   27  C           1     -13.477  11.132 -19.904  0.00  0.00     0.007 A 
ENDBRANCH  21  22
ENDBRANCH  17  21
ENDBRANCH   2  17
TORSDOF 9
ENDMDL
MODEL 8
REMARK VINA RESULT:      -6.3     17.531     20.957
REMARK  9 active torsions:
REMARK  status: ('A' for Active; 'I' for Inactive)
REMARK    1  A    between atoms: N_2  and  C_25 
REMARK       I    between atoms: N_2  and  C_10 
REMARK       I    between atoms: N_4  and  C_16 
REMARK    2  A    between atoms: N_6  and  C_11 
REMARK    3  A    between atoms: C_10  and  C_11 
REMARK    4  A    between atoms: C_11  and  C_18 
REMARK    5  A    between atoms: C_16  and  C_17 
REMARK    6  A    between atoms: C_17  and  C_18 
REMARK    7  A    between atoms: C_23  and  C_25 
REMARK    8  A    between atoms: C_25  and  C_26 
REMARK    9  A    between atoms: C_26  and  C_27 
ROOT
HETATM    1  H           1     -20.459 -11.858  -2.142  0.00  0.00     0.163 HD
HETATM    2  N           1     -19.636 -11.364  -1.822  0.00  0.00    -0.344 N 
HETATM    3  O           1     -17.893 -11.345  -3.219  0.00  0.00    -0.271 OA
HETATM    4  C           1     -18.817 -10.742  -2.725  0.00  0.00     0.249 C 
ENDROOT
BRANCH   4   5
HETATM    5  C           1     -19.067  -9.303  -3.105  0.00  0.00     0.275 C 
BRANCH   5   6
HETATM    6  N           1     -18.716  -9.099  -4.548  0.00  0.00    -0.066 N 
HETATM    7  H           1     -17.706  -9.325  -4.697  0.00  0.00     0.275 HD
HETATM    8  H           1     -19.303  -9.729  -5.141  0.00  0.00     0.275 HD
HETATM    9  H           1     -18.894  -8.104  -4.812  0.00  0.00     0.275 HD
ENDBRANCH   5   6
BRANCH   5  10
HETATM   10  C           1     -20.537  -8.969  -2.888  0.00  0.00     0.052 C 
BRANCH  10  11
HETATM   11  C           1     -20.652  -7.663  -2.113  0.00  0.00     0.105 C 
BRANCH  11  12
HETATM   12  C           1     -21.647  -6.758  -2.797  0.00  0.00     0.215 C 
HETATM   13  N           1     -22.321  -5.811  -2.075  0.00  0.00    -0.370 N 
HETATM   14  H           1     -22.989  -5.204  -2.533  0.00  0.00     0.159 HD
HETATM   15  H           1     -22.153  -5.718  -1.081  0.00  0.00     0.159 HD
HETATM   16  O           1     -21.849  -6.868  -3.984  0.00  0.00    -0.274 OA
ENDBRANCH  11  12
ENDBRANCH  10  11
ENDBRANCH   5  10
ENDBRANCH   4   5
BRANCH   2  17
HETATM   17  C           1     -19.323 -11.317  -0.407  0.00  0.00     0.189 C 
BRANCH  17  18
HETATM   18  C           1     -18.252 -12.334  -0.095  0.00  0.00     0.197 C 
HETATM   19  O           1     -18.430 -13.537  -0.387  0.00  0.00    -0.646 OA
HETATM   20  O           1     -17.189 -11.974   0.454  0.00  0.00    -0.646 OA
ENDBRANCH  17  18
BRANCH  17  21
HETATM   21  C           1     -20.575 -11.634   0.400  0.00  0.00     0.074 C 
BRANCH  21  22
HETATM   22  C           1     -21.436 -10.412   0.487  0.00  0.00    -0.056 A 
HETATM   23  C           1     -22.702 -10.407  -0.099  0.00  0.00     0.007 A 
HETATM   24  C           1     -23.504  -9.269  -0.019  0.00  0.00     0.001 A 
HETATM   25  C           1     -23.040  -8.136   0.649  0.00  0.00     0.000 A 
HETATM   26  C           1     -21.774  -8.140   1.235  0.00  0.00     0.001 A 
HETATM   27  C           1     -20.973  -9.278   1.155  0.00  0.00     0.007 A 
ENDBRANCH  21  22
ENDBRANCH  17  21
ENDBRANCH   2  17
TORSDOF 9
ENDMDL
MODEL 9
REMARK VINA RESULT:      -6.2     16.919     19.731
REMARK  9 active torsions:
REMARK  status: ('A' for Active; 'I' for Inactive)
REMARK    1  A    between atoms: N_2  and  C_25 
REMARK       I    between atoms: N_2  and  C_10 
REMARK       I    between atoms: N_4  and  C_16 
REMARK    2  A    between atoms: N_6  and  C_11 
REMARK    3  A    between atoms: C_10  and  C_11 
REMARK    4  A    between atoms: C_11  and  C_18 
REMARK    5  A    between atoms: C_16  and  C_17 
REMARK    6  A    between atoms: C_17  and  C_18 
REMARK    7  A    between atoms: C_23  and  C_25 
REMARK    8  A    between atoms: C_25  and  C_26 
REMARK    9  A    between atoms: C_26  and  C_27 
ROOT
HETATM    1  H           1     -19.265  -7.112  -5.023  0.00  0.00     0.163 HD
HETATM    2  N           1     -19.870  -7.852  -4.690  0.00  0.00    -0.344 N 
HETATM    3  O           1     -19.769  -9.785  -5.804  0.00  0.00    -0.271 OA
HETATM    4  C           1     -19.483  -9.159  -4.811  0.00  0.00     0.249 C 
ENDROOT
BRANCH   4   5
HETATM    5  C           1     -18.699  -9.819  -3.704  0.00  0.00     0.275 C 
BRANCH   5   6
HETATM    6  N           1     -19.177 -11.229  -3.525  0.00  0.00    -0.066 N 
HETATM    7  H           1     -18.628 -11.690  -2.764  0.00  0.00     0.275 HD
HETATM    8  H           1     -20.189 -11.223  -3.268  0.00  0.00     0.275 HD
HETATM    9  H           1     -19.046 -11.757  -4.418  0.00  0.00     0.275 HD
ENDBRANCH   5   6
BRANCH   5  10
HETATM   10  C           1     -17.219  -9.827  -4.063  0.00  0.00     0.052 C 
BRANCH  10  11
HETATM   11  C           1     -16.392  -9.544  -2.816  0.00  0.00     0.105 C 
BRANCH  11  12
HETATM   12  C           1     -15.820 -10.837  -2.288  0.00  0.00     0.215 C 
HETATM   13  N           1     -15.014 -11.605  -3.084  0.00  0.00    -0.370 N 
HETATM   14  H           1     -14.630 -12.473  -2.730  0.00  0.00     0.159 HD
HETATM   15  H           1     -14.802 -11.307  -4.028  0.00  0.00     0.159 HD
HETATM   16  O           1     -16.072 -11.194  -1.162  0.00  0.00    -0.274 OA
ENDBRANCH  11  12
ENDBRANCH  10  11
ENDBRANCH   5  10
ENDBRANCH   4   5
BRANCH   2  17
HETATM   17  C           1     -21.148  -7.527  -4.086  0.00  0.00     0.189 C 
BRANCH  17  18
HETATM   18  C           1     -21.844  -6.477  -4.917  0.00  0.00     0.197 C 
HETATM   19  O           1     -23.035  -6.181  -4.679  0.00  0.00    -0.646 OA
HETATM   20  O           1     -21.229  -5.903  -5.842  0.00  0.00    -0.646 OA
ENDBRANCH  17  18
BRANCH  17  21
HETATM   21  C           1     -20.921  -6.992  -2.678  0.00  0.00     0.074 C 
BRANCH  21  22
HETATM   22  C           1     -21.698  -7.816  -1.699  0.00  0.00    -0.056 A 
HETATM   23  C           1     -22.326  -7.204  -0.614  0.00  0.00     0.007 A 
HETATM   24  C           1     -23.051  -7.972   0.297  0.00  0.00     0.001 A 
HETATM   25  C           1     -23.148  -9.352   0.124  0.00  0.00     0.000 A 
HETATM   26  C           1     -22.520  -9.965  -0.961  0.00  0.00     0.001 A 
HETATM   27  C           1     -21.796  -9.197  -1.872  0.00  0.00     0.007 A 
ENDBRANCH  21  22
ENDBRANCH  17  21
ENDBRANCH   2  17
TORSDOF 9
ENDMDL
