MODEL 1
REMARK VINA RESULT:      -7.0      0.000      0.000
REMARK  10 active torsions:
REMARK  status: ('A' for Active; 'I' for Inactive)
REMARK    1  A    between atoms: C_2  and  C_4 
REMARK    2  A    between atoms: C_4  and  C_5 
REMARK    3  A    between atoms: C_5  and  C_6 
REMARK    4  A    between atoms: C_5  and  N_9 
REMARK       I    between atoms: N_9  and  C_10 
REMARK    5  A    between atoms: C_10  and  C_11 
REMARK    6  A    between atoms: C_11  and  C_12 
REMARK    7  A    between atoms: C_11  and  N_19 
REMARK    8  A    between atoms: C_12  and  C_13 
REMARK    9  A    between atoms: C_13  and  C_14 
REMARK   10  A    between atoms: C_14  and  N_15 
REMARK       I    between atoms: N_15  and  C_16 
REMARK       I    between atoms: C_16  and  N_17 
ROOT
HETATM    1  C           1     -24.182  -4.664  -9.900  0.00  0.00     0.274 C 
ENDROOT
BRANCH   1   2
HETATM    2  C           1     -23.259  -4.549  -8.711  0.00  0.00     0.249 C 
HETATM    3  N           1     -21.988  -5.052  -8.780  0.00  0.00    -0.345 N 
HETATM    4  H           1     -21.667  -5.502  -9.629  0.00  0.00     0.163 HD
HETATM    5  O           1     -23.642  -4.012  -7.699  0.00  0.00    -0.271 OA
BRANCH   3   6
HETATM    6  C           1     -21.101  -4.941  -7.639  0.00  0.00     0.185 C 
BRANCH   6   7
HETATM    7  C           1     -20.825  -6.329  -7.076  0.00  0.00     0.040 C 
BRANCH   7   8
HETATM    8  C           1     -20.990  -6.304  -5.561  0.00  0.00    -0.020 C 
HETATM    9  C           1     -22.472  -6.327  -5.212  0.00  0.00     0.009 C 
HETATM   10  C           1     -20.308  -7.524  -4.957  0.00  0.00     0.009 C 
ENDBRANCH   7   8
ENDBRANCH   6   7
BRANCH   6  11
HETATM   11  C           1     -19.803  -4.305  -8.071  0.00  0.00     0.196 C 
HETATM   12  O           1     -19.749  -3.657  -9.138  0.00  0.00    -0.646 OA
HETATM   13  O           1     -18.781  -4.426  -7.361  0.00  0.00    -0.646 OA
ENDBRANCH   6  11
ENDBRANCH   3   6
ENDBRANCH   1   2
BRANCH   1  14
HETATM   14  C           1     -23.382  -4.490 -11.183  0.00  0.00     0.044 C 
BRANCH  14  15
HETATM   15  C           1     -23.421  -3.029 -11.613  0.00  0.00     0.023 C 
BRANCH  15  16
HETATM   16  C           1     -23.337  -2.944 -13.131  0.00  0.00     0.138 C 
BRANCH  16  17
HETATM   17  N           1     -24.082  -1.766 -13.599  0.00  0.00    -0.227 N 
HETATM   18  C           1     -23.812  -1.251 -14.722  0.00  0.00     0.665 C 
HETATM   19  N           1     -24.454  -0.237 -15.126  0.00  0.00    -0.235 N 
HETATM   20  N           1     -22.874  -1.763 -15.464  0.00  0.00    -0.235 N 
HETATM   21  H           1     -24.228   0.191 -16.058  0.00  0.00     0.174 HD
HETATM   22  H           1     -25.210   0.178 -14.526  0.00  0.00     0.174 HD
HETATM   23  H           1     -22.651  -1.338 -16.392  0.00  0.00     0.174 HD
HETATM   24  H           1     -22.345  -2.600 -15.131  0.00  0.00     0.174 HD
HETATM   25  H           1     -24.839  -1.353 -13.000  0.00  0.00     0.177 HD
ENDBRANCH  16  17
ENDBRANCH  15  16
ENDBRANCH  14  15
ENDBRANCH   1  14
BRANCH   1  26
HETATM   26  N           1     -25.235  -3.598  -9.819  0.00  0.00    -0.067 N 
HETATM   27  H           1     -25.248  -3.053 -10.710  0.00  0.00     0.275 HD
HETATM   28  H           1     -26.168  -4.042  -9.667  0.00  0.00     0.275 HD
HETATM   29  H           1     -25.020  -2.956  -9.022  0.00  0.00     0.275 HD
ENDBRANCH   1  26
TORSDOF 10
ENDMDL
MODEL 2
REMARK VINA RESULT:      -6.9     12.534     15.077
REMARK  10 active torsions:
REMARK  status: ('A' for Active; 'I' for Inactive)
REMARK    1  A    between atoms: C_2  and  C_4 
REMARK    2  A    between atoms: C_4  and  C_5 
REMARK    3  A    between atoms: C_5  and  C_6 
REMARK    4  A    between atoms: C_5  and  N_9 
REMARK       I    between atoms: N_9  and  C_10 
REMARK    5  A    between atoms: C_10  and  C_11 
REMARK    6  A    between atoms: C_11  and  C_12 
REMARK    7  A    between atoms: C_11  and  N_19 
REMARK    8  A    between atoms: C_12  and  C_13 
REMARK    9  A    between atoms: C_13  and  C_14 
REMARK   10  A    between atoms: C_14  and  N_15 
REMARK       I    between atoms: N_15  and  C_16 
REMARK       I    between atoms: C_16  and  N_17 
ROOT
HETATM    1  C           1     -33.948  -2.152 -11.828  0.00  0.00     0.274 C 
ENDROOT
BRANCH   1   2
HETATM    2  C           1     -35.126  -1.794 -12.702  0.00  0.00     0.249 C 
HETATM    3  N           1     -34.930  -1.479 -14.020  0.00  0.00    -0.345 N 
HETATM    4  H           1     -33.994  -1.485 -14.408  0.00  0.00     0.163 HD
HETATM    5  O           1     -36.241  -1.787 -12.239  0.00  0.00    -0.271 OA
BRANCH   3   6
HETATM    6  C           1     -36.061  -1.135 -14.859  0.00  0.00     0.185 C 
BRANCH   6   7
HETATM    7  C           1     -36.446   0.318 -14.619  0.00  0.00     0.040 C 
BRANCH   7   8
HETATM    8  C           1     -35.297   1.226 -15.040  0.00  0.00    -0.020 C 
HETATM    9  C           1     -35.838   2.368 -15.890  0.00  0.00     0.009 C 
HETATM   10  C           1     -34.617   1.791 -13.802  0.00  0.00     0.009 C 
ENDBRANCH   7   8
ENDBRANCH   6   7
BRANCH   6  11
HETATM   11  C           1     -35.687  -1.325 -16.308  0.00  0.00     0.196 C 
HETATM   12  O           1     -36.478  -0.970 -17.209  0.00  0.00    -0.646 OA
HETATM   13  O           1     -34.587  -1.837 -16.609  0.00  0.00    -0.646 OA
ENDBRANCH   6  11
ENDBRANCH   3   6
ENDBRANCH   1   2
BRANCH   1  14
HETATM   14  C           1     -33.580  -3.613 -12.046  0.00  0.00     0.044 C 
BRANCH  14  15
HETATM   15  C           1     -33.613  -4.350 -10.713  0.00  0.00     0.023 C 
BRANCH  15  16
HETATM   16  C           1     -34.559  -5.539 -10.814  0.00  0.00     0.138 C 
BRANCH  16  17
HETATM   17  N           1     -33.779  -6.783 -10.879  0.00  0.00    -0.227 N 
HETATM   18  C           1     -34.174  -7.811 -10.256  0.00  0.00     0.665 C 
HETATM   19  N           1     -33.502  -8.884 -10.312  0.00  0.00    -0.235 N 
HETATM   20  N           1     -35.270  -7.768  -9.558  0.00  0.00    -0.235 N 
HETATM   21  H           1     -33.830  -9.736  -9.795  0.00  0.00     0.174 HD
HETATM   22  H           1     -32.617  -8.919 -10.876  0.00  0.00     0.174 HD
HETATM   23  H           1     -35.596  -8.617  -9.043  0.00  0.00     0.174 HD
HETATM   24  H           1     -35.824  -6.884  -9.511  0.00  0.00     0.174 HD
HETATM   25  H           1     -32.894  -6.819 -11.444  0.00  0.00     0.177 HD
ENDBRANCH  16  17
ENDBRANCH  15  16
ENDBRANCH  14  15
ENDBRANCH   1  14
BRANCH   1  26
HETATM   26  N           1     -34.312  -1.938 -10.389  0.00  0.00    -0.067 N 
HETATM   27  H           1     -34.615  -0.948 -10.250  0.00  0.00     0.275 HD
HETATM   28  H           1     -35.092  -2.582 -10.128  0.00  0.00     0.275 HD
HETATM   29  H           1     -33.480  -2.135  -9.786  0.00  0.00     0.275 HD
ENDBRANCH   1  26
TORSDOF 10
ENDMDL
MODEL 3
REMARK VINA RESULT:      -6.9      3.529      8.197
REMARK  10 active torsions:
REMARK  status: ('A' for Active; 'I' for Inactive)
REMARK    1  A    between atoms: C_2  and  C_4 
REMARK    2  A    between atoms: C_4  and  C_5 
REMARK    3  A    between atoms: C_5  and  C_6 
REMARK    4  A    between atoms: C_5  and  N_9 
REMARK       I    between atoms: N_9  and  C_10 
REMARK    5  A    between atoms: C_10  and  C_11 
REMARK    6  A    between atoms: C_11  and  C_12 
REMARK    7  A    between atoms: C_11  and  N_19 
REMARK    8  A    between atoms: C_12  and  C_13 
REMARK    9  A    between atoms: C_13  and  C_14 
REMARK   10  A    between atoms: C_14  and  N_15 
REMARK       I    between atoms: N_15  and  C_16 
REMARK       I    between atoms: C_16  and  N_17 
ROOT
HETATM    1  C           1     -22.544  -4.728  -6.488  0.00  0.00     0.274 C 
ENDROOT
BRANCH   1   2
HETATM    2  C           1     -22.432  -4.098  -7.856  0.00  0.00     0.249 C 
HETATM    3  N           1     -23.423  -4.289  -8.781  0.00  0.00    -0.345 N 
HETATM    4  H           1     -24.231  -4.853  -8.548  0.00  0.00     0.163 HD
HETATM    5  O           1     -21.468  -3.425  -8.133  0.00  0.00    -0.271 OA
BRANCH   3   6
HETATM    6  C           1     -23.316  -3.684 -10.093  0.00  0.00     0.185 C 
BRANCH   6   7
HETATM    7  C           1     -22.713  -4.688 -11.066  0.00  0.00     0.040 C 
BRANCH   7   8
HETATM    8  C           1     -21.417  -4.126 -11.639  0.00  0.00    -0.020 C 
HETATM    9  C           1     -21.434  -2.607 -11.535  0.00  0.00     0.009 C 
HETATM   10  C           1     -20.235  -4.676 -10.853  0.00  0.00     0.009 C 
ENDBRANCH   7   8
ENDBRANCH   6   7
BRANCH   6  11
HETATM   11  C           1     -24.687  -3.278 -10.573  0.00  0.00     0.196 C 
HETATM   12  O           1     -25.616  -3.122  -9.752  0.00  0.00    -0.646 OA
HETATM   13  O           1     -24.894  -3.096 -11.793  0.00  0.00    -0.646 OA
ENDBRANCH   6  11
ENDBRANCH   3   6
ENDBRANCH   1   2
BRANCH   1  14
HETATM   14  C           1     -21.636  -5.948  -6.415  0.00  0.00     0.044 C 
BRANCH  14  15
HETATM   15  C           1     -21.936  -6.729  -5.141  0.00  0.00     0.023 C 
BRANCH  15  16
HETATM   16  C           1     -21.260  -6.049  -3.959  0.00  0.00     0.138 C 
BRANCH  16  17
HETATM   17  N           1     -22.137  -6.129  -2.781  0.00  0.00    -0.227 N 
HETATM   18  C           1     -21.820  -6.868  -1.804  0.00  0.00     0.665 C 
HETATM   19  N           1     -22.574  -6.936  -0.789  0.00  0.00    -0.235 N 
HETATM   20  N           1     -20.718  -7.558  -1.842  0.00  0.00    -0.235 N 
HETATM   21  H           1     -22.311  -7.551   0.020  0.00  0.00     0.174 HD
HETATM   22  H           1     -23.464  -6.380  -0.759  0.00  0.00     0.174 HD
HETATM   23  H           1     -20.456  -8.169  -1.035  0.00  0.00     0.174 HD
HETATM   24  H           1     -20.096  -7.502  -2.678  0.00  0.00     0.174 HD
HETATM   25  H           1     -23.026  -5.571  -2.750  0.00  0.00     0.177 HD
ENDBRANCH  16  17
ENDBRANCH  15  16
ENDBRANCH  14  15
ENDBRANCH   1  14
BRANCH   1  26
HETATM   26  N           1     -23.964  -5.146  -6.247  0.00  0.00    -0.067 N 
HETATM   27  H           1     -24.233  -5.882  -6.937  0.00  0.00     0.275 HD
HETATM   28  H           1     -24.054  -5.527  -5.278  0.00  0.00     0.275 HD
HETATM   29  H           1     -24.594  -4.319  -6.357  0.00  0.00     0.275 HD
ENDBRANCH   1  26
TORSDOF 10
ENDMDL
MODEL 4
REMARK VINA RESULT:      -6.8      1.480      1.833
REMARK  10 active torsions:
REMARK  status: ('A' for Active; 'I' for Inactive)
REMARK    1  A    between atoms: C_2  and  C_4 
REMARK    2  A    between atoms: C_4  and  C_5 
REMARK    3  A    between atoms: C_5  and  C_6 
REMARK    4  A    between atoms: C_5  and  N_9 
REMARK       I    between atoms: N_9  and  C_10 
REMARK    5  A    between atoms: C_10  and  C_11 
REMARK    6  A    between atoms: C_11  and  C_12 
REMARK    7  A    between atoms: C_11  and  N_19 
REMARK    8  A    between atoms: C_12  and  C_13 
REMARK    9  A    between atoms: C_13  and  C_14 
REMARK   10  A    between atoms: C_14  and  N_15 
REMARK       I    between atoms: N_15  and  C_16 
REMARK       I    between atoms: C_16  and  N_17 
ROOT
HETATM    1  C           1     -23.408  -4.362  -9.022  0.00  0.00     0.274 C 
ENDROOT
BRANCH   1   2
HETATM    2  C           1     -22.546  -4.353  -7.782  0.00  0.00     0.249 C 
HETATM    3  N           1     -22.450  -5.477  -7.006  0.00  0.00    -0.345 N 
HETATM    4  H           1     -22.959  -6.314  -7.263  0.00  0.00     0.163 HD
HETATM    5  O           1     -21.939  -3.355  -7.476  0.00  0.00    -0.271 OA
BRANCH   3   6
HETATM    6  C           1     -21.622  -5.468  -5.817  0.00  0.00     0.185 C 
BRANCH   6   7
HETATM    7  C           1     -22.068  -6.583  -4.881  0.00  0.00     0.040 C 
BRANCH   7   8
HETATM    8  C           1     -21.210  -6.564  -3.622  0.00  0.00    -0.020 C 
HETATM    9  C           1     -22.061  -6.131  -2.435  0.00  0.00     0.009 C 
HETATM   10  C           1     -20.654  -7.957  -3.366  0.00  0.00     0.009 C 
ENDBRANCH   7   8
ENDBRANCH   6   7
BRANCH   6  11
HETATM   11  C           1     -20.181  -5.684  -6.207  0.00  0.00     0.196 C 
HETATM   12  O           1     -19.824  -6.774  -6.704  0.00  0.00    -0.646 OA
HETATM   13  O           1     -19.343  -4.772  -6.033  0.00  0.00    -0.646 OA
ENDBRANCH   6  11
ENDBRANCH   3   6
ENDBRANCH   1   2
BRANCH   1  14
HETATM   14  C           1     -22.524  -4.248 -10.256  0.00  0.00     0.044 C 
BRANCH  14  15
HETATM   15  C           1     -22.928  -3.018 -11.059  0.00  0.00     0.023 C 
BRANCH  15  16
HETATM   16  C           1     -23.629  -3.453 -12.337  0.00  0.00     0.138 C 
BRANCH  16  17
HETATM   17  N           1     -24.030  -2.265 -13.106  0.00  0.00    -0.227 N 
HETATM   18  C           1     -23.509  -2.038 -14.237  0.00  0.00     0.665 C 
HETATM   19  N           1     -23.854  -1.015 -14.900  0.00  0.00    -0.235 N 
HETATM   20  N           1     -22.619  -2.855 -14.719  0.00  0.00    -0.235 N 
HETATM   21  H           1     -23.421  -0.827 -15.837  0.00  0.00     0.174 HD
HETATM   22  H           1     -24.572  -0.356 -14.510  0.00  0.00     0.174 HD
HETATM   23  H           1     -22.189  -2.667 -15.653  0.00  0.00     0.174 HD
HETATM   24  H           1     -22.335  -3.698 -14.173  0.00  0.00     0.174 HD
HETATM   25  H           1     -24.749  -1.607 -12.717  0.00  0.00     0.177 HD
ENDBRANCH  16  17
ENDBRANCH  15  16
ENDBRANCH  14  15
ENDBRANCH   1  14
BRANCH   1  26
HETATM   26  N           1     -24.357  -3.201  -8.977  0.00  0.00    -0.067 N 
HETATM   27  H           1     -23.830  -2.329  -8.746  0.00  0.00     0.275 HD
HETATM   28  H           1     -24.817  -3.093  -9.909  0.00  0.00     0.275 HD
HETATM   29  H           1     -25.084  -3.374  -8.246  0.00  0.00     0.275 HD
ENDBRANCH   1  26
TORSDOF 10
ENDMDL
MODEL 5
REMARK VINA RESULT:      -6.8     11.995     13.772
REMARK  10 active torsions:
REMARK  status: ('A' for Active; 'I' for Inactive)
REMARK    1  A    between atoms: C_2  and  C_4 
REMARK    2  A    between atoms: C_4  and  C_5 
REMARK    3  A    between atoms: C_5  and  C_6 
REMARK    4  A    between atoms: C_5  and  N_9 
REMARK       I    between atoms: N_9  and  C_10 
REMARK    5  A    between atoms: C_10  and  C_11 
REMARK    6  A    between atoms: C_11  and  C_12 
REMARK    7  A    between atoms: C_11  and  N_19 
REMARK    8  A    between atoms: C_12  and  C_13 
REMARK    9  A    between atoms: C_13  and  C_14 
REMARK   10  A    between atoms: C_14  and  N_15 
REMARK       I    between atoms: N_15  and  C_16 
REMARK       I    between atoms: C_16  and  N_17 
ROOT
HETATM    1  C           1     -36.578  -0.764  -9.975  0.00  0.00     0.274 C 
ENDROOT
BRANCH   1   2
HETATM    2  C           1     -35.456  -1.670 -10.419  0.00  0.00     0.249 C 
HETATM    3  N           1     -35.715  -2.716 -11.265  0.00  0.00    -0.345 N 
HETATM    4  H           1     -36.659  -2.882 -11.590  0.00  0.00     0.163 HD
HETATM    5  O           1     -34.330  -1.472 -10.031  0.00  0.00    -0.271 OA
BRANCH   3   6
HETATM    6  C           1     -34.637  -3.586 -11.692  0.00  0.00     0.185 C 
BRANCH   6   7
HETATM    7  C           1     -35.060  -5.039 -11.520  0.00  0.00     0.040 C 
BRANCH   7   8
HETATM    8  C           1     -34.180  -5.704 -10.469  0.00  0.00    -0.020 C 
HETATM    9  C           1     -34.893  -6.930  -9.913  0.00  0.00     0.009 C 
HETATM   10  C           1     -32.863  -6.127 -11.105  0.00  0.00     0.009 C 
ENDBRANCH   7   8
ENDBRANCH   6   7
BRANCH   6  11
HETATM   11  C           1     -34.322  -3.321 -13.143  0.00  0.00     0.196 C 
HETATM   12  O           1     -33.502  -4.045 -13.748  0.00  0.00    -0.646 OA
HETATM   13  O           1     -34.883  -2.377 -13.742  0.00  0.00    -0.646 OA
ENDBRANCH   6  11
ENDBRANCH   3   6
ENDBRANCH   1   2
BRANCH   1  14
HETATM   14  C           1     -36.892   0.235 -11.080  0.00  0.00     0.044 C 
BRANCH  14  15
HETATM   15  C           1     -38.074  -0.268 -11.900  0.00  0.00     0.023 C 
BRANCH  15  16
HETATM   16  C           1     -37.815  -0.006 -13.377  0.00  0.00     0.138 C 
BRANCH  16  17
HETATM   17  N           1     -36.366   0.031 -13.622  0.00  0.00    -0.227 N 
HETATM   18  C           1     -35.916   0.565 -14.678  0.00  0.00     0.665 C 
HETATM   19  N           1     -34.668   0.597 -14.890  0.00  0.00    -0.235 N 
HETATM   20  N           1     -36.736   1.080 -15.546  0.00  0.00    -0.235 N 
HETATM   21  H           1     -34.295   1.039 -15.766  0.00  0.00     0.174 HD
HETATM   22  H           1     -34.006   0.180 -14.189  0.00  0.00     0.174 HD
HETATM   23  H           1     -36.364   1.521 -16.418  0.00  0.00     0.174 HD
HETATM   24  H           1     -37.765   1.054 -15.372  0.00  0.00     0.174 HD
HETATM   25  H           1     -35.704  -0.385 -12.921  0.00  0.00     0.177 HD
ENDBRANCH  16  17
ENDBRANCH  15  16
ENDBRANCH  14  15
ENDBRANCH   1  14
BRANCH   1  26
HETATM   26  N           1     -36.162  -0.025  -8.737  0.00  0.00    -0.067 N 
HETATM   27  H           1     -36.908   0.655  -8.470  0.00  0.00     0.275 HD
HETATM   28  H           1     -36.017  -0.707  -7.958  0.00  0.00     0.275 HD
HETATM   29  H           1     -35.271   0.489  -8.922  0.00  0.00     0.275 HD
ENDBRANCH   1  26
TORSDOF 10
ENDMDL
MODEL 6
REMARK VINA RESULT:      -6.7     12.288     14.278
REMARK  10 active torsions:
REMARK  status: ('A' for Active; 'I' for Inactive)
REMARK    1  A    between atoms: C_2  and  C_4 
REMARK    2  A    between atoms: C_4  and  C_5 
REMARK    3  A    between atoms: C_5  and  C_6 
REMARK    4  A    between atoms: C_5  and  N_9 
REMARK       I    between atoms: N_9  and  C_10 
REMARK    5  A    between atoms: C_10  and  C_11 
REMARK    6  A    between atoms: C_11  and  C_12 
REMARK    7  A    between atoms: C_11  and  N_19 
REMARK    8  A    between atoms: C_12  and  C_13 
REMARK    9  A    between atoms: C_13  and  C_14 
REMARK   10  A    between atoms: C_14  and  N_15 
REMARK       I    between atoms: N_15  and  C_16 
REMARK       I    between atoms: C_16  and  N_17 
ROOT
HETATM    1  C           1     -35.893   0.389 -14.943  0.00  0.00     0.274 C 
ENDROOT
BRANCH   1   2
HETATM    2  C           1     -36.604  -0.267 -13.785  0.00  0.00     0.249 C 
HETATM    3  N           1     -35.969  -0.403 -12.579  0.00  0.00    -0.345 N 
HETATM    4  H           1     -35.021  -0.065 -12.466  0.00  0.00     0.163 HD
HETATM    5  O           1     -37.734  -0.670 -13.920  0.00  0.00    -0.271 OA
BRANCH   3   6
HETATM    6  C           1     -36.652  -1.032 -11.467  0.00  0.00     0.185 C 
BRANCH   6   7
HETATM    7  C           1     -35.811  -2.189 -10.945  0.00  0.00     0.040 C 
BRANCH   7   8
HETATM    8  C           1     -34.492  -2.243 -11.707  0.00  0.00    -0.020 C 
HETATM    9  C           1     -33.334  -2.177 -10.720  0.00  0.00     0.009 C 
HETATM   10  C           1     -34.415  -3.543 -12.494  0.00  0.00     0.009 C 
ENDBRANCH   7   8
ENDBRANCH   6   7
BRANCH   6  11
HETATM   11  C           1     -36.857  -0.021 -10.366  0.00  0.00     0.196 C 
HETATM   12  O           1     -36.105  -0.023  -9.368  0.00  0.00    -0.646 OA
HETATM   13  O           1     -37.778   0.820 -10.453  0.00  0.00    -0.646 OA
ENDBRANCH   6  11
ENDBRANCH   3   6
ENDBRANCH   1   2
BRANCH   1  14
HETATM   14  C           1     -35.884  -0.557 -16.135  0.00  0.00     0.044 C 
BRANCH  14  15
HETATM   15  C           1     -35.182  -1.854 -15.751  0.00  0.00     0.023 C 
BRANCH  15  16
HETATM   16  C           1     -34.481  -2.434 -16.972  0.00  0.00     0.138 C 
BRANCH  16  17
HETATM   17  N           1     -33.867  -3.722 -16.619  0.00  0.00    -0.227 N 
HETATM   18  C           1     -32.666  -3.960 -16.941  0.00  0.00     0.665 C 
HETATM   19  N           1     -32.136  -5.069 -16.638  0.00  0.00    -0.235 N 
HETATM   20  N           1     -31.976  -3.065 -17.584  0.00  0.00    -0.235 N 
HETATM   21  H           1     -31.141  -5.266 -16.905  0.00  0.00     0.174 HD
HETATM   22  H           1     -32.694  -5.792 -16.120  0.00  0.00     0.174 HD
HETATM   23  H           1     -30.984  -3.261 -17.849  0.00  0.00     0.174 HD
HETATM   24  H           1     -32.412  -2.150 -17.834  0.00  0.00     0.174 HD
HETATM   25  H           1     -34.424  -4.445 -16.100  0.00  0.00     0.177 HD
ENDBRANCH  16  17
ENDBRANCH  15  16
ENDBRANCH  14  15
ENDBRANCH   1  14
BRANCH   1  26
HETATM   26  N           1     -34.481   0.707 -14.546  0.00  0.00    -0.067 N 
HETATM   27  H           1     -34.414   1.713 -14.275  0.00  0.00     0.275 HD
HETATM   28  H           1     -34.205   0.108 -13.736  0.00  0.00     0.275 HD
HETATM   29  H           1     -33.842   0.520 -15.353  0.00  0.00     0.275 HD
ENDBRANCH   1  26
TORSDOF 10
ENDMDL
MODEL 7
REMARK VINA RESULT:      -6.7      2.590      3.820
REMARK  10 active torsions:
REMARK  status: ('A' for Active; 'I' for Inactive)
REMARK    1  A    between atoms: C_2  and  C_4 
REMARK    2  A    between atoms: C_4  and  C_5 
REMARK    3  A    between atoms: C_5  and  C_6 
REMARK    4  A    between atoms: C_5  and  N_9 
REMARK       I    between atoms: N_9  and  C_10 
REMARK    5  A    between atoms: C_10  and  C_11 
REMARK    6  A    between atoms: C_11  and  C_12 
REMARK    7  A    between atoms: C_11  and  N_19 
REMARK    8  A    between atoms: C_12  and  C_13 
REMARK    9  A    between atoms: C_13  and  C_14 
REMARK   10  A    between atoms: C_14  and  N_15 
REMARK       I    between atoms: N_15  and  C_16 
REMARK       I    between atoms: C_16  and  N_17 
ROOT
HETATM    1  C           1     -21.282  -4.741  -8.065  0.00  0.00     0.274 C 
ENDROOT
BRANCH   1   2
HETATM    2  C           1     -20.661  -5.414  -6.865  0.00  0.00     0.249 C 
HETATM    3  N           1     -21.309  -6.452  -6.251  0.00  0.00    -0.345 N 
HETATM    4  H           1     -22.206  -6.767  -6.601  0.00  0.00     0.163 HD
HETATM    5  O           1     -19.592  -5.039  -6.448  0.00  0.00    -0.271 OA
BRANCH   3   6
HETATM    6  C           1     -20.712  -7.099  -5.099  0.00  0.00     0.185 C 
BRANCH   6   7
HETATM    7  C           1     -21.764  -7.267  -4.011  0.00  0.00     0.040 C 
BRANCH   7   8
HETATM    8  C           1     -21.163  -6.896  -2.661  0.00  0.00    -0.020 C 
HETATM    9  C           1     -22.205  -6.163  -1.826  0.00  0.00     0.009 C 
HETATM   10  C           1     -20.729  -8.162  -1.934  0.00  0.00     0.009 C 
ENDBRANCH   7   8
ENDBRANCH   6   7
BRANCH   6  11
HETATM   11  C           1     -20.183  -8.453  -5.502  0.00  0.00     0.196 C 
HETATM   12  O           1     -20.955  -9.434  -5.562  0.00  0.00    -0.646 OA
HETATM   13  O           1     -18.971  -8.594  -5.775  0.00  0.00    -0.646 OA
ENDBRANCH   6  11
ENDBRANCH   3   6
ENDBRANCH   1   2
BRANCH   1  14
HETATM   14  C           1     -20.189  -4.110  -8.916  0.00  0.00     0.044 C 
BRANCH  14  15
HETATM   15  C           1     -20.374  -4.524 -10.371  0.00  0.00     0.023 C 
BRANCH  15  16
HETATM   16  C           1     -20.698  -3.297 -11.211  0.00  0.00     0.138 C 
BRANCH  16  17
HETATM   17  N           1     -22.149  -3.063 -11.198  0.00  0.00    -0.227 N 
HETATM   18  C           1     -22.806  -3.096 -12.280  0.00  0.00     0.665 C 
HETATM   19  N           1     -24.056  -2.895 -12.269  0.00  0.00    -0.235 N 
HETATM   20  N           1     -22.197  -3.339 -13.403  0.00  0.00    -0.235 N 
HETATM   21  H           1     -24.600  -2.922 -13.166  0.00  0.00     0.174 HD
HETATM   22  H           1     -24.547  -2.698 -11.362  0.00  0.00     0.174 HD
HETATM   23  H           1     -22.739  -3.367 -14.296  0.00  0.00     0.174 HD
HETATM   24  H           1     -21.166  -3.505 -13.412  0.00  0.00     0.174 HD
HETATM   25  H           1     -22.641  -2.867 -10.291  0.00  0.00     0.177 HD
ENDBRANCH  16  17
ENDBRANCH  15  16
ENDBRANCH  14  15
ENDBRANCH   1  14
BRANCH   1  26
HETATM   26  N           1     -22.233  -3.676  -7.603  0.00  0.00    -0.067 N 
HETATM   27  H           1     -21.825  -3.178  -6.781  0.00  0.00     0.275 HD
HETATM   28  H           1     -22.396  -2.995  -8.378  0.00  0.00     0.275 HD
HETATM   29  H           1     -23.141  -4.116  -7.328  0.00  0.00     0.275 HD
ENDBRANCH   1  26
TORSDOF 10
ENDMDL
MODEL 8
REMARK VINA RESULT:      -6.3      4.277      6.859
REMARK  10 active torsions:
REMARK  status: ('A' for Active; 'I' for Inactive)
REMARK    1  A    between atoms: C_2  and  C_4 
REMARK    2  A    between atoms: C_4  and  C_5 
REMARK    3  A    between atoms: C_5  and  C_6 
REMARK    4  A    between atoms: C_5  and  N_9 
REMARK       I    between atoms: N_9  and  C_10 
REMARK    5  A    between atoms: C_10  and  C_11 
REMARK    6  A    between atoms: C_11  and  C_12 
REMARK    7  A    between atoms: C_11  and  N_19 
REMARK    8  A    between atoms: C_12  and  C_13 
REMARK    9  A    between atoms: C_13  and  C_14 
REMARK   10  A    between atoms: C_14  and  N_15 
REMARK       I    between atoms: N_15  and  C_16 
REMARK       I    between atoms: C_16  and  N_17 
ROOT
HETATM    1  C           1     -21.522  -7.131  -5.636  0.00  0.00     0.274 C 
ENDROOT
BRANCH   1   2
HETATM    2  C           1     -20.879  -7.970  -4.559  0.00  0.00     0.249 C 
HETATM    3  N           1     -21.657  -8.587  -3.616  0.00  0.00    -0.345 N 
HETATM    4  H           1     -22.663  -8.479  -3.641  0.00  0.00     0.163 HD
HETATM    5  O           1     -19.679  -8.100  -4.530  0.00  0.00    -0.271 OA
BRANCH   3   6
HETATM    6  C           1     -21.040  -9.394  -2.583  0.00  0.00     0.185 C 
BRANCH   6   7
HETATM    7  C           1     -20.915  -8.573  -1.306  0.00  0.00     0.040 C 
BRANCH   7   8
HETATM    8  C           1     -22.248  -7.900  -1.002  0.00  0.00    -0.020 C 
HETATM    9  C           1     -22.585  -8.086   0.471  0.00  0.00     0.009 C 
HETATM   10  C           1     -22.149  -6.414  -1.317  0.00  0.00     0.009 C 
ENDBRANCH   7   8
ENDBRANCH   6   7
BRANCH   6  11
HETATM   11  C           1     -21.892 -10.610  -2.318  0.00  0.00     0.196 C 
HETATM   12  O           1     -21.652 -11.339  -1.331  0.00  0.00    -0.646 OA
HETATM   13  O           1     -22.838 -10.890  -3.086  0.00  0.00    -0.646 OA
ENDBRANCH   6  11
ENDBRANCH   3   6
ENDBRANCH   1   2
BRANCH   1  14
HETATM   14  C           1     -20.455  -6.309  -6.345  0.00  0.00     0.044 C 
BRANCH  14  15
HETATM   15  C           1     -20.619  -4.839  -5.980  0.00  0.00     0.023 C 
BRANCH  15  16
HETATM   16  C           1     -20.817  -4.020  -7.248  0.00  0.00     0.138 C 
BRANCH  16  17
HETATM   17  N           1     -22.240  -3.684  -7.399  0.00  0.00    -0.227 N 
HETATM   18  C           1     -22.875  -4.065  -8.425  0.00  0.00     0.665 C 
HETATM   19  N           1     -24.101  -3.777  -8.555  0.00  0.00    -0.235 N 
HETATM   20  N           1     -22.269  -4.754  -9.346  0.00  0.00    -0.235 N 
HETATM   21  H           1     -24.628  -4.092  -9.407  0.00  0.00     0.174 HD
HETATM   22  H           1     -24.591  -3.220  -7.811  0.00  0.00     0.174 HD
HETATM   23  H           1     -22.793  -5.068 -10.194  0.00  0.00     0.174 HD
HETATM   24  H           1     -21.258  -4.991  -9.239  0.00  0.00     0.174 HD
HETATM   25  H           1     -22.730  -3.129  -6.654  0.00  0.00     0.177 HD
ENDBRANCH  16  17
ENDBRANCH  15  16
ENDBRANCH  14  15
ENDBRANCH   1  14
BRANCH   1  26
HETATM   26  N           1     -22.532  -6.211  -5.015  0.00  0.00    -0.067 N 
HETATM   27  H           1     -22.549  -6.360  -3.982  0.00  0.00     0.275 HD
HETATM   28  H           1     -22.270  -5.220  -5.220  0.00  0.00     0.275 HD
HETATM   29  H           1     -23.477  -6.412  -5.413  0.00  0.00     0.275 HD
ENDBRANCH   1  26
TORSDOF 10
ENDMDL
MODEL 9
REMARK VINA RESULT:      -6.3     12.179     14.203
REMARK  10 active torsions:
REMARK  status: ('A' for Active; 'I' for Inactive)
REMARK    1  A    between atoms: C_2  and  C_4 
REMARK    2  A    between atoms: C_4  and  C_5 
REMARK    3  A    between atoms: C_5  and  C_6 
REMARK    4  A    between atoms: C_5  and  N_9 
REMARK       I    between atoms: N_9  and  C_10 
REMARK    5  A    between atoms: C_10  and  C_11 
REMARK    6  A    between atoms: C_11  and  C_12 
REMARK    7  A    between atoms: C_11  and  N_19 
REMARK    8  A    between atoms: C_12  and  C_13 
REMARK    9  A    between atoms: C_13  and  C_14 
REMARK   10  A    between atoms: C_14  and  N_15 
REMARK       I    between atoms: N_15  and  C_16 
REMARK       I    between atoms: C_16  and  N_17 
ROOT
HETATM    1  C           1     -33.945  -3.393 -10.467  0.00  0.00     0.274 C 
ENDROOT
BRANCH   1   2
HETATM    2  C           1     -35.245  -2.673 -10.731  0.00  0.00     0.249 C 
HETATM    3  N           1     -35.266  -1.306 -10.816  0.00  0.00    -0.345 N 
HETATM    4  H           1     -34.409  -0.779 -10.699  0.00  0.00     0.163 HD
HETATM    5  O           1     -36.266  -3.302 -10.871  0.00  0.00    -0.271 OA
BRANCH   3   6
HETATM    6  C           1     -36.514  -0.615 -11.070  0.00  0.00     0.185 C 
BRANCH   6   7
HETATM    7  C           1     -36.580   0.643 -10.215  0.00  0.00     0.040 C 
BRANCH   7   8
HETATM    8  C           1     -37.743   0.533  -9.237  0.00  0.00    -0.020 C 
HETATM    9  C           1     -37.356  -0.394  -8.091  0.00  0.00     0.009 C 
HETATM   10  C           1     -38.074   1.912  -8.684  0.00  0.00     0.009 C 
ENDBRANCH   7   8
ENDBRANCH   6   7
BRANCH   6  11
HETATM   11  C           1     -36.591  -0.237 -12.528  0.00  0.00     0.196 C 
HETATM   12  O           1     -35.704   0.483 -13.035  0.00  0.00    -0.646 OA
HETATM   13  O           1     -37.542  -0.644 -13.231  0.00  0.00    -0.646 OA
ENDBRANCH   6  11
ENDBRANCH   3   6
ENDBRANCH   1   2
BRANCH   1  14
HETATM   14  C           1     -33.001  -3.186 -11.644  0.00  0.00     0.044 C 
BRANCH  14  15
HETATM   15  C           1     -33.112  -4.368 -12.598  0.00  0.00     0.023 C 
BRANCH  15  16
HETATM   16  C           1     -33.971  -3.978 -13.793  0.00  0.00     0.138 C 
BRANCH  16  17
HETATM   17  N           1     -33.242  -4.265 -15.037  0.00  0.00    -0.227 N 
HETATM   18  C           1     -33.616  -3.739 -16.126  0.00  0.00     0.665 C 
HETATM   19  N           1     -32.988  -3.985 -17.197  0.00  0.00    -0.235 N 
HETATM   20  N           1     -34.646  -2.945 -16.144  0.00  0.00    -0.235 N 
HETATM   21  H           1     -33.299  -3.550 -18.100  0.00  0.00     0.174 HD
HETATM   22  H           1     -32.157  -4.627 -17.182  0.00  0.00     0.174 HD
HETATM   23  H           1     -34.955  -2.511 -17.043  0.00  0.00     0.174 HD
HETATM   24  H           1     -35.164  -2.742 -15.261  0.00  0.00     0.174 HD
HETATM   25  H           1     -32.410  -4.905 -15.022  0.00  0.00     0.177 HD
ENDBRANCH  16  17
ENDBRANCH  15  16
ENDBRANCH  14  15
ENDBRANCH   1  14
BRANCH   1  26
HETATM   26  N           1     -34.214  -4.859 -10.293  0.00  0.00    -0.067 N 
HETATM   27  H           1     -34.747  -5.013  -9.409  0.00  0.00     0.275 HD
HETATM   28  H           1     -34.773  -5.208 -11.104  0.00  0.00     0.275 HD
HETATM   29  H           1     -33.306  -5.376 -10.247  0.00  0.00     0.275 HD
ENDBRANCH   1  26
TORSDOF 10
ENDMDL
