MODEL 1
REMARK VINA RESULT:      -6.7      0.000      0.000
REMARK  8 active torsions:
REMARK  status: ('A' for Active; 'I' for Inactive)
REMARK    1  A    between atoms: C_2  and  S_23 
REMARK    2  A    between atoms: C_2  and  C_12 
REMARK    3  A    between atoms: C_3  and  C_12 
REMARK    4  A    between atoms: N_4  and  C_12 
REMARK       I    between atoms: N_4  and  C_5 
REMARK    5  A    between atoms: C_5  and  C_11 
REMARK    6  A    between atoms: C_11  and  C_22 
REMARK    7  A    between atoms: C_11  and  N_16 
REMARK    8  A    between atoms: C_21  and  C_22 
ROOT
HETATM    1  C           1     -21.058  -5.694  -6.900  0.00  0.00     0.278 C 
ENDROOT
BRANCH   1   2
HETATM    2  C           1     -21.635  -4.588  -7.750  0.00  0.00     0.249 C 
HETATM    3  N           1     -22.129  -4.869  -8.995  0.00  0.00    -0.344 N 
HETATM    4  H           1     -22.108  -5.818  -9.345  0.00  0.00     0.163 HD
HETATM    5  O           1     -21.660  -3.455  -7.332  0.00  0.00    -0.271 OA
BRANCH   3   6
HETATM    6  C           1     -22.683  -3.806  -9.812  0.00  0.00     0.194 C 
BRANCH   6   7
HETATM    7  C           1     -22.243  -3.994 -11.258  0.00  0.00     0.106 C 
BRANCH   7   8
HETATM    8  S           1     -23.000  -2.709 -12.293  0.00  0.00    -0.180 SA
HETATM    9  H           1     -24.010  -3.472 -12.746  0.00  0.00     0.101 HD
ENDBRANCH   7   8
ENDBRANCH   6   7
BRANCH   6  10
HETATM   10  C           1     -24.190  -3.848  -9.736  0.00  0.00     0.197 C 
HETATM   11  O           1     -24.798  -4.912  -9.980  0.00  0.00    -0.646 OA
HETATM   12  O           1     -24.828  -2.819  -9.427  0.00  0.00    -0.646 OA
ENDBRANCH   6  10
ENDBRANCH   3   6
ENDBRANCH   1   2
BRANCH   1  13
HETATM   13  C           1     -20.866  -5.192  -5.475  0.00  0.00     0.081 C 
BRANCH  13  14
HETATM   14  C           1     -21.136  -6.306  -4.513  0.00  0.00    -0.056 A 
HETATM   15  C           1     -21.255  -7.616  -4.977  0.00  0.00     0.007 A 
HETATM   16  C           1     -21.507  -8.654  -4.081  0.00  0.00     0.001 A 
HETATM   17  C           1     -21.639  -8.383  -2.718  0.00  0.00     0.000 A 
HETATM   18  C           1     -21.520  -7.073  -2.254  0.00  0.00     0.001 A 
HETATM   19  C           1     -21.268  -6.035  -3.151  0.00  0.00     0.007 A 
ENDBRANCH  13  14
ENDBRANCH   1  13
BRANCH   1  20
HETATM   20  N           1     -19.734  -6.117  -7.463  0.00  0.00    -0.066 N 
HETATM   21  H           1     -19.356  -5.357  -8.073  0.00  0.00     0.275 HD
HETATM   22  H           1     -19.066  -6.302  -6.681  0.00  0.00     0.275 HD
HETATM   23  H           1     -19.858  -6.988  -8.027  0.00  0.00     0.275 HD
ENDBRANCH   1  20
TORSDOF 8
ENDMDL
MODEL 2
REMARK VINA RESULT:      -6.6      3.692      7.074
REMARK  8 active torsions:
REMARK  status: ('A' for Active; 'I' for Inactive)
REMARK    1  A    between atoms: C_2  and  S_23 
REMARK    2  A    between atoms: C_2  and  C_12 
REMARK    3  A    between atoms: C_3  and  C_12 
REMARK    4  A    between atoms: N_4  and  C_12 
REMARK       I    between atoms: N_4  and  C_5 
REMARK    5  A    between atoms: C_5  and  C_11 
REMARK    6  A    between atoms: C_11  and  C_22 
REMARK    7  A    between atoms: C_11  and  N_16 
REMARK    8  A    between atoms: C_21  and  C_22 
ROOT
HETATM    1  C           1     -22.284  -5.108  -6.920  0.00  0.00     0.278 C 
ENDROOT
BRANCH   1   2
HETATM    2  C           1     -21.374  -5.631  -5.835  0.00  0.00     0.249 C 
HETATM    3  N           1     -21.579  -6.881  -5.315  0.00  0.00    -0.344 N 
HETATM    4  H           1     -22.339  -7.454  -5.657  0.00  0.00     0.163 HD
HETATM    5  O           1     -20.467  -4.947  -5.425  0.00  0.00    -0.271 OA
BRANCH   3   6
HETATM    6  C           1     -20.705  -7.383  -4.271  0.00  0.00     0.194 C 
BRANCH   6   7
HETATM    7  C           1     -21.537  -7.783  -3.060  0.00  0.00     0.106 C 
BRANCH   7   8
HETATM    8  S           1     -22.001  -6.296  -2.127  0.00  0.00    -0.180 SA
HETATM    9  H           1     -23.325  -6.410  -2.333  0.00  0.00     0.101 HD
ENDBRANCH   7   8
ENDBRANCH   6   7
BRANCH   6  10
HETATM   10  C           1     -19.952  -8.587  -4.784  0.00  0.00     0.197 C 
HETATM   11  O           1     -18.831  -8.871  -4.311  0.00  0.00    -0.646 OA
HETATM   12  O           1     -20.452  -9.301  -5.680  0.00  0.00    -0.646 OA
ENDBRANCH   6  10
ENDBRANCH   3   6
ENDBRANCH   1   2
BRANCH   1  13
HETATM   13  C           1     -21.724  -3.802  -7.467  0.00  0.00     0.081 C 
BRANCH  13  14
HETATM   14  C           1     -21.657  -3.873  -8.960  0.00  0.00    -0.056 A 
HETATM   15  C           1     -22.809  -3.669  -9.720  0.00  0.00     0.007 A 
HETATM   16  C           1     -22.748  -3.735 -11.112  0.00  0.00     0.001 A 
HETATM   17  C           1     -21.533  -4.004 -11.744  0.00  0.00     0.000 A 
HETATM   18  C           1     -20.382  -4.207 -10.984  0.00  0.00     0.001 A 
HETATM   19  C           1     -20.444  -4.141  -9.592  0.00  0.00     0.007 A 
ENDBRANCH  13  14
ENDBRANCH   1  13
BRANCH   1  20
HETATM   20  N           1     -23.651  -4.866  -6.351  0.00  0.00    -0.066 N 
HETATM   21  H           1     -24.372  -5.256  -6.999  0.00  0.00     0.275 HD
HETATM   22  H           1     -23.729  -5.334  -5.420  0.00  0.00     0.275 HD
HETATM   23  H           1     -23.803  -3.838  -6.237  0.00  0.00     0.275 HD
ENDBRANCH   1  20
TORSDOF 8
ENDMDL
MODEL 3
REMARK VINA RESULT:      -6.6      3.737      7.094
REMARK  8 active torsions:
REMARK  status: ('A' for Active; 'I' for Inactive)
REMARK    1  A    between atoms: C_2  and  S_23 
REMARK    2  A    between atoms: C_2  and  C_12 
REMARK    3  A    between atoms: C_3  and  C_12 
REMARK    4  A    between atoms: N_4  and  C_12 
REMARK       I    between atoms: N_4  and  C_5 
REMARK    5  A    between atoms: C_5  and  C_11 
REMARK    6  A    between atoms: C_11  and  C_22 
REMARK    7  A    between atoms: C_11  and  N_16 
REMARK    8  A    between atoms: C_21  and  C_22 
ROOT
HETATM    1  C           1     -22.166  -5.144  -6.824  0.00  0.00     0.278 C 
ENDROOT
BRANCH   1   2
HETATM    2  C           1     -21.298  -5.610  -5.681  0.00  0.00     0.249 C 
HETATM    3  N           1     -21.450  -6.874  -5.178  0.00  0.00    -0.344 N 
HETATM    4  H           1     -22.143  -7.496  -5.573  0.00  0.00     0.163 HD
HETATM    5  O           1     -20.470  -4.868  -5.210  0.00  0.00    -0.271 OA
BRANCH   3   6
HETATM    6  C           1     -20.615  -7.322  -4.079  0.00  0.00     0.194 C 
BRANCH   6   7
HETATM    7  C           1     -21.497  -7.786  -2.928  0.00  0.00     0.106 C 
BRANCH   7   8
HETATM    8  S           1     -22.074  -6.343  -1.988  0.00  0.00    -0.180 SA
HETATM    9  H           1     -22.997  -5.953  -2.885  0.00  0.00     0.101 HD
ENDBRANCH   7   8
ENDBRANCH   6   7
BRANCH   6  10
HETATM   10  C           1     -19.749  -8.468  -4.542  0.00  0.00     0.197 C 
HETATM   11  O           1     -19.797  -8.847  -5.732  0.00  0.00    -0.646 OA
HETATM   12  O           1     -18.982  -9.036  -3.736  0.00  0.00    -0.646 OA
ENDBRANCH   6  10
ENDBRANCH   3   6
ENDBRANCH   1   2
BRANCH   1  13
HETATM   13  C           1     -21.619  -3.835  -7.377  0.00  0.00     0.081 C 
BRANCH  13  14
HETATM   14  C           1     -21.575  -3.904  -8.871  0.00  0.00    -0.056 A 
HETATM   15  C           1     -20.390  -4.256  -9.518  0.00  0.00     0.007 A 
HETATM   16  C           1     -20.348  -4.320 -10.911  0.00  0.00     0.001 A 
HETATM   17  C           1     -21.491  -4.033 -11.657  0.00  0.00     0.000 A 
HETATM   18  C           1     -22.676  -3.682 -11.010  0.00  0.00     0.001 A 
HETATM   19  C           1     -22.717  -3.617  -9.618  0.00  0.00     0.007 A 
ENDBRANCH  13  14
ENDBRANCH   1  13
BRANCH   1  20
HETATM   20  N           1     -23.567  -4.931  -6.331  0.00  0.00    -0.066 N 
HETATM   21  H           1     -24.091  -4.339  -7.015  0.00  0.00     0.275 HD
HETATM   22  H           1     -24.046  -5.855  -6.231  0.00  0.00     0.275 HD
HETATM   23  H           1     -23.541  -4.451  -5.403  0.00  0.00     0.275 HD
ENDBRANCH   1  20
TORSDOF 8
ENDMDL
MODEL 4
REMARK VINA RESULT:      -6.4      3.536      6.934
REMARK  8 active torsions:
REMARK  status: ('A' for Active; 'I' for Inactive)
REMARK    1  A    between atoms: C_2  and  S_23 
REMARK    2  A    between atoms: C_2  and  C_12 
REMARK    3  A    between atoms: C_3  and  C_12 
REMARK    4  A    between atoms: N_4  and  C_12 
REMARK       I    between atoms: N_4  and  C_5 
REMARK    5  A    between atoms: C_5  and  C_11 
REMARK    6  A    between atoms: C_11  and  C_22 
REMARK    7  A    between atoms: C_11  and  N_16 
REMARK    8  A    between atoms: C_21  and  C_22 
ROOT
HETATM    1  C           1     -20.832  -4.845  -6.613  0.00  0.00     0.278 C 
ENDROOT
BRANCH   1   2
HETATM    2  C           1     -21.616  -5.734  -5.680  0.00  0.00     0.249 C 
HETATM    3  N           1     -20.959  -6.598  -4.846  0.00  0.00    -0.344 N 
HETATM    4  H           1     -19.949  -6.641  -4.855  0.00  0.00     0.163 HD
HETATM    5  O           1     -22.822  -5.684  -5.669  0.00  0.00    -0.271 OA
BRANCH   3   6
HETATM    6  C           1     -21.713  -7.454  -3.950  0.00  0.00     0.194 C 
BRANCH   6   7
HETATM    7  C           1     -21.121  -8.857  -3.968  0.00  0.00     0.106 C 
BRANCH   7   8
HETATM    8  S           1     -19.506  -8.822  -4.796  0.00  0.00    -0.180 SA
HETATM    9  H           1     -19.964  -8.372  -5.978  0.00  0.00     0.101 HD
ENDBRANCH   7   8
ENDBRANCH   6   7
BRANCH   6  10
HETATM   10  C           1     -21.644  -6.898  -2.549  0.00  0.00     0.197 C 
HETATM   11  O           1     -20.863  -7.403  -1.713  0.00  0.00    -0.646 OA
HETATM   12  O           1     -22.365  -5.930  -2.224  0.00  0.00    -0.646 OA
ENDBRANCH   6  10
ENDBRANCH   3   6
ENDBRANCH   1   2
BRANCH   1  13
HETATM   13  C           1     -20.585  -5.577  -7.926  0.00  0.00     0.081 C 
BRANCH  13  14
HETATM   14  C           1     -21.097  -4.750  -9.063  0.00  0.00    -0.056 A 
HETATM   15  C           1     -22.419  -4.303  -9.061  0.00  0.00     0.007 A 
HETATM   16  C           1     -22.897  -3.532 -10.121  0.00  0.00     0.001 A 
HETATM   17  C           1     -22.052  -3.207 -11.183  0.00  0.00     0.000 A 
HETATM   18  C           1     -20.730  -3.652 -11.184  0.00  0.00     0.001 A 
HETATM   19  C           1     -20.253  -4.423 -10.125  0.00  0.00     0.007 A 
ENDBRANCH  13  14
ENDBRANCH   1  13
BRANCH   1  20
HETATM   20  N           1     -19.516  -4.494  -5.982  0.00  0.00    -0.066 N 
HETATM   21  H           1     -18.881  -4.088  -6.705  0.00  0.00     0.275 HD
HETATM   22  H           1     -19.670  -3.796  -5.220  0.00  0.00     0.275 HD
HETATM   23  H           1     -19.082  -5.357  -5.581  0.00  0.00     0.275 HD
ENDBRANCH   1  20
TORSDOF 8
ENDMDL
MODEL 5
REMARK VINA RESULT:      -6.4     12.854     14.343
REMARK  8 active torsions:
REMARK  status: ('A' for Active; 'I' for Inactive)
REMARK    1  A    between atoms: C_2  and  S_23 
REMARK    2  A    between atoms: C_2  and  C_12 
REMARK    3  A    between atoms: C_3  and  C_12 
REMARK    4  A    between atoms: N_4  and  C_12 
REMARK       I    between atoms: N_4  and  C_5 
REMARK    5  A    between atoms: C_5  and  C_11 
REMARK    6  A    between atoms: C_11  and  C_22 
REMARK    7  A    between atoms: C_11  and  N_16 
REMARK    8  A    between atoms: C_21  and  C_22 
ROOT
HETATM    1  C           1     -34.060  -2.846 -11.567  0.00  0.00     0.278 C 
ENDROOT
BRANCH   1   2
HETATM    2  C           1     -34.712  -2.238 -12.784  0.00  0.00     0.249 C 
HETATM    3  N           1     -35.394  -1.056 -12.676  0.00  0.00    -0.344 N 
HETATM    4  H           1     -35.460  -0.590 -11.781  0.00  0.00     0.163 HD
HETATM    5  O           1     -34.634  -2.794 -13.853  0.00  0.00    -0.271 OA
BRANCH   3   6
HETATM    6  C           1     -36.022  -0.471 -13.846  0.00  0.00     0.194 C 
BRANCH   6   7
HETATM    7  C           1     -37.467  -0.114 -13.523  0.00  0.00     0.106 C 
BRANCH   7   8
HETATM    8  S           1     -37.722  -0.190 -11.727  0.00  0.00    -0.180 SA
HETATM    9  H           1     -39.046   0.045 -11.764  0.00  0.00     0.101 HD
ENDBRANCH   7   8
ENDBRANCH   6   7
BRANCH   6  10
HETATM   10  C           1     -35.273   0.776 -14.246  0.00  0.00     0.197 C 
HETATM   11  O           1     -35.506   1.319 -15.348  0.00  0.00    -0.646 OA
HETATM   12  O           1     -34.421   1.268 -13.476  0.00  0.00    -0.646 OA
ENDBRANCH   6  10
ENDBRANCH   3   6
ENDBRANCH   1   2
BRANCH   1  13
HETATM   13  C           1     -35.092  -3.646 -10.784  0.00  0.00     0.081 C 
BRANCH  13  14
HETATM   14  C           1     -34.608  -5.051 -10.609  0.00  0.00    -0.056 A 
HETATM   15  C           1     -35.374  -5.970  -9.891  0.00  0.00     0.007 A 
HETATM   16  C           1     -34.923  -7.280  -9.728  0.00  0.00     0.001 A 
HETATM   17  C           1     -33.704  -7.671 -10.283  0.00  0.00     0.000 A 
HETATM   18  C           1     -32.938  -6.753 -11.001  0.00  0.00     0.001 A 
HETATM   19  C           1     -33.390  -5.444 -11.164  0.00  0.00     0.007 A 
ENDBRANCH  13  14
ENDBRANCH   1  13
BRANCH   1  20
HETATM   20  N           1     -33.509  -1.755 -10.697  0.00  0.00    -0.066 N 
HETATM   21  H           1     -32.479  -1.675 -10.850  0.00  0.00     0.275 HD
HETATM   22  H           1     -33.970  -0.849 -10.941  0.00  0.00     0.275 HD
HETATM   23  H           1     -33.698  -1.981  -9.694  0.00  0.00     0.275 HD
ENDBRANCH   1  20
TORSDOF 8
ENDMDL
MODEL 6
REMARK VINA RESULT:      -6.3     13.047     14.614
REMARK  8 active torsions:
REMARK  status: ('A' for Active; 'I' for Inactive)
REMARK    1  A    between atoms: C_2  and  S_23 
REMARK    2  A    between atoms: C_2  and  C_12 
REMARK    3  A    between atoms: C_3  and  C_12 
REMARK    4  A    between atoms: N_4  and  C_12 
REMARK       I    between atoms: N_4  and  C_5 
REMARK    5  A    between atoms: C_5  and  C_11 
REMARK    6  A    between atoms: C_11  and  C_22 
REMARK    7  A    between atoms: C_11  and  N_16 
REMARK    8  A    between atoms: C_21  and  C_22 
ROOT
HETATM    1  C           1     -34.625  -2.281 -11.923  0.00  0.00     0.278 C 
ENDROOT
BRANCH   1   2
HETATM    2  C           1     -35.516  -1.532 -12.883  0.00  0.00     0.249 C 
HETATM    3  N           1     -35.025  -1.119 -14.092  0.00  0.00    -0.344 N 
HETATM    4  H           1     -34.065  -1.317 -14.343  0.00  0.00     0.163 HD
HETATM    5  O           1     -36.662  -1.295 -12.584  0.00  0.00    -0.271 OA
BRANCH   3   6
HETATM    6  C           1     -35.881  -0.398 -15.015  0.00  0.00     0.194 C 
BRANCH   6   7
HETATM    7  C           1     -35.418   1.049 -15.113  0.00  0.00     0.106 C 
BRANCH   7   8
HETATM    8  S           1     -34.535   1.507 -13.594  0.00  0.00    -0.180 SA
HETATM    9  H           1     -33.595   0.549 -13.685  0.00  0.00     0.101 HD
ENDBRANCH   7   8
ENDBRANCH   6   7
BRANCH   6  10
HETATM   10  C           1     -35.807  -1.043 -16.377  0.00  0.00     0.197 C 
HETATM   11  O           1     -36.725  -0.861 -17.205  0.00  0.00    -0.646 OA
HETATM   12  O           1     -34.827  -1.758 -16.677  0.00  0.00    -0.646 OA
ENDBRANCH   6  10
ENDBRANCH   3   6
ENDBRANCH   1   2
BRANCH   1  13
HETATM   13  C           1     -35.475  -3.188 -11.043  0.00  0.00     0.081 C 
BRANCH  13  14
HETATM   14  C           1     -34.794  -4.511 -10.884  0.00  0.00    -0.056 A 
HETATM   15  C           1     -35.436  -5.551 -10.212  0.00  0.00     0.007 A 
HETATM   16  C           1     -34.802  -6.784 -10.064  0.00  0.00     0.001 A 
HETATM   17  C           1     -33.524  -6.979 -10.589  0.00  0.00     0.000 A 
HETATM   18  C           1     -32.882  -5.940 -11.263  0.00  0.00     0.001 A 
HETATM   19  C           1     -33.517  -4.707 -11.410  0.00  0.00     0.007 A 
ENDBRANCH  13  14
ENDBRANCH   1  13
BRANCH   1  20
HETATM   20  N           1     -33.883  -1.302 -11.062  0.00  0.00    -0.066 N 
HETATM   21  H           1     -32.909  -1.189 -11.422  0.00  0.00     0.275 HD
HETATM   22  H           1     -34.373  -0.379 -11.084  0.00  0.00     0.275 HD
HETATM   23  H           1     -33.853  -1.656 -10.079  0.00  0.00     0.275 HD
ENDBRANCH   1  20
TORSDOF 8
ENDMDL
MODEL 7
REMARK VINA RESULT:      -6.0      4.536      7.087
REMARK  8 active torsions:
REMARK  status: ('A' for Active; 'I' for Inactive)
REMARK    1  A    between atoms: C_2  and  S_23 
REMARK    2  A    between atoms: C_2  and  C_12 
REMARK    3  A    between atoms: C_3  and  C_12 
REMARK    4  A    between atoms: N_4  and  C_12 
REMARK       I    between atoms: N_4  and  C_5 
REMARK    5  A    between atoms: C_5  and  C_11 
REMARK    6  A    between atoms: C_11  and  C_22 
REMARK    7  A    between atoms: C_11  and  N_16 
REMARK    8  A    between atoms: C_21  and  C_22 
ROOT
HETATM    1  C           1     -21.433  -6.234  -5.188  0.00  0.00     0.278 C 
ENDROOT
BRANCH   1   2
HETATM    2  C           1     -20.680  -7.539  -5.268  0.00  0.00     0.249 C 
HETATM    3  N           1     -21.034  -8.584  -4.457  0.00  0.00    -0.344 N 
HETATM    4  H           1     -21.800  -8.481  -3.805  0.00  0.00     0.163 HD
HETATM    5  O           1     -19.765  -7.662  -6.047  0.00  0.00    -0.271 OA
BRANCH   3   6
HETATM    6  C           1     -20.310  -9.839  -4.534  0.00  0.00     0.194 C 
BRANCH   6   7
HETATM    7  C           1     -20.089 -10.385  -3.130  0.00  0.00     0.106 C 
BRANCH   7   8
HETATM    8  S           1     -20.911  -9.305  -1.924  0.00  0.00    -0.180 SA
HETATM    9  H           1     -20.062  -8.271  -2.061  0.00  0.00     0.101 HD
ENDBRANCH   7   8
ENDBRANCH   6   7
BRANCH   6  10
HETATM   10  C           1     -21.111 -10.831  -5.340  0.00  0.00     0.197 C 
HETATM   11  O           1     -20.874 -10.983  -6.558  0.00  0.00    -0.646 OA
HETATM   12  O           1     -22.009 -11.503  -4.789  0.00  0.00    -0.646 OA
ENDBRANCH   6  10
ENDBRANCH   3   6
ENDBRANCH   1   2
BRANCH   1  13
HETATM   13  C           1     -20.537  -5.100  -5.670  0.00  0.00     0.081 C 
BRANCH  13  14
HETATM   14  C           1     -20.942  -4.697  -7.053  0.00  0.00    -0.056 A 
HETATM   15  C           1     -22.266  -4.351  -7.320  0.00  0.00     0.007 A 
HETATM   16  C           1     -22.644  -3.976  -8.609  0.00  0.00     0.001 A 
HETATM   17  C           1     -21.696  -3.946  -9.632  0.00  0.00     0.000 A 
HETATM   18  C           1     -20.371  -4.291  -9.365  0.00  0.00     0.001 A 
HETATM   19  C           1     -19.994  -4.666  -8.076  0.00  0.00     0.007 A 
ENDBRANCH  13  14
ENDBRANCH   1  13
BRANCH   1  20
HETATM   20  N           1     -21.840  -5.979  -3.767  0.00  0.00    -0.066 N 
HETATM   21  H           1     -22.507  -6.721  -3.457  0.00  0.00     0.275 HD
HETATM   22  H           1     -20.993  -5.992  -3.154  0.00  0.00     0.275 HD
HETATM   23  H           1     -22.302  -5.044  -3.700  0.00  0.00     0.275 HD
ENDBRANCH   1  20
TORSDOF 8
ENDMDL
MODEL 8
REMARK VINA RESULT:      -5.9      2.682      3.952
REMARK  8 active torsions:
REMARK  status: ('A' for Active; 'I' for Inactive)
REMARK    1  A    between atoms: C_2  and  S_23 
REMARK    2  A    between atoms: C_2  and  C_12 
REMARK    3  A    between atoms: C_3  and  C_12 
REMARK    4  A    between atoms: N_4  and  C_12 
REMARK       I    between atoms: N_4  and  C_5 
REMARK    5  A    between atoms: C_5  and  C_11 
REMARK    6  A    between atoms: C_11  and  C_22 
REMARK    7  A    between atoms: C_11  and  N_16 
REMARK    8  A    between atoms: C_21  and  C_22 
ROOT
HETATM    1  C           1     -21.542  -7.905  -4.024  0.00  0.00     0.278 C 
ENDROOT
BRANCH   1   2
HETATM    2  C           1     -21.391  -6.562  -4.696  0.00  0.00     0.249 C 
HETATM    3  N           1     -21.519  -6.459  -6.054  0.00  0.00    -0.344 N 
HETATM    4  H           1     -21.716  -7.282  -6.608  0.00  0.00     0.163 HD
HETATM    5  O           1     -21.156  -5.579  -4.035  0.00  0.00    -0.271 OA
BRANCH   3   6
HETATM    6  C           1     -21.373  -5.168  -6.700  0.00  0.00     0.194 C 
BRANCH   6   7
HETATM    7  C           1     -20.479  -5.310  -7.924  0.00  0.00     0.106 C 
BRANCH   7   8
HETATM    8  S           1     -19.116  -4.116  -7.821  0.00  0.00    -0.180 SA
HETATM    9  H           1     -19.146  -3.985  -6.483  0.00  0.00     0.101 HD
ENDBRANCH   7   8
ENDBRANCH   6   7
BRANCH   6  10
HETATM   10  C           1     -22.731  -4.664  -7.125  0.00  0.00     0.197 C 
HETATM   11  O           1     -23.718  -4.820  -6.376  0.00  0.00    -0.646 OA
HETATM   12  O           1     -22.867  -4.087  -8.226  0.00  0.00    -0.646 OA
ENDBRANCH   6  10
ENDBRANCH   3   6
ENDBRANCH   1   2
BRANCH   1  13
HETATM   13  C           1     -20.782  -7.901  -2.704  0.00  0.00     0.081 C 
BRANCH  13  14
HETATM   14  C           1     -21.705  -8.298  -1.595  0.00  0.00    -0.056 A 
HETATM   15  C           1     -22.153  -7.340  -0.685  0.00  0.00     0.007 A 
HETATM   16  C           1     -23.014  -7.709   0.349  0.00  0.00     0.001 A 
HETATM   17  C           1     -23.427  -9.037   0.473  0.00  0.00     0.000 A 
HETATM   18  C           1     -22.979  -9.993  -0.438  0.00  0.00     0.001 A 
HETATM   19  C           1     -22.118  -9.624  -1.471  0.00  0.00     0.007 A 
ENDBRANCH  13  14
ENDBRANCH   1  13
BRANCH   1  20
HETATM   20  N           1     -20.987  -8.975  -4.916  0.00  0.00    -0.066 N 
HETATM   21  H           1     -21.336  -8.832  -5.891  0.00  0.00     0.275 HD
HETATM   22  H           1     -19.942  -8.928  -4.909  0.00  0.00     0.275 HD
HETATM   23  H           1     -21.294  -9.912  -4.569  0.00  0.00     0.275 HD
ENDBRANCH   1  20
TORSDOF 8
ENDMDL
MODEL 9
REMARK VINA RESULT:      -5.9     15.494     17.501
REMARK  8 active torsions:
REMARK  status: ('A' for Active; 'I' for Inactive)
REMARK    1  A    between atoms: C_2  and  S_23 
REMARK    2  A    between atoms: C_2  and  C_12 
REMARK    3  A    between atoms: C_3  and  C_12 
REMARK    4  A    between atoms: N_4  and  C_12 
REMARK       I    between atoms: N_4  and  C_5 
REMARK    5  A    between atoms: C_5  and  C_11 
REMARK    6  A    between atoms: C_11  and  C_22 
REMARK    7  A    between atoms: C_11  and  N_16 
REMARK    8  A    between atoms: C_21  and  C_22 
ROOT
HETATM    1  C           1     -22.729  11.015 -13.059  0.00  0.00     0.278 C 
ENDROOT
BRANCH   1   2
HETATM    2  C           1     -22.641  11.473 -14.494  0.00  0.00     0.249 C 
HETATM    3  N           1     -21.678  10.957 -15.319  0.00  0.00    -0.344 N 
HETATM    4  H           1     -21.027  10.268 -14.968  0.00  0.00     0.163 HD
HETATM    5  O           1     -23.418  12.297 -14.914  0.00  0.00    -0.271 OA
BRANCH   3   6
HETATM    6  C           1     -21.593  11.399 -16.699  0.00  0.00     0.194 C 
BRANCH   6   7
HETATM    7  C           1     -20.327  12.222 -16.891  0.00  0.00     0.106 C 
BRANCH   7   8
HETATM    8  S           1     -18.979  11.499 -15.913  0.00  0.00    -0.180 SA
HETATM    9  H           1     -18.073  12.451 -16.198  0.00  0.00     0.101 HD
ENDBRANCH   7   8
ENDBRANCH   6   7
BRANCH   6  10
HETATM   10  C           1     -21.554  10.196 -17.609  0.00  0.00     0.197 C 
HETATM   11  O           1     -21.658  10.344 -18.845  0.00  0.00    -0.646 OA
HETATM   12  O           1     -21.415   9.051 -17.126  0.00  0.00    -0.646 OA
ENDBRANCH   6  10
ENDBRANCH   3   6
ENDBRANCH   1   2
BRANCH   1  13
HETATM   13  C           1     -24.163  11.157 -12.567  0.00  0.00     0.081 C 
BRANCH  13  14
HETATM   14  C           1     -24.625   9.856 -11.990  0.00  0.00    -0.056 A 
HETATM   15  C           1     -25.753   9.817 -11.171  0.00  0.00     0.007 A 
HETATM   16  C           1     -26.184   8.605 -10.632  0.00  0.00     0.001 A 
HETATM   17  C           1     -25.486   7.430 -10.915  0.00  0.00     0.000 A 
HETATM   18  C           1     -24.359   7.468 -11.735  0.00  0.00     0.001 A 
HETATM   19  C           1     -23.929   8.681 -12.273  0.00  0.00     0.007 A 
ENDBRANCH  13  14
ENDBRANCH   1  13
BRANCH   1  20
HETATM   20  N           1     -21.824  11.857 -12.209  0.00  0.00    -0.066 N 
HETATM   21  H           1     -22.142  12.852 -12.241  0.00  0.00     0.275 HD
HETATM   22  H           1     -21.852  11.512 -11.223  0.00  0.00     0.275 HD
HETATM   23  H           1     -20.846  11.792 -12.572  0.00  0.00     0.275 HD
ENDBRANCH   1  20
TORSDOF 8
ENDMDL
