MODEL 1
REMARK VINA RESULT:      -7.4      0.000      0.000
REMARK  13 active torsions:
REMARK  status: ('A' for Active; 'I' for Inactive)
REMARK    1  A    between atoms: C_2  and  C_28 
REMARK    2  A    between atoms: C_2  and  C_3 
REMARK    3  A    between atoms: C_3  and  C_4 
REMARK    4  A    between atoms: C_4  and  C_5 
REMARK    5  A    between atoms: C_5  and  N_27 
REMARK    6  A    between atoms: N_6  and  C_12 
REMARK       I    between atoms: N_6  and  C_7 
REMARK    7  A    between atoms: C_7  and  C_28 
REMARK       I    between atoms: C_9  and  N_17 
REMARK       I    between atoms: C_9  and  N_24 
REMARK    8  A    between atoms: C_12  and  C_14 
REMARK    9  A    between atoms: C_12  and  C_29 
REMARK   10  A    between atoms: C_14  and  C_30 
REMARK   11  A    between atoms: C_23  and  N_26 
REMARK   12  A    between atoms: C_23  and  C_30 
REMARK   13  A    between atoms: C_28  and  N_32 
ROOT
HETATM    1  H           1     -22.211  -5.853  -9.187  0.00  0.00     0.163 HD
HETATM    2  N           1     -22.153  -4.906  -8.835  0.00  0.00    -0.345 N 
HETATM    3  C           1     -21.632  -4.668  -7.591  0.00  0.00     0.249 C 
HETATM    4  O           1     -21.563  -3.537  -7.171  0.00  0.00    -0.271 OA
ENDROOT
BRANCH   2   5
HETATM    5  C           1     -22.621  -3.801  -9.648  0.00  0.00     0.185 C 
BRANCH   5   6
HETATM    6  C           1     -22.022  -3.910 -11.045  0.00  0.00     0.038 C 
BRANCH   6   7
HETATM    7  C           1     -22.354  -2.654 -11.840  0.00  0.00     0.023 C 
BRANCH   7   8
HETATM    8  C           1     -23.170  -3.032 -13.069  0.00  0.00     0.138 C 
BRANCH   8   9
HETATM    9  N           1     -23.900  -1.852 -13.555  0.00  0.00    -0.227 N 
HETATM   10  C           1     -23.665  -1.395 -14.712  0.00  0.00     0.665 C 
HETATM   11  N           1     -24.310  -0.351 -15.142  0.00  0.00    -0.235 N 
HETATM   12  N           1     -22.802  -1.954 -15.451  0.00  0.00    -0.235 N 
HETATM   13  H           1     -25.023   0.110 -14.532  0.00  0.00     0.174 HD
HETATM   14  H           1     -24.116   0.026 -16.097  0.00  0.00     0.174 HD
HETATM   15  H           1     -22.281  -2.797 -15.104  0.00  0.00     0.174 HD
HETATM   16  H           1     -22.607  -1.575 -16.410  0.00  0.00     0.174 HD
HETATM   17  H           1     -24.615  -1.388 -12.943  0.00  0.00     0.177 HD
ENDBRANCH   8   9
ENDBRANCH   7   8
ENDBRANCH   6   7
ENDBRANCH   5   6
BRANCH   5  18
HETATM   18  C           1     -24.126  -3.847  -9.742  0.00  0.00     0.196 C 
HETATM   19  O           1     -24.698  -4.894 -10.115  0.00  0.00    -0.646 OA
HETATM   20  O           1     -24.800  -2.837  -9.446  0.00  0.00    -0.646 OA
ENDBRANCH   5  18
ENDBRANCH   2   5
BRANCH   3  21
HETATM   21  C           1     -21.146  -5.818  -6.744  0.00  0.00     0.274 C 
BRANCH  21  22
HETATM   22  C           1     -21.007  -5.362  -5.297  0.00  0.00     0.042 C 
BRANCH  22  23
HETATM   23  C           1     -21.466  -6.477  -4.367  0.00  0.00     0.004 C 
BRANCH  23  24
HETATM   24  C           1     -21.366  -6.006  -2.922  0.00  0.00     0.027 C 
BRANCH  24  25
HETATM   25  C           1     -21.497  -7.201  -1.987  0.00  0.00     0.229 C 
BRANCH  25  26
HETATM   26  N           1     -22.491  -6.888  -0.909  0.00  0.00    -0.079 N 
HETATM   27  H           1     -22.009  -6.400  -0.121  0.00  0.00     0.274 HD
HETATM   28  H           1     -23.240  -6.268  -1.294  0.00  0.00     0.274 HD
HETATM   29  H           1     -22.920  -7.775  -0.561  0.00  0.00     0.274 HD
ENDBRANCH  25  26
ENDBRANCH  24  25
ENDBRANCH  23  24
ENDBRANCH  22  23
ENDBRANCH  21  22
BRANCH  21  30
HETATM   30  N           1     -19.812  -6.282  -7.251  0.00  0.00    -0.067 N 
HETATM   31  H           1     -19.927  -6.699  -8.203  0.00  0.00     0.275 HD
HETATM   32  H           1     -19.158  -5.469  -7.304  0.00  0.00     0.275 HD
HETATM   33  H           1     -19.423  -7.002  -6.601  0.00  0.00     0.275 HD
ENDBRANCH  21  30
ENDBRANCH   3  21
TORSDOF 13
ENDMDL
MODEL 2
REMARK VINA RESULT:      -6.6      2.092      3.073
REMARK  13 active torsions:
REMARK  status: ('A' for Active; 'I' for Inactive)
REMARK    1  A    between atoms: C_2  and  C_28 
REMARK    2  A    between atoms: C_2  and  C_3 
REMARK    3  A    between atoms: C_3  and  C_4 
REMARK    4  A    between atoms: C_4  and  C_5 
REMARK    5  A    between atoms: C_5  and  N_27 
REMARK    6  A    between atoms: N_6  and  C_12 
REMARK       I    between atoms: N_6  and  C_7 
REMARK    7  A    between atoms: C_7  and  C_28 
REMARK       I    between atoms: C_9  and  N_17 
REMARK       I    between atoms: C_9  and  N_24 
REMARK    8  A    between atoms: C_12  and  C_14 
REMARK    9  A    between atoms: C_12  and  C_29 
REMARK   10  A    between atoms: C_14  and  C_30 
REMARK   11  A    between atoms: C_23  and  N_26 
REMARK   12  A    between atoms: C_23  and  C_30 
REMARK   13  A    between atoms: C_28  and  N_32 
ROOT
HETATM    1  H           1     -22.789  -5.479  -6.626  0.00  0.00     0.163 HD
HETATM    2  N           1     -21.857  -5.793  -6.863  0.00  0.00    -0.345 N 
HETATM    3  C           1     -21.239  -6.745  -6.097  0.00  0.00     0.249 C 
HETATM    4  O           1     -20.126  -7.119  -6.379  0.00  0.00    -0.271 OA
ENDROOT
BRANCH   2   5
HETATM    5  C           1     -21.175  -5.235  -8.014  0.00  0.00     0.185 C 
BRANCH   5   6
HETATM    6  C           1     -22.200  -4.851  -9.074  0.00  0.00     0.038 C 
BRANCH   6   7
HETATM    7  C           1     -21.488  -4.565 -10.390  0.00  0.00     0.023 C 
BRANCH   7   8
HETATM    8  C           1     -22.162  -3.392 -11.088  0.00  0.00     0.138 C 
BRANCH   8   9
HETATM    9  N           1     -21.948  -3.494 -12.539  0.00  0.00    -0.227 N 
HETATM   10  C           1     -22.773  -2.965 -13.339  0.00  0.00     0.665 C 
HETATM   11  N           1     -22.583  -3.056 -14.622  0.00  0.00    -0.235 N 
HETATM   12  N           1     -23.784  -2.348 -12.891  0.00  0.00    -0.235 N 
HETATM   13  H           1     -21.749  -3.565 -14.992  0.00  0.00     0.174 HD
HETATM   14  H           1     -23.265  -2.620 -15.283  0.00  0.00     0.174 HD
HETATM   15  H           1     -23.937  -2.275 -11.855  0.00  0.00     0.174 HD
HETATM   16  H           1     -24.469  -1.910 -13.555  0.00  0.00     0.174 HD
HETATM   17  H           1     -21.110  -4.006 -12.911  0.00  0.00     0.177 HD
ENDBRANCH   8   9
ENDBRANCH   7   8
ENDBRANCH   6   7
ENDBRANCH   5   6
BRANCH   5  18
HETATM   18  C           1     -20.402  -4.009  -7.595  0.00  0.00     0.196 C 
HETATM   19  O           1     -19.160  -3.974  -7.733  0.00  0.00    -0.646 OA
HETATM   20  O           1     -21.004  -3.028  -7.108  0.00  0.00    -0.646 OA
ENDBRANCH   5  18
ENDBRANCH   2   5
BRANCH   3  21
HETATM   21  C           1     -21.949  -7.326  -4.898  0.00  0.00     0.274 C 
BRANCH  21  22
HETATM   22  C           1     -21.823  -6.369  -3.720  0.00  0.00     0.042 C 
BRANCH  22  23
HETATM   23  C           1     -21.404  -7.144  -2.478  0.00  0.00     0.004 C 
BRANCH  23  24
HETATM   24  C           1     -22.252  -6.701  -1.292  0.00  0.00     0.027 C 
BRANCH  24  25
HETATM   25  C           1     -22.134  -7.727  -0.172  0.00  0.00     0.229 C 
BRANCH  25  26
HETATM   26  N           1     -23.475  -7.925   0.468  0.00  0.00    -0.079 N 
HETATM   27  H           1     -24.092  -8.470  -0.176  0.00  0.00     0.274 HD
HETATM   28  H           1     -23.359  -8.450   1.365  0.00  0.00     0.274 HD
HETATM   29  H           1     -23.909  -6.995   0.664  0.00  0.00     0.274 HD
ENDBRANCH  25  26
ENDBRANCH  24  25
ENDBRANCH  23  24
ENDBRANCH  22  23
ENDBRANCH  21  22
BRANCH  21  30
HETATM   30  N           1     -21.326  -8.643  -4.540  0.00  0.00    -0.067 N 
HETATM   31  H           1     -20.503  -8.819  -5.159  0.00  0.00     0.275 HD
HETATM   32  H           1     -21.014  -8.622  -3.543  0.00  0.00     0.275 HD
HETATM   33  H           1     -22.028  -9.406  -4.670  0.00  0.00     0.275 HD
ENDBRANCH  21  30
ENDBRANCH   3  21
TORSDOF 13
ENDMDL
MODEL 3
REMARK VINA RESULT:      -6.5      2.576      9.801
REMARK  13 active torsions:
REMARK  status: ('A' for Active; 'I' for Inactive)
REMARK    1  A    between atoms: C_2  and  C_28 
REMARK    2  A    between atoms: C_2  and  C_3 
REMARK    3  A    between atoms: C_3  and  C_4 
REMARK    4  A    between atoms: C_4  and  C_5 
REMARK    5  A    between atoms: C_5  and  N_27 
REMARK    6  A    between atoms: N_6  and  C_12 
REMARK       I    between atoms: N_6  and  C_7 
REMARK    7  A    between atoms: C_7  and  C_28 
REMARK       I    between atoms: C_9  and  N_17 
REMARK       I    between atoms: C_9  and  N_24 
REMARK    8  A    between atoms: C_12  and  C_14 
REMARK    9  A    between atoms: C_12  and  C_29 
REMARK   10  A    between atoms: C_14  and  C_30 
REMARK   11  A    between atoms: C_23  and  N_26 
REMARK   12  A    between atoms: C_23  and  C_30 
REMARK   13  A    between atoms: C_28  and  N_32 
ROOT
HETATM    1  H           1     -21.612  -7.209  -7.145  0.00  0.00     0.163 HD
HETATM    2  N           1     -21.184  -6.549  -6.508  0.00  0.00    -0.345 N 
HETATM    3  C           1     -21.009  -5.245  -6.887  0.00  0.00     0.249 C 
HETATM    4  O           1     -20.498  -4.458  -6.127  0.00  0.00    -0.271 OA
ENDROOT
BRANCH   2   5
HETATM    5  C           1     -20.757  -6.984  -5.193  0.00  0.00     0.185 C 
BRANCH   5   6
HETATM    6  C           1     -21.914  -6.847  -4.212  0.00  0.00     0.038 C 
BRANCH   6   7
HETATM    7  C           1     -21.419  -6.190  -2.930  0.00  0.00     0.023 C 
BRANCH   7   8
HETATM    8  C           1     -21.275  -7.244  -1.841  0.00  0.00     0.138 C 
BRANCH   8   9
HETATM    9  N           1     -22.401  -7.138  -0.902  0.00  0.00    -0.227 N 
HETATM   10  C           1     -22.638  -8.079  -0.089  0.00  0.00     0.665 C 
HETATM   11  N           1     -23.634  -7.985   0.741  0.00  0.00    -0.235 N 
HETATM   12  N           1     -21.905  -9.111  -0.084  0.00  0.00    -0.235 N 
HETATM   13  H           1     -24.239  -7.133   0.737  0.00  0.00     0.174 HD
HETATM   14  H           1     -23.829  -8.761   1.413  0.00  0.00     0.174 HD
HETATM   15  H           1     -21.100  -9.187  -0.754  0.00  0.00     0.174 HD
HETATM   16  H           1     -22.101  -9.891   0.591  0.00  0.00     0.174 HD
HETATM   17  H           1     -23.009  -6.283  -0.906  0.00  0.00     0.177 HD
ENDBRANCH   8   9
ENDBRANCH   7   8
ENDBRANCH   6   7
ENDBRANCH   5   6
BRANCH   5  18
HETATM   18  C           1     -20.321  -8.428  -5.257  0.00  0.00     0.196 C 
HETATM   19  O           1     -21.075  -9.328  -4.828  0.00  0.00    -0.646 OA
HETATM   20  O           1     -19.206  -8.722  -5.740  0.00  0.00    -0.646 OA
ENDBRANCH   5  18
ENDBRANCH   2   5
BRANCH   3  21
HETATM   21  C           1     -21.453  -4.792  -8.257  0.00  0.00     0.274 C 
BRANCH  21  22
HETATM   22  C           1     -20.280  -4.149  -8.985  0.00  0.00     0.042 C 
BRANCH  22  23
HETATM   23  C           1     -20.316  -4.546 -10.455  0.00  0.00     0.004 C 
BRANCH  23  24
HETATM   24  C           1     -20.846  -3.382 -11.283  0.00  0.00     0.027 C 
BRANCH  24  25
HETATM   25  C           1     -22.189  -3.763 -11.893  0.00  0.00     0.229 C 
BRANCH  25  26
HETATM   26  N           1     -22.212  -3.367 -13.339  0.00  0.00    -0.079 N 
HETATM   27  H           1     -23.092  -3.715 -13.782  0.00  0.00     0.274 HD
HETATM   28  H           1     -22.173  -2.325 -13.416  0.00  0.00     0.274 HD
HETATM   29  H           1     -21.387  -3.783 -13.828  0.00  0.00     0.274 HD
ENDBRANCH  25  26
ENDBRANCH  24  25
ENDBRANCH  23  24
ENDBRANCH  22  23
ENDBRANCH  21  22
BRANCH  21  30
HETATM   30  N           1     -22.563  -3.792  -8.116  0.00  0.00    -0.067 N 
HETATM   31  H           1     -23.307  -4.183  -7.494  0.00  0.00     0.275 HD
HETATM   32  H           1     -22.187  -2.911  -7.697  0.00  0.00     0.275 HD
HETATM   33  H           1     -22.968  -3.586  -9.057  0.00  0.00     0.275 HD
ENDBRANCH  21  30
ENDBRANCH   3  21
TORSDOF 13
ENDMDL
MODEL 4
REMARK VINA RESULT:      -6.4      2.067      2.874
REMARK  13 active torsions:
REMARK  status: ('A' for Active; 'I' for Inactive)
REMARK    1  A    between atoms: C_2  and  C_28 
REMARK    2  A    between atoms: C_2  and  C_3 
REMARK    3  A    between atoms: C_3  and  C_4 
REMARK    4  A    between atoms: C_4  and  C_5 
REMARK    5  A    between atoms: C_5  and  N_27 
REMARK    6  A    between atoms: N_6  and  C_12 
REMARK       I    between atoms: N_6  and  C_7 
REMARK    7  A    between atoms: C_7  and  C_28 
REMARK       I    between atoms: C_9  and  N_17 
REMARK       I    between atoms: C_9  and  N_24 
REMARK    8  A    between atoms: C_12  and  C_14 
REMARK    9  A    between atoms: C_12  and  C_29 
REMARK   10  A    between atoms: C_14  and  C_30 
REMARK   11  A    between atoms: C_23  and  N_26 
REMARK   12  A    between atoms: C_23  and  C_30 
REMARK   13  A    between atoms: C_28  and  N_32 
ROOT
HETATM    1  H           1     -20.972  -4.050  -6.559  0.00  0.00     0.163 HD
HETATM    2  N           1     -21.210  -4.917  -7.022  0.00  0.00    -0.345 N 
HETATM    3  C           1     -21.141  -6.101  -6.339  0.00  0.00     0.249 C 
HETATM    4  O           1     -21.424  -7.137  -6.893  0.00  0.00    -0.271 OA
ENDROOT
BRANCH   2   5
HETATM    5  C           1     -21.625  -4.906  -8.411  0.00  0.00     0.185 C 
BRANCH   5   6
HETATM    6  C           1     -22.808  -3.961  -8.580  0.00  0.00     0.038 C 
BRANCH   6   7
HETATM    7  C           1     -23.753  -4.513  -9.639  0.00  0.00     0.023 C 
BRANCH   7   8
HETATM    8  C           1     -23.995  -3.454 -10.706  0.00  0.00     0.138 C 
BRANCH   8   9
HETATM    9  N           1     -23.039  -3.640 -11.808  0.00  0.00    -0.227 N 
HETATM   10  C           1     -23.201  -3.019 -12.898  0.00  0.00     0.665 C 
HETATM   11  N           1     -22.356  -3.183 -13.872  0.00  0.00    -0.235 N 
HETATM   12  N           1     -24.187  -2.236 -13.041  0.00  0.00    -0.235 N 
HETATM   13  H           1     -21.543  -3.829 -13.754  0.00  0.00     0.174 HD
HETATM   14  H           1     -22.490  -2.670 -14.772  0.00  0.00     0.174 HD
HETATM   15  H           1     -24.870  -2.104 -12.255  0.00  0.00     0.174 HD
HETATM   16  H           1     -24.321  -1.721 -13.946  0.00  0.00     0.174 HD
HETATM   17  H           1     -22.222  -4.288 -11.690  0.00  0.00     0.177 HD
ENDBRANCH   8   9
ENDBRANCH   7   8
ENDBRANCH   6   7
ENDBRANCH   5   6
BRANCH   5  18
HETATM   18  C           1     -20.480  -4.437  -9.275  0.00  0.00     0.196 C 
HETATM   19  O           1     -20.474  -4.690 -10.499  0.00  0.00    -0.646 OA
HETATM   20  O           1     -19.537  -3.795  -8.764  0.00  0.00    -0.646 OA
ENDBRANCH   5  18
ENDBRANCH   2   5
BRANCH   3  21
HETATM   21  C           1     -20.708  -6.113  -4.893  0.00  0.00     0.274 C 
BRANCH  21  22
HETATM   22  C           1     -21.897  -6.465  -4.009  0.00  0.00     0.042 C 
BRANCH  22  23
HETATM   23  C           1     -21.397  -7.036  -2.688  0.00  0.00     0.004 C 
BRANCH  23  24
HETATM   24  C           1     -22.319  -6.587  -1.560  0.00  0.00     0.027 C 
BRANCH  24  25
HETATM   25  C           1     -22.088  -7.464  -0.337  0.00  0.00     0.229 C 
BRANCH  25  26
HETATM   26  N           1     -23.407  -7.816   0.284  0.00  0.00    -0.079 N 
HETATM   27  H           1     -24.086  -8.080  -0.466  0.00  0.00     0.274 HD
HETATM   28  H           1     -23.281  -8.621   0.938  0.00  0.00     0.274 HD
HETATM   29  H           1     -23.774  -6.992   0.813  0.00  0.00     0.274 HD
ENDBRANCH  25  26
ENDBRANCH  24  25
ENDBRANCH  23  24
ENDBRANCH  22  23
ENDBRANCH  21  22
BRANCH  21  30
HETATM   30  N           1     -20.190  -4.757  -4.516  0.00  0.00    -0.067 N 
HETATM   31  H           1     -19.145  -4.775  -4.501  0.00  0.00     0.275 HD
HETATM   32  H           1     -20.516  -4.053  -5.216  0.00  0.00     0.275 HD
HETATM   33  H           1     -20.547  -4.498  -3.569  0.00  0.00     0.275 HD
ENDBRANCH  21  30
ENDBRANCH   3  21
TORSDOF 13
ENDMDL
MODEL 5
REMARK VINA RESULT:      -6.4      2.770      4.310
REMARK  13 active torsions:
REMARK  status: ('A' for Active; 'I' for Inactive)
REMARK    1  A    between atoms: C_2  and  C_28 
REMARK    2  A    between atoms: C_2  and  C_3 
REMARK    3  A    between atoms: C_3  and  C_4 
REMARK    4  A    between atoms: C_4  and  C_5 
REMARK    5  A    between atoms: C_5  and  N_27 
REMARK    6  A    between atoms: N_6  and  C_12 
REMARK       I    between atoms: N_6  and  C_7 
REMARK    7  A    between atoms: C_7  and  C_28 
REMARK       I    between atoms: C_9  and  N_17 
REMARK       I    between atoms: C_9  and  N_24 
REMARK    8  A    between atoms: C_12  and  C_14 
REMARK    9  A    between atoms: C_12  and  C_29 
REMARK   10  A    between atoms: C_14  and  C_30 
REMARK   11  A    between atoms: C_23  and  N_26 
REMARK   12  A    between atoms: C_23  and  C_30 
REMARK   13  A    between atoms: C_28  and  N_32 
ROOT
HETATM    1  H           1     -20.997  -4.519  -4.714  0.00  0.00     0.163 HD
HETATM    2  N           1     -21.200  -5.415  -5.137  0.00  0.00    -0.345 N 
HETATM    3  C           1     -21.352  -6.526  -4.351  0.00  0.00     0.249 C 
HETATM    4  O           1     -21.594  -7.596  -4.856  0.00  0.00    -0.271 OA
ENDROOT
BRANCH   2   5
HETATM    5  C           1     -21.328  -5.525  -6.577  0.00  0.00     0.185 C 
BRANCH   5   6
HETATM    6  C           1     -22.084  -4.315  -7.112  0.00  0.00     0.038 C 
BRANCH   6   7
HETATM    7  C           1     -22.550  -4.594  -8.535  0.00  0.00     0.023 C 
BRANCH   7   8
HETATM    8  C           1     -22.182  -3.418  -9.430  0.00  0.00     0.138 C 
BRANCH   8   9
HETATM    9  N           1     -22.537  -3.731 -10.822  0.00  0.00    -0.227 N 
HETATM   10  C           1     -21.728  -3.462 -11.757  0.00  0.00     0.665 C 
HETATM   11  N           1     -22.042  -3.739 -12.988  0.00  0.00    -0.235 N 
HETATM   12  N           1     -20.612  -2.924 -11.494  0.00  0.00    -0.235 N 
HETATM   13  H           1     -22.962  -4.183 -13.205  0.00  0.00     0.174 HD
HETATM   14  H           1     -21.374  -3.517 -13.760  0.00  0.00     0.174 HD
HETATM   15  H           1     -20.359  -2.701 -10.500  0.00  0.00     0.174 HD
HETATM   16  H           1     -19.941  -2.701 -12.270  0.00  0.00     0.174 HD
HETATM   17  H           1     -23.462  -4.177 -11.040  0.00  0.00     0.177 HD
ENDBRANCH   8   9
ENDBRANCH   7   8
ENDBRANCH   6   7
ENDBRANCH   5   6
BRANCH   5  18
HETATM   18  C           1     -19.956  -5.577  -7.202  0.00  0.00     0.196 C 
HETATM   19  O           1     -19.395  -6.678  -7.390  0.00  0.00    -0.646 OA
HETATM   20  O           1     -19.380  -4.517  -7.532  0.00  0.00    -0.646 OA
ENDBRANCH   5  18
ENDBRANCH   2   5
BRANCH   3  21
HETATM   21  C           1     -21.217  -6.412  -2.851  0.00  0.00     0.274 C 
BRANCH  21  22
HETATM   22  C           1     -20.852  -7.772  -2.269  0.00  0.00     0.042 C 
BRANCH  22  23
HETATM   23  C           1     -21.891  -8.176  -1.232  0.00  0.00     0.004 C 
BRANCH  23  24
HETATM   24  C           1     -21.217  -8.342   0.124  0.00  0.00     0.027 C 
BRANCH  24  25
HETATM   25  C           1     -22.235  -8.097   1.230  0.00  0.00     0.229 C 
BRANCH  25  26
HETATM   26  N           1     -23.603  -7.965   0.632  0.00  0.00    -0.079 N 
HETATM   27  H           1     -23.829  -8.825   0.084  0.00  0.00     0.274 HD
HETATM   28  H           1     -24.308  -7.843   1.395  0.00  0.00     0.274 HD
HETATM   29  H           1     -23.628  -7.132   0.000  0.00  0.00     0.274 HD
ENDBRANCH  25  26
ENDBRANCH  24  25
ENDBRANCH  23  24
ENDBRANCH  22  23
ENDBRANCH  21  22
BRANCH  21  30
HETATM   30  N           1     -22.520  -5.952  -2.267  0.00  0.00    -0.067 N 
HETATM   31  H           1     -22.933  -5.210  -2.876  0.00  0.00     0.275 HD
HETATM   32  H           1     -23.180  -6.760  -2.208  0.00  0.00     0.275 HD
HETATM   33  H           1     -22.356  -5.565  -1.310  0.00  0.00     0.275 HD
ENDBRANCH  21  30
ENDBRANCH   3  21
TORSDOF 13
ENDMDL
MODEL 6
REMARK VINA RESULT:      -6.3      3.276      4.954
REMARK  13 active torsions:
REMARK  status: ('A' for Active; 'I' for Inactive)
REMARK    1  A    between atoms: C_2  and  C_28 
REMARK    2  A    between atoms: C_2  and  C_3 
REMARK    3  A    between atoms: C_3  and  C_4 
REMARK    4  A    between atoms: C_4  and  C_5 
REMARK    5  A    between atoms: C_5  and  N_27 
REMARK    6  A    between atoms: N_6  and  C_12 
REMARK       I    between atoms: N_6  and  C_7 
REMARK    7  A    between atoms: C_7  and  C_28 
REMARK       I    between atoms: C_9  and  N_17 
REMARK       I    between atoms: C_9  and  N_24 
REMARK    8  A    between atoms: C_12  and  C_14 
REMARK    9  A    between atoms: C_12  and  C_29 
REMARK   10  A    between atoms: C_14  and  C_30 
REMARK   11  A    between atoms: C_23  and  N_26 
REMARK   12  A    between atoms: C_23  and  C_30 
REMARK   13  A    between atoms: C_28  and  N_32 
ROOT
HETATM    1  H           1     -21.755  -4.865  -4.246  0.00  0.00     0.163 HD
HETATM    2  N           1     -21.590  -5.772  -4.663  0.00  0.00    -0.345 N 
HETATM    3  C           1     -21.344  -6.858  -3.867  0.00  0.00     0.249 C 
HETATM    4  O           1     -21.146  -7.940  -4.364  0.00  0.00    -0.271 OA
ENDROOT
BRANCH   2   5
HETATM    5  C           1     -21.612  -5.921  -6.105  0.00  0.00     0.185 C 
BRANCH   5   6
HETATM    6  C           1     -22.644  -4.969  -6.698  0.00  0.00     0.038 C 
BRANCH   6   7
HETATM    7  C           1     -21.938  -3.912  -7.535  0.00  0.00     0.023 C 
BRANCH   7   8
HETATM    8  C           1     -22.604  -3.817  -8.901  0.00  0.00     0.138 C 
BRANCH   8   9
HETATM    9  N           1     -24.051  -3.624  -8.730  0.00  0.00    -0.227 N 
HETATM   10  C           1     -24.806  -3.567  -9.744  0.00  0.00     0.665 C 
HETATM   11  N           1     -26.086  -3.397  -9.593  0.00  0.00    -0.235 N 
HETATM   12  N           1     -24.315  -3.676 -10.907  0.00  0.00    -0.235 N 
HETATM   13  H           1     -26.491  -3.307  -8.634  0.00  0.00     0.174 HD
HETATM   14  H           1     -26.709  -3.349 -10.431  0.00  0.00     0.174 HD
HETATM   15  H           1     -23.281  -3.813 -11.029  0.00  0.00     0.174 HD
HETATM   16  H           1     -24.941  -3.628 -11.748  0.00  0.00     0.174 HD
HETATM   17  H           1     -24.458  -3.534  -7.767  0.00  0.00     0.177 HD
ENDBRANCH   8   9
ENDBRANCH   7   8
ENDBRANCH   6   7
ENDBRANCH   5   6
BRANCH   5  18
HETATM   18  C           1     -20.249  -5.597  -6.665  0.00  0.00     0.196 C 
HETATM   19  O           1     -19.837  -6.186  -7.688  0.00  0.00    -0.646 OA
HETATM   20  O           1     -19.532  -4.740  -6.105  0.00  0.00    -0.646 OA
ENDBRANCH   5  18
ENDBRANCH   2   5
BRANCH   3  21
HETATM   21  C           1     -21.320  -6.702  -2.365  0.00  0.00     0.274 C 
BRANCH  21  22
HETATM   22  C           1     -21.669  -8.032  -1.710  0.00  0.00     0.042 C 
BRANCH  22  23
HETATM   23  C           1     -22.046  -7.798  -0.253  0.00  0.00     0.004 C 
BRANCH  23  24
HETATM   24  C           1     -23.085  -8.827   0.174  0.00  0.00     0.027 C 
BRANCH  24  25
HETATM   25  C           1     -22.869 -10.119  -0.602  0.00  0.00     0.229 C 
BRANCH  25  26
HETATM   26  N           1     -22.101 -11.090   0.245  0.00  0.00    -0.079 N 
HETATM   27  H           1     -21.909 -11.957  -0.304  0.00  0.00     0.274 HD
HETATM   28  H           1     -21.196 -10.657   0.539  0.00  0.00     0.274 HD
HETATM   29  H           1     -22.662 -11.331   1.094  0.00  0.00     0.274 HD
ENDBRANCH  25  26
ENDBRANCH  24  25
ENDBRANCH  23  24
ENDBRANCH  22  23
ENDBRANCH  21  22
BRANCH  21  30
HETATM   30  N           1     -22.323  -5.665  -1.955  0.00  0.00    -0.067 N 
HETATM   31  H           1     -21.908  -5.051  -1.219  0.00  0.00     0.275 HD
HETATM   32  H           1     -22.584  -5.086  -2.785  0.00  0.00     0.275 HD
HETATM   33  H           1     -23.176  -6.136  -1.576  0.00  0.00     0.275 HD
ENDBRANCH  21  30
ENDBRANCH   3  21
TORSDOF 13
ENDMDL
MODEL 7
REMARK VINA RESULT:      -6.0      3.391      9.961
REMARK  13 active torsions:
REMARK  status: ('A' for Active; 'I' for Inactive)
REMARK    1  A    between atoms: C_2  and  C_28 
REMARK    2  A    between atoms: C_2  and  C_3 
REMARK    3  A    between atoms: C_3  and  C_4 
REMARK    4  A    between atoms: C_4  and  C_5 
REMARK    5  A    between atoms: C_5  and  N_27 
REMARK    6  A    between atoms: N_6  and  C_12 
REMARK       I    between atoms: N_6  and  C_7 
REMARK    7  A    between atoms: C_7  and  C_28 
REMARK       I    between atoms: C_9  and  N_17 
REMARK       I    between atoms: C_9  and  N_24 
REMARK    8  A    between atoms: C_12  and  C_14 
REMARK    9  A    between atoms: C_12  and  C_29 
REMARK   10  A    between atoms: C_14  and  C_30 
REMARK   11  A    between atoms: C_23  and  N_26 
REMARK   12  A    between atoms: C_23  and  C_30 
REMARK   13  A    between atoms: C_28  and  N_32 
ROOT
HETATM    1  H           1     -19.933  -6.662  -4.824  0.00  0.00     0.163 HD
HETATM    2  N           1     -20.944  -6.682  -4.783  0.00  0.00    -0.345 N 
HETATM    3  C           1     -21.679  -5.887  -5.621  0.00  0.00     0.249 C 
HETATM    4  O           1     -22.885  -5.910  -5.573  0.00  0.00    -0.271 OA
ENDROOT
BRANCH   2   5
HETATM    5  C           1     -21.614  -7.551  -3.836  0.00  0.00     0.185 C 
BRANCH   5   6
HETATM    6  C           1     -20.921  -8.907  -3.814  0.00  0.00     0.038 C 
BRANCH   6   7
HETATM    7  C           1     -21.968 -10.013  -3.804  0.00  0.00     0.023 C 
BRANCH   7   8
HETATM    8  C           1     -21.751 -10.908  -2.591  0.00  0.00     0.138 C 
BRANCH   8   9
HETATM    9  N           1     -22.997 -10.996  -1.816  0.00  0.00    -0.227 N 
HETATM   10  C           1     -23.061 -10.486  -0.659  0.00  0.00     0.665 C 
HETATM   11  N           1     -24.163 -10.565   0.026  0.00  0.00    -0.235 N 
HETATM   12  N           1     -22.051  -9.900  -0.169  0.00  0.00    -0.235 N 
HETATM   13  H           1     -24.996 -11.048  -0.379  0.00  0.00     0.174 HD
HETATM   14  H           1     -24.215 -10.144   0.980  0.00  0.00     0.174 HD
HETATM   15  H           1     -21.161  -9.837  -0.722  0.00  0.00     0.174 HD
HETATM   16  H           1     -22.104  -9.478   0.791  0.00  0.00     0.174 HD
HETATM   17  H           1     -23.834 -11.482  -2.222  0.00  0.00     0.177 HD
ENDBRANCH   8   9
ENDBRANCH   7   8
ENDBRANCH   6   7
ENDBRANCH   5   6
BRANCH   5  18
HETATM   18  C           1     -21.558  -6.935  -2.460  0.00  0.00     0.196 C 
HETATM   19  O           1     -20.849  -7.454  -1.570  0.00  0.00    -0.646 OA
HETATM   20  O           1     -22.220  -5.904  -2.210  0.00  0.00    -0.646 OA
ENDBRANCH   5  18
ENDBRANCH   2   5
BRANCH   3  21
HETATM   21  C           1     -20.981  -4.981  -6.607  0.00  0.00     0.274 C 
BRANCH  21  22
HETATM   22  C           1     -22.017  -4.179  -7.383  0.00  0.00     0.042 C 
BRANCH  22  23
HETATM   23  C           1     -22.076  -4.682  -8.820  0.00  0.00     0.004 C 
BRANCH  23  24
HETATM   24  C           1     -22.911  -3.723  -9.659  0.00  0.00     0.027 C 
BRANCH  24  25
HETATM   25  C           1     -24.197  -4.415 -10.092  0.00  0.00     0.229 C 
BRANCH  25  26
HETATM   26  N           1     -25.376  -3.595  -9.662  0.00  0.00    -0.079 N 
HETATM   27  H           1     -26.180  -4.227  -9.444  0.00  0.00     0.274 HD
HETATM   28  H           1     -25.126  -3.044  -8.810  0.00  0.00     0.274 HD
HETATM   29  H           1     -25.646  -2.941 -10.432  0.00  0.00     0.274 HD
ENDBRANCH  25  26
ENDBRANCH  24  25
ENDBRANCH  23  24
ENDBRANCH  22  23
ENDBRANCH  21  22
BRANCH  21  30
HETATM   30  N           1     -20.173  -5.811  -7.561  0.00  0.00    -0.067 N 
HETATM   31  H           1     -20.803  -6.215  -8.291  0.00  0.00     0.275 HD
HETATM   32  H           1     -19.450  -5.211  -8.019  0.00  0.00     0.275 HD
HETATM   33  H           1     -19.704  -6.585  -7.039  0.00  0.00     0.275 HD
ENDBRANCH  21  30
ENDBRANCH   3  21
TORSDOF 13
ENDMDL
MODEL 8
REMARK VINA RESULT:      -6.0      3.544      9.588
REMARK  13 active torsions:
REMARK  status: ('A' for Active; 'I' for Inactive)
REMARK    1  A    between atoms: C_2  and  C_28 
REMARK    2  A    between atoms: C_2  and  C_3 
REMARK    3  A    between atoms: C_3  and  C_4 
REMARK    4  A    between atoms: C_4  and  C_5 
REMARK    5  A    between atoms: C_5  and  N_27 
REMARK    6  A    between atoms: N_6  and  C_12 
REMARK       I    between atoms: N_6  and  C_7 
REMARK    7  A    between atoms: C_7  and  C_28 
REMARK       I    between atoms: C_9  and  N_17 
REMARK       I    between atoms: C_9  and  N_24 
REMARK    8  A    between atoms: C_12  and  C_14 
REMARK    9  A    between atoms: C_12  and  C_29 
REMARK   10  A    between atoms: C_14  and  C_30 
REMARK   11  A    between atoms: C_23  and  N_26 
REMARK   12  A    between atoms: C_23  and  C_30 
REMARK   13  A    between atoms: C_28  and  N_32 
ROOT
HETATM    1  H           1     -21.942  -6.333  -6.435  0.00  0.00     0.163 HD
HETATM    2  N           1     -21.281  -6.013  -5.740  0.00  0.00    -0.345 N 
HETATM    3  C           1     -20.625  -4.824  -5.913  0.00  0.00     0.249 C 
HETATM    4  O           1     -19.835  -4.443  -5.083  0.00  0.00    -0.271 OA
ENDROOT
BRANCH   2   5
HETATM    5  C           1     -21.027  -6.815  -4.559  0.00  0.00     0.185 C 
BRANCH   5   6
HETATM    6  C           1     -22.247  -6.773  -3.646  0.00  0.00     0.038 C 
BRANCH   6   7
HETATM    7  C           1     -21.852  -6.188  -2.297  0.00  0.00     0.023 C 
BRANCH   7   8
HETATM    8  C           1     -21.175  -7.262  -1.455  0.00  0.00     0.138 C 
BRANCH   8   9
HETATM    9  N           1     -21.971  -8.497  -1.502  0.00  0.00    -0.227 N 
HETATM   10  C           1     -22.535  -8.926  -0.453  0.00  0.00     0.665 C 
HETATM   11  N           1     -23.239 -10.018  -0.495  0.00  0.00    -0.235 N 
HETATM   12  N           1     -22.414  -8.292   0.636  0.00  0.00    -0.235 N 
HETATM   13  H           1     -23.339 -10.541  -1.393  0.00  0.00     0.174 HD
HETATM   14  H           1     -23.705 -10.372   0.371  0.00  0.00     0.174 HD
HETATM   15  H           1     -21.845  -7.410   0.670  0.00  0.00     0.174 HD
HETATM   16  H           1     -22.882  -8.648   1.506  0.00  0.00     0.174 HD
HETATM   17  H           1     -22.072  -9.023  -2.405  0.00  0.00     0.177 HD
ENDBRANCH   8   9
ENDBRANCH   7   8
ENDBRANCH   6   7
ENDBRANCH   5   6
BRANCH   5  18
HETATM   18  C           1     -20.755  -8.241  -4.968  0.00  0.00     0.196 C 
HETATM   19  O           1     -20.144  -9.009  -4.194  0.00  0.00    -0.646 OA
HETATM   20  O           1     -21.140  -8.654  -6.084  0.00  0.00    -0.646 OA
ENDBRANCH   5  18
ENDBRANCH   2   5
BRANCH   3  21
HETATM   21  C           1     -20.888  -3.989  -7.143  0.00  0.00     0.274 C 
BRANCH  21  22
HETATM   22  C           1     -22.191  -4.437  -7.792  0.00  0.00     0.042 C 
BRANCH  22  23
HETATM   23  C           1     -22.382  -3.698  -9.110  0.00  0.00     0.004 C 
BRANCH  23  24
HETATM   24  C           1     -23.362  -4.468  -9.987  0.00  0.00     0.027 C 
BRANCH  24  25
HETATM   25  C           1     -24.400  -3.508 -10.553  0.00  0.00     0.229 C 
BRANCH  25  26
HETATM   26  N           1     -25.641  -3.560  -9.713  0.00  0.00    -0.079 N 
HETATM   27  H           1     -25.492  -3.013  -8.836  0.00  0.00     0.274 HD
HETATM   28  H           1     -26.441  -3.150 -10.247  0.00  0.00     0.274 HD
HETATM   29  H           1     -25.857  -4.554  -9.472  0.00  0.00     0.274 HD
ENDBRANCH  25  26
ENDBRANCH  24  25
ENDBRANCH  23  24
ENDBRANCH  22  23
ENDBRANCH  21  22
BRANCH  21  30
HETATM   30  N           1     -19.760  -4.165  -8.115  0.00  0.00    -0.067 N 
HETATM   31  H           1     -19.017  -4.760  -7.684  0.00  0.00     0.275 HD
HETATM   32  H           1     -20.116  -4.626  -8.983  0.00  0.00     0.275 HD
HETATM   33  H           1     -19.359  -3.230  -8.357  0.00  0.00     0.275 HD
ENDBRANCH  21  30
ENDBRANCH   3  21
TORSDOF 13
ENDMDL
MODEL 9
REMARK VINA RESULT:      -5.8      3.525      9.702
REMARK  13 active torsions:
REMARK  status: ('A' for Active; 'I' for Inactive)
REMARK    1  A    between atoms: C_2  and  C_28 
REMARK    2  A    between atoms: C_2  and  C_3 
REMARK    3  A    between atoms: C_3  and  C_4 
REMARK    4  A    between atoms: C_4  and  C_5 
REMARK    5  A    between atoms: C_5  and  N_27 
REMARK    6  A    between atoms: N_6  and  C_12 
REMARK       I    between atoms: N_6  and  C_7 
REMARK    7  A    between atoms: C_7  and  C_28 
REMARK       I    between atoms: C_9  and  N_17 
REMARK       I    between atoms: C_9  and  N_24 
REMARK    8  A    between atoms: C_12  and  C_14 
REMARK    9  A    between atoms: C_12  and  C_29 
REMARK   10  A    between atoms: C_14  and  C_30 
REMARK   11  A    between atoms: C_23  and  N_26 
REMARK   12  A    between atoms: C_23  and  C_30 
REMARK   13  A    between atoms: C_28  and  N_32 
ROOT
HETATM    1  H           1     -19.813  -6.586  -5.030  0.00  0.00     0.163 HD
HETATM    2  N           1     -20.823  -6.526  -5.010  0.00  0.00    -0.345 N 
HETATM    3  C           1     -21.471  -5.618  -5.804  0.00  0.00     0.249 C 
HETATM    4  O           1     -22.676  -5.546  -5.780  0.00  0.00    -0.271 OA
ENDROOT
BRANCH   2   5
HETATM    5  C           1     -21.584  -7.402  -4.141  0.00  0.00     0.185 C 
BRANCH   5   6
HETATM    6  C           1     -20.999  -8.807  -4.199  0.00  0.00     0.038 C 
BRANCH   6   7
HETATM    7  C           1     -19.645  -8.766  -4.895  0.00  0.00     0.023 C 
BRANCH   7   8
HETATM    8  C           1     -18.575  -9.311  -3.959  0.00  0.00     0.138 C 
BRANCH   8   9
HETATM    9  N           1     -19.215 -10.000  -2.829  0.00  0.00    -0.227 N 
HETATM   10  C           1     -18.518 -10.696  -2.035  0.00  0.00     0.665 C 
HETATM   11  N           1     -19.084 -11.305  -1.036  0.00  0.00    -0.235 N 
HETATM   12  N           1     -17.268 -10.800  -2.213  0.00  0.00    -0.235 N 
HETATM   13  H           1     -20.115 -11.220  -0.889  0.00  0.00     0.174 HD
HETATM   14  H           1     -18.508 -11.880  -0.380  0.00  0.00     0.174 HD
HETATM   15  H           1     -16.811 -10.308  -3.020  0.00  0.00     0.174 HD
HETATM   16  H           1     -16.690 -11.377  -1.554  0.00  0.00     0.174 HD
HETATM   17  H           1     -20.251  -9.915  -2.681  0.00  0.00     0.177 HD
ENDBRANCH   8   9
ENDBRANCH   7   8
ENDBRANCH   6   7
ENDBRANCH   5   6
BRANCH   5  18
HETATM   18  C           1     -21.516  -6.887  -2.724  0.00  0.00     0.196 C 
HETATM   19  O           1     -22.242  -5.933  -2.369  0.00  0.00    -0.646 OA
HETATM   20  O           1     -20.733  -7.415  -1.906  0.00  0.00    -0.646 OA
ENDBRANCH   5  18
ENDBRANCH   2   5
BRANCH   3  21
HETATM   21  C           1     -20.678  -4.705  -6.708  0.00  0.00     0.274 C 
BRANCH  21  22
HETATM   22  C           1     -21.589  -3.610  -7.250  0.00  0.00     0.042 C 
BRANCH  22  23
HETATM   23  C           1     -21.924  -3.903  -8.707  0.00  0.00     0.004 C 
BRANCH  23  24
HETATM   24  C           1     -23.392  -4.292  -8.821  0.00  0.00     0.027 C 
BRANCH  24  25
HETATM   25  C           1     -24.058  -3.450  -9.902  0.00  0.00     0.229 C 
BRANCH  25  26
HETATM   26  N           1     -25.547  -3.515  -9.740  0.00  0.00    -0.079 N 
HETATM   27  H           1     -26.005  -2.982 -10.514  0.00  0.00     0.274 HD
HETATM   28  H           1     -25.859  -4.512  -9.772  0.00  0.00     0.274 HD
HETATM   29  H           1     -25.817  -3.096  -8.821  0.00  0.00     0.274 HD
ENDBRANCH  25  26
ENDBRANCH  24  25
ENDBRANCH  23  24
ENDBRANCH  22  23
ENDBRANCH  21  22
BRANCH  21  30
HETATM   30  N           1     -20.118  -5.499  -7.851  0.00  0.00    -0.067 N 
HETATM   31  H           1     -20.771  -6.281  -8.085  0.00  0.00     0.275 HD
HETATM   32  H           1     -20.004  -4.879  -8.684  0.00  0.00     0.275 HD
HETATM   33  H           1     -19.188  -5.893  -7.579  0.00  0.00     0.275 HD
ENDBRANCH  21  30
ENDBRANCH   3  21
TORSDOF 13
ENDMDL
