MODEL 1
REMARK VINA RESULT:      -5.2      0.000      0.000
REMARK  6 active torsions:
REMARK  status: ('A' for Active; 'I' for Inactive)
REMARK    1  A    between atoms: C_1  and  C_2 
REMARK       I    between atoms: C_2  and  N_3 
REMARK    2  A    between atoms: N_3  and  C_10 
REMARK    3  A    between atoms: Se_7  and  C_19 
REMARK    4  A    between atoms: C_9  and  C_10 
REMARK    5  A    between atoms: C_10  and  C_11 
REMARK    6  A    between atoms: C_11  and  C_19 
ROOT
HETATM    1  C           1     -33.736  -2.833 -12.028  0.00  0.00     0.249 C 
HETATM    2  N           1     -34.747  -2.010 -12.445  0.00  0.00    -0.345 N 
HETATM    3  O           1     -33.175  -2.618 -10.980  0.00  0.00    -0.271 OA
HETATM    4  H           1     -35.217  -2.191 -13.322  0.00  0.00     0.163 HD
ENDROOT
BRANCH   1   5
HETATM    5  C           1     -33.322  -4.010 -12.877  0.00  0.00     0.274 C 
HETATM    6  C           1     -34.537  -4.879 -13.169  0.00  0.00     0.042 C 
HETATM    7  C           1     -35.129  -5.383 -11.859  0.00  0.00     0.003 C 
HETATM    8 Se           1     -33.794  -6.434 -10.904  0.00  0.00     0.000 Se
HETATM    9  C           1     -34.952  -6.831  -9.389  0.00  0.00     0.000 C 
HETATM   10  H           1     -32.700  -5.163 -11.243  0.00  0.00     0.275 HD
HETATM   11  N           1     -32.294  -4.818 -12.143  0.00  0.00    -0.067 N 
HETATM   12  H           1     -32.007  -5.634 -12.730  0.00  0.00     0.275 HD
HETATM   13  H           1     -31.459  -4.222 -11.943  0.00  0.00     0.275 HD
ENDBRANCH   1   5
BRANCH   2  14
HETATM   14  C           1     -35.145  -0.879 -11.628  0.00  0.00     0.185 C 
BRANCH  14  15
HETATM   15  C           1     -36.105  -1.344 -10.561  0.00  0.00     0.196 C 
HETATM   16  O           1     -36.265  -0.663  -9.524  0.00  0.00    -0.646 OA
HETATM   17  O           1     -36.741  -2.410 -10.712  0.00  0.00    -0.646 OA
ENDBRANCH  14  15
BRANCH  14  18
HETATM   18  C           1     -35.825   0.164 -12.504  0.00  0.00     0.036 C 
BRANCH  18  19
HETATM   19  C           1     -35.023   0.354 -13.785  0.00  0.00     0.003 C 
BRANCH  19  20
HETATM   20 Se           1     -36.241   0.549 -15.293  0.00  0.00     0.000 Se
HETATM   21  C           1     -35.555  -1.000 -16.258  0.00  0.00     0.000 C 
ENDBRANCH  19  20
ENDBRANCH  18  19
ENDBRANCH  14  18
ENDBRANCH   2  14
TORSDOF 6
ENDMDL
MODEL 2
REMARK VINA RESULT:      -5.0      1.896      2.478
REMARK  6 active torsions:
REMARK  status: ('A' for Active; 'I' for Inactive)
REMARK    1  A    between atoms: C_1  and  C_2 
REMARK       I    between atoms: C_2  and  N_3 
REMARK    2  A    between atoms: N_3  and  C_10 
REMARK    3  A    between atoms: Se_7  and  C_19 
REMARK    4  A    between atoms: C_9  and  C_10 
REMARK    5  A    between atoms: C_10  and  C_11 
REMARK    6  A    between atoms: C_11  and  C_19 
ROOT
HETATM    1  C           1     -34.500  -2.256 -10.787  0.00  0.00     0.249 C 
HETATM    2  N           1     -35.683  -1.785 -11.291  0.00  0.00    -0.345 N 
HETATM    3  O           1     -33.602  -1.487 -10.538  0.00  0.00    -0.271 OA
HETATM    4  H           1     -36.436  -2.429 -11.499  0.00  0.00     0.163 HD
ENDROOT
BRANCH   1   5
HETATM    5  C           1     -34.319  -3.733 -10.541  0.00  0.00     0.274 C 
HETATM    6  C           1     -33.030  -4.204 -11.200  0.00  0.00     0.042 C 
HETATM    7  C           1     -33.100  -3.943 -12.699  0.00  0.00     0.003 C 
HETATM    8 Se           1     -34.608  -4.917 -13.458  0.00  0.00     0.000 Se
HETATM    9  C           1     -34.297  -4.302 -15.281  0.00  0.00     0.000 C 
HETATM   10  H           1     -35.528  -4.302 -12.154  0.00  0.00     0.275 HD
HETATM   11  N           1     -35.480  -4.482 -11.126  0.00  0.00    -0.067 N 
HETATM   12  H           1     -35.355  -5.506 -10.956  0.00  0.00     0.275 HD
HETATM   13  H           1     -36.365  -4.160 -10.673  0.00  0.00     0.275 HD
ENDBRANCH   1   5
BRANCH   2  14
HETATM   14  C           1     -35.858  -0.365 -11.527  0.00  0.00     0.185 C 
BRANCH  14  15
HETATM   15  C           1     -36.838   0.194 -10.524  0.00  0.00     0.196 C 
HETATM   16  O           1     -36.480   0.390  -9.342  0.00  0.00    -0.646 OA
HETATM   17  O           1     -38.008   0.460 -10.875  0.00  0.00    -0.646 OA
ENDBRANCH  14  15
BRANCH  14  18
HETATM   18  C           1     -36.392  -0.147 -12.936  0.00  0.00     0.036 C 
BRANCH  18  19
HETATM   19  C           1     -35.280   0.397 -13.823  0.00  0.00     0.003 C 
BRANCH  19  20
HETATM   20 Se           1     -36.002   0.834 -15.579  0.00  0.00     0.000 Se
HETATM   21  C           1     -35.725  -0.948 -16.318  0.00  0.00     0.000 C 
ENDBRANCH  19  20
ENDBRANCH  18  19
ENDBRANCH  14  18
ENDBRANCH   2  14
TORSDOF 6
ENDMDL
MODEL 3
REMARK VINA RESULT:      -4.9      1.879      6.052
REMARK  6 active torsions:
REMARK  status: ('A' for Active; 'I' for Inactive)
REMARK    1  A    between atoms: C_1  and  C_2 
REMARK       I    between atoms: C_2  and  N_3 
REMARK    2  A    between atoms: N_3  and  C_10 
REMARK    3  A    between atoms: Se_7  and  C_19 
REMARK    4  A    between atoms: C_9  and  C_10 
REMARK    5  A    between atoms: C_10  and  C_11 
REMARK    6  A    between atoms: C_11  and  C_19 
ROOT
HETATM    1  C           1     -35.427  -1.865 -11.551  0.00  0.00     0.249 C 
HETATM    2  N           1     -34.180  -2.240 -11.974  0.00  0.00    -0.345 N 
HETATM    3  O           1     -36.232  -2.705 -11.228  0.00  0.00    -0.271 OA
HETATM    4  H           1     -33.505  -1.536 -12.244  0.00  0.00     0.163 HD
ENDROOT
BRANCH   1   5
HETATM    5  C           1     -35.795  -0.403 -11.487  0.00  0.00     0.274 C 
HETATM    6  C           1     -37.145  -0.189 -12.157  0.00  0.00     0.042 C 
HETATM    7  C           1     -37.066  -0.629 -13.613  0.00  0.00     0.003 C 
HETATM    8 Se           1     -35.709   0.423 -14.537  0.00  0.00     0.000 Se
HETATM    9  C           1     -35.966  -0.455 -16.257  0.00  0.00     0.000 C 
HETATM   10  H           1     -34.696   0.103 -13.196  0.00  0.00     0.275 HD
HETATM   11  N           1     -34.751   0.405 -12.197  0.00  0.00    -0.067 N 
HETATM   12  H           1     -35.005   1.418 -12.154  0.00  0.00     0.275 HD
HETATM   13  H           1     -33.824   0.259 -11.737  0.00  0.00     0.275 HD
ENDBRANCH   1   5
BRANCH   2  14
HETATM   14  C           1     -33.826  -3.645 -12.036  0.00  0.00     0.185 C 
BRANCH  14  15
HETATM   15  C           1     -34.438  -4.263 -13.270  0.00  0.00     0.196 C 
HETATM   16  O           1     -34.200  -3.776 -14.397  0.00  0.00    -0.646 OA
HETATM   17  O           1     -35.183  -5.261 -13.164  0.00  0.00    -0.646 OA
ENDBRANCH  14  15
BRANCH  14  18
HETATM   18  C           1     -34.353  -4.355 -10.797  0.00  0.00     0.036 C 
BRANCH  18  19
HETATM   19  C           1     -33.733  -5.743 -10.704  0.00  0.00     0.003 C 
BRANCH  19  20
HETATM   20 Se           1     -34.993  -6.963  -9.855  0.00  0.00     0.000 Se
HETATM   21  C           1     -33.845  -8.529 -10.027  0.00  0.00     0.000 C 
ENDBRANCH  19  20
ENDBRANCH  18  19
ENDBRANCH  14  18
ENDBRANCH   2  14
TORSDOF 6
ENDMDL
MODEL 4
REMARK VINA RESULT:      -4.7     16.941     18.404
REMARK  6 active torsions:
REMARK  status: ('A' for Active; 'I' for Inactive)
REMARK    1  A    between atoms: C_1  and  C_2 
REMARK       I    between atoms: C_2  and  N_3 
REMARK    2  A    between atoms: N_3  and  C_10 
REMARK    3  A    between atoms: Se_7  and  C_19 
REMARK    4  A    between atoms: C_9  and  C_10 
REMARK    5  A    between atoms: C_10  and  C_11 
REMARK    6  A    between atoms: C_11  and  C_19 
ROOT
HETATM    1  C           1     -21.276  -9.748  -4.014  0.00  0.00     0.249 C 
HETATM    2  N           1     -20.920  -8.501  -3.573  0.00  0.00    -0.345 N 
HETATM    3  O           1     -22.151 -10.361  -3.452  0.00  0.00    -0.271 OA
HETATM    4  H           1     -20.187  -7.987  -4.044  0.00  0.00     0.163 HD
ENDROOT
BRANCH   1   5
HETATM    5  C           1     -20.574 -10.355  -5.204  0.00  0.00     0.274 C 
HETATM    6  C           1     -19.795 -11.586  -4.761  0.00  0.00     0.042 C 
HETATM    7  C           1     -18.763 -11.185  -3.714  0.00  0.00     0.003 C 
HETATM    8 Se           1     -17.534  -9.880  -4.479  0.00  0.00     0.000 Se
HETATM    9  C           1     -16.471  -9.689  -2.857  0.00  0.00     0.000 C 
HETATM   10  H           1     -18.922  -9.075  -5.073  0.00  0.00     0.275 HD
HETATM   11  N           1     -19.629  -9.351  -5.792  0.00  0.00    -0.067 N 
HETATM   12  H           1     -19.142  -9.770  -6.617  0.00  0.00     0.275 HD
HETATM   13  H           1     -20.163  -8.506  -6.097  0.00  0.00     0.275 HD
ENDBRANCH   1   5
BRANCH   2  14
HETATM   14  C           1     -21.595  -7.917  -2.429  0.00  0.00     0.185 C 
BRANCH  14  15
HETATM   15  C           1     -21.953  -6.483  -2.736  0.00  0.00     0.196 C 
HETATM   16  O           1     -21.795  -6.033  -3.892  0.00  0.00    -0.646 OA
HETATM   17  O           1     -22.407  -5.746  -1.834  0.00  0.00    -0.646 OA
ENDBRANCH  14  15
BRANCH  14  18
HETATM   18  C           1     -20.672  -7.963  -1.219  0.00  0.00     0.036 C 
BRANCH  18  19
HETATM   19  C           1     -21.159  -9.030  -0.248  0.00  0.00     0.003 C 
BRANCH  19  20
HETATM   20 Se           1     -23.015  -8.675   0.231  0.00  0.00     0.000 Se
HETATM   21  C           1     -23.645 -10.463  -0.221  0.00  0.00     0.000 C 
ENDBRANCH  19  20
ENDBRANCH  18  19
ENDBRANCH  14  18
ENDBRANCH   2  14
TORSDOF 6
ENDMDL
MODEL 5
REMARK VINA RESULT:      -4.7     16.303     18.095
REMARK  6 active torsions:
REMARK  status: ('A' for Active; 'I' for Inactive)
REMARK    1  A    between atoms: C_1  and  C_2 
REMARK       I    between atoms: C_2  and  N_3 
REMARK    2  A    between atoms: N_3  and  C_10 
REMARK    3  A    between atoms: Se_7  and  C_19 
REMARK    4  A    between atoms: C_9  and  C_10 
REMARK    5  A    between atoms: C_10  and  C_11 
REMARK    6  A    between atoms: C_11  and  C_19 
ROOT
HETATM    1  C           1     -21.002  -7.900  -1.285  0.00  0.00     0.249 C 
HETATM    2  N           1     -21.786  -7.655  -2.380  0.00  0.00    -0.345 N 
HETATM    3  O           1     -19.815  -8.081  -1.420  0.00  0.00    -0.271 OA
HETATM    4  H           1     -22.780  -7.503  -2.266  0.00  0.00     0.163 HD
ENDROOT
BRANCH   1   5
HETATM    5  C           1     -21.619  -7.945   0.092  0.00  0.00     0.274 C 
HETATM    6  C           1     -21.189  -9.221   0.801  0.00  0.00     0.042 C 
HETATM    7  C           1     -21.652 -10.430  -0.002  0.00  0.00     0.003 C 
HETATM    8 Se           1     -23.594 -10.400  -0.161  0.00  0.00     0.000 Se
HETATM    9  C           1     -23.697 -12.042  -1.205  0.00  0.00     0.000 C 
HETATM   10  H           1     -23.431  -8.750  -0.584  0.00  0.00     0.275 HD
HETATM   11  N           1     -23.113  -7.921  -0.032  0.00  0.00    -0.067 N 
HETATM   12  H           1     -23.542  -7.952   0.921  0.00  0.00     0.275 HD
HETATM   13  H           1     -23.409  -7.045  -0.518  0.00  0.00     0.275 HD
ENDBRANCH   1   5
BRANCH   2  14
HETATM   14  C           1     -21.192  -7.612  -3.702  0.00  0.00     0.185 C 
BRANCH  14  15
HETATM   15  C           1     -21.652  -6.366  -4.419  0.00  0.00     0.196 C 
HETATM   16  O           1     -20.829  -5.469  -4.704  0.00  0.00    -0.646 OA
HETATM   17  O           1     -22.856  -6.230  -4.727  0.00  0.00    -0.646 OA
ENDBRANCH  14  15
BRANCH  14  18
HETATM   18  C           1     -21.623  -8.841  -4.491  0.00  0.00     0.036 C 
BRANCH  18  19
HETATM   19  C           1     -20.533  -9.902  -4.416  0.00  0.00     0.003 C 
BRANCH  19  20
HETATM   20 Se           1     -18.872  -9.180  -5.134  0.00  0.00     0.000 Se
HETATM   21  C           1     -17.765  -9.826  -3.665  0.00  0.00     0.000 C 
ENDBRANCH  19  20
ENDBRANCH  18  19
ENDBRANCH  14  18
ENDBRANCH   2  14
TORSDOF 6
ENDMDL
MODEL 6
REMARK VINA RESULT:      -4.6     15.541     17.332
REMARK  6 active torsions:
REMARK  status: ('A' for Active; 'I' for Inactive)
REMARK    1  A    between atoms: C_1  and  C_2 
REMARK       I    between atoms: C_2  and  N_3 
REMARK    2  A    between atoms: N_3  and  C_10 
REMARK    3  A    between atoms: Se_7  and  C_19 
REMARK    4  A    between atoms: C_9  and  C_10 
REMARK    5  A    between atoms: C_10  and  C_11 
REMARK    6  A    between atoms: C_11  and  C_19 
ROOT
HETATM    1  C           1     -20.736  -9.217  -5.187  0.00  0.00     0.249 C 
HETATM    2  N           1     -21.628  -8.518  -4.419  0.00  0.00    -0.345 N 
HETATM    3  O           1     -19.782  -8.653  -5.669  0.00  0.00    -0.271 OA
HETATM    4  H           1     -22.426  -8.991  -4.015  0.00  0.00     0.163 HD
ENDROOT
BRANCH   1   5
HETATM    5  C           1     -20.942 -10.692  -5.431  0.00  0.00     0.274 C 
HETATM    6  C           1     -20.808 -11.448  -4.117  0.00  0.00     0.042 C 
HETATM    7  C           1     -19.418 -11.220  -3.537  0.00  0.00     0.003 C 
HETATM    8 Se           1     -18.076 -11.863  -4.795  0.00  0.00     0.000 Se
HETATM    9  C           1     -16.557 -11.380  -3.674  0.00  0.00     0.000 C 
HETATM   10  H           1     -18.955 -11.028  -6.002  0.00  0.00     0.275 HD
HETATM   11  N           1     -19.909 -11.186  -6.399  0.00  0.00    -0.067 N 
HETATM   12  H           1     -20.051 -12.207  -6.569  0.00  0.00     0.275 HD
HETATM   13  H           1     -20.001 -10.667  -7.302  0.00  0.00     0.275 HD
ENDBRANCH   1   5
BRANCH   2  14
HETATM   14  C           1     -21.429  -7.101  -4.184  0.00  0.00     0.185 C 
BRANCH  14  15
HETATM   15  C           1     -21.587  -6.809  -2.711  0.00  0.00     0.196 C 
HETATM   16  O           1     -22.395  -5.934  -2.330  0.00  0.00    -0.646 OA
HETATM   17  O           1     -20.908  -7.440  -1.873  0.00  0.00    -0.646 OA
ENDBRANCH  14  15
BRANCH  14  18
HETATM   18  C           1     -22.461  -6.307  -4.973  0.00  0.00     0.036 C 
BRANCH  18  19
HETATM   19  C           1     -21.811  -5.728  -6.222  0.00  0.00     0.003 C 
BRANCH  19  20
HETATM   20 Se           1     -20.158  -4.819  -5.734  0.00  0.00     0.000 Se
HETATM   21  C           1     -19.594  -4.505  -7.573  0.00  0.00     0.000 C 
ENDBRANCH  19  20
ENDBRANCH  18  19
ENDBRANCH  14  18
ENDBRANCH   2  14
TORSDOF 6
ENDMDL
MODEL 7
REMARK VINA RESULT:      -4.6     15.262     16.827
REMARK  6 active torsions:
REMARK  status: ('A' for Active; 'I' for Inactive)
REMARK    1  A    between atoms: C_1  and  C_2 
REMARK       I    between atoms: C_2  and  N_3 
REMARK    2  A    between atoms: N_3  and  C_10 
REMARK    3  A    between atoms: Se_7  and  C_19 
REMARK    4  A    between atoms: C_9  and  C_10 
REMARK    5  A    between atoms: C_10  and  C_11 
REMARK    6  A    between atoms: C_11  and  C_19 
ROOT
HETATM    1  C           1     -20.371  -9.339  -4.240  0.00  0.00     0.249 C 
HETATM    2  N           1     -20.936  -8.438  -5.102  0.00  0.00    -0.345 N 
HETATM    3  O           1     -19.696  -8.950  -3.317  0.00  0.00    -0.271 OA
HETATM    4  H           1     -21.502  -8.764  -5.875  0.00  0.00     0.163 HD
ENDROOT
BRANCH   1   5
HETATM    5  C           1     -20.592 -10.818  -4.442  0.00  0.00     0.274 C 
HETATM    6  C           1     -22.055 -11.153  -4.186  0.00  0.00     0.042 C 
HETATM    7  C           1     -22.421 -10.776  -2.756  0.00  0.00     0.003 C 
HETATM    8 Se           1     -21.301 -11.775  -1.514  0.00  0.00     0.000 Se
HETATM    9  C           1     -22.096 -10.996   0.085  0.00  0.00     0.000 C 
HETATM   10  H           1     -19.980 -11.326  -2.505  0.00  0.00     0.275 HD
HETATM   11  N           1     -19.730 -11.586  -3.486  0.00  0.00    -0.067 N 
HETATM   12  H           1     -19.882 -12.611  -3.625  0.00  0.00     0.275 HD
HETATM   13  H           1     -18.725 -11.357  -3.661  0.00  0.00     0.275 HD
ENDBRANCH   1   5
BRANCH   2  14
HETATM   14  C           1     -20.724  -7.016  -4.908  0.00  0.00     0.185 C 
BRANCH  14  15
HETATM   15  C           1     -21.971  -6.397  -4.326  0.00  0.00     0.196 C 
HETATM   16  O           1     -22.986  -6.246  -5.040  0.00  0.00    -0.646 OA
HETATM   17  O           1     -21.989  -6.034  -3.129  0.00  0.00    -0.646 OA
ENDBRANCH  14  15
BRANCH  14  18
HETATM   18  C           1     -20.409  -6.363  -6.246  0.00  0.00     0.036 C 
BRANCH  18  19
HETATM   19  C           1     -20.084  -4.891  -6.030  0.00  0.00     0.003 C 
BRANCH  19  20
HETATM   20 Se           1     -21.138  -3.804  -7.257  0.00  0.00     0.000 Se
HETATM   21  C           1     -20.276  -4.491  -8.864  0.00  0.00     0.000 C 
ENDBRANCH  19  20
ENDBRANCH  18  19
ENDBRANCH  14  18
ENDBRANCH   2  14
TORSDOF 6
ENDMDL
MODEL 8
REMARK VINA RESULT:      -4.5     17.005     18.710
REMARK  6 active torsions:
REMARK  status: ('A' for Active; 'I' for Inactive)
REMARK    1  A    between atoms: C_1  and  C_2 
REMARK       I    between atoms: C_2  and  N_3 
REMARK    2  A    between atoms: N_3  and  C_10 
REMARK    3  A    between atoms: Se_7  and  C_19 
REMARK    4  A    between atoms: C_9  and  C_10 
REMARK    5  A    between atoms: C_10  and  C_11 
REMARK    6  A    between atoms: C_11  and  C_19 
ROOT
HETATM    1  C           1     -21.654  -8.981  -0.881  0.00  0.00     0.249 C 
HETATM    2  N           1     -21.706  -8.773  -2.233  0.00  0.00    -0.345 N 
HETATM    3  O           1     -20.992  -8.251  -0.183  0.00  0.00    -0.271 OA
HETATM    4  H           1     -22.261  -9.385  -2.817  0.00  0.00     0.163 HD
ENDROOT
BRANCH   1   5
HETATM    5  C           1     -22.424 -10.122  -0.262  0.00  0.00     0.274 C 
HETATM    6  C           1     -21.465 -11.029   0.497  0.00  0.00     0.042 C 
HETATM    7  C           1     -20.421 -11.584  -0.463  0.00  0.00     0.003 C 
HETATM    8 Se           1     -21.306 -12.606  -1.866  0.00  0.00     0.000 Se
HETATM    9  C           1     -19.656 -13.080  -2.788  0.00  0.00     0.000 C 
HETATM   10  H           1     -22.388 -11.287  -2.001  0.00  0.00     0.275 HD
HETATM   11  N           1     -23.104 -10.908  -1.342  0.00  0.00    -0.067 N 
HETATM   12  H           1     -23.638 -11.699  -0.914  0.00  0.00     0.275 HD
HETATM   13  H           1     -23.763 -10.286  -1.863  0.00  0.00     0.275 HD
ENDBRANCH   1   5
BRANCH   2  14
HETATM   14  C           1     -20.967  -7.677  -2.828  0.00  0.00     0.185 C 
BRANCH  14  15
HETATM   15  C           1     -21.896  -6.509  -3.056  0.00  0.00     0.196 C 
HETATM   16  O           1     -22.218  -6.185  -4.220  0.00  0.00    -0.646 OA
HETATM   17  O           1     -22.343  -5.866  -2.081  0.00  0.00    -0.646 OA
ENDBRANCH  14  15
BRANCH  14  18
HETATM   18  C           1     -20.378  -8.125  -4.158  0.00  0.00     0.036 C 
BRANCH  18  19
HETATM   19  C           1     -19.839  -9.543  -4.023  0.00  0.00     0.003 C 
BRANCH  19  20
HETATM   20 Se           1     -18.183  -9.516  -2.997  0.00  0.00     0.000 Se
HETATM   21  C           1     -17.050 -10.012  -4.504  0.00  0.00     0.000 C 
ENDBRANCH  19  20
ENDBRANCH  18  19
ENDBRANCH  14  18
ENDBRANCH   2  14
TORSDOF 6
ENDMDL
MODEL 9
REMARK VINA RESULT:      -4.5     16.898     18.858
REMARK  6 active torsions:
REMARK  status: ('A' for Active; 'I' for Inactive)
REMARK    1  A    between atoms: C_1  and  C_2 
REMARK       I    between atoms: C_2  and  N_3 
REMARK    2  A    between atoms: N_3  and  C_10 
REMARK    3  A    between atoms: Se_7  and  C_19 
REMARK    4  A    between atoms: C_9  and  C_10 
REMARK    5  A    between atoms: C_10  and  C_11 
REMARK    6  A    between atoms: C_11  and  C_19 
ROOT
HETATM    1  C           1     -21.512 -10.360   0.253  0.00  0.00     0.249 C 
HETATM    2  N           1     -21.786  -9.552  -0.818  0.00  0.00    -0.345 N 
HETATM    3  O           1     -20.846  -9.942   1.170  0.00  0.00    -0.271 OA
HETATM    4  H           1     -22.344  -9.901  -1.586  0.00  0.00     0.163 HD
ENDROOT
BRANCH   1   5
HETATM    5  C           1     -22.043 -11.772   0.288  0.00  0.00     0.274 C 
HETATM    6  C           1     -20.884 -12.747   0.446  0.00  0.00     0.042 C 
HETATM    7  C           1     -19.926 -12.594  -0.728  0.00  0.00     0.003 C 
HETATM    8 Se           1     -20.870 -12.974  -2.390  0.00  0.00     0.000 Se
HETATM    9  C           1     -19.322 -12.664  -3.532  0.00  0.00     0.000 C 
HETATM   10  H           1     -22.112 -11.957  -1.797  0.00  0.00     0.275 HD
HETATM   11  N           1     -22.769 -12.064  -0.991  0.00  0.00    -0.067 N 
HETATM   12  H           1     -23.137 -13.042  -0.968  0.00  0.00     0.275 HD
HETATM   13  H           1     -23.565 -11.395  -1.100  0.00  0.00     0.275 HD
ENDBRANCH   1   5
BRANCH   2  14
HETATM   14  C           1     -21.275  -8.195  -0.852  0.00  0.00     0.185 C 
BRANCH  14  15
HETATM   15  C           1     -22.419  -7.224  -0.685  0.00  0.00     0.196 C 
HETATM   16  O           1     -22.465  -6.185  -1.380  0.00  0.00    -0.646 OA
HETATM   17  O           1     -23.321  -7.458   0.150  0.00  0.00    -0.646 OA
ENDBRANCH  14  15
BRANCH  14  18
HETATM   18  C           1     -20.587  -7.945  -2.186  0.00  0.00     0.036 C 
BRANCH  18  19
HETATM   19  C           1     -20.682  -9.196  -3.049  0.00  0.00     0.003 C 
BRANCH  19  20
HETATM   20 Se           1     -21.096  -8.691  -4.885  0.00  0.00     0.000 Se
HETATM   21  C           1     -21.105  -6.775  -4.529  0.00  0.00     0.000 C 
ENDBRANCH  19  20
ENDBRANCH  18  19
ENDBRANCH  14  18
ENDBRANCH   2  14
TORSDOF 6
ENDMDL
