MODEL 1
REMARK VINA RESULT:      -7.9      0.000      0.000
REMARK  11 active torsions:
REMARK  status: ('A' for Active; 'I' for Inactive)
REMARK    1  A    between atoms: N_4  and  C_7 
REMARK    2  A    between atoms: P_6  and  O_14 
REMARK    3  A    between atoms: P_6  and  O_16 
REMARK    4  A    between atoms: C_7  and  C_8 
REMARK    5  A    between atoms: C_7  and  C_15 
REMARK       I    between atoms: C_8  and  N_9 
REMARK    6  A    between atoms: N_9  and  C_27 
REMARK    7  A    between atoms: C_10  and  C_15 
REMARK    8  A    between atoms: O_14  and  C_28 
REMARK    9  A    between atoms: C_18  and  C_27 
REMARK   10  A    between atoms: O_26  and  C_29 
REMARK   11  A    between atoms: C_27  and  C_28 
ROOT
HETATM    1  H           1     -21.913  -5.557  -9.665  0.00  0.00     0.163 HD
HETATM    2  C           1     -21.778  -4.507  -7.887  0.00  0.00     0.249 C 
HETATM    3  N           1     -22.118  -4.681  -9.201  0.00  0.00    -0.343 N 
HETATM    4  O           1     -22.023  -3.463  -7.332  0.00  0.00    -0.271 OA
ENDROOT
BRANCH   2   5
HETATM    5  C           1     -21.097  -5.622  -7.130  0.00  0.00     0.278 C 
BRANCH   5   6
HETATM    6  N           1     -19.800  -5.961  -7.802  0.00  0.00    -0.066 N 
HETATM    7  H           1     -19.417  -5.109  -8.272  0.00  0.00     0.275 HD
HETATM    8  H           1     -19.116  -6.299  -7.087  0.00  0.00     0.275 HD
HETATM    9  H           1     -19.960  -6.709  -8.513  0.00  0.00     0.275 HD
ENDBRANCH   5   6
BRANCH   5  10
HETATM   10  C           1     -20.825  -5.173  -5.700  0.00  0.00     0.081 C 
BRANCH  10  11
HETATM   11  C           1     -21.104  -6.303  -4.759  0.00  0.00    -0.056 A 
HETATM   12  C           1     -21.218  -6.061  -3.391  0.00  0.00     0.010 A 
HETATM   13  C           1     -21.478  -7.115  -2.515  0.00  0.00     0.037 A 
HETATM   14  C           1     -21.623  -8.411  -3.007  0.00  0.00     0.065 A 
HETATM   15  C           1     -21.508  -8.655  -4.376  0.00  0.00     0.037 A 
HETATM   16  C           1     -21.249  -7.601  -5.252  0.00  0.00     0.010 A 
BRANCH  14  17
HETATM   17  O           1     -21.875  -9.435  -2.156  0.00  0.00    -0.361 OA
HETATM   18  H           1     -21.839  -9.087  -1.249  0.00  0.00     0.217 HD
ENDBRANCH  14  17
ENDBRANCH  10  11
ENDBRANCH   5  10
ENDBRANCH   2   5
BRANCH   3  19
HETATM   19  C           1     -22.773  -3.611  -9.928  0.00  0.00     0.210 C 
BRANCH  19  20
HETATM   20  C           1     -24.269  -3.778  -9.831  0.00  0.00     0.198 C 
HETATM   21  O           1     -24.990  -2.800  -9.539  0.00  0.00    -0.646 OA
HETATM   22  O           1     -24.788  -4.895 -10.043  0.00  0.00    -0.646 OA
ENDBRANCH  19  20
BRANCH  19  23
HETATM   23  C           1     -22.350  -3.657 -11.390  0.00  0.00     0.217 C 
BRANCH  23  24
HETATM   24  O           1     -22.883  -2.551 -12.066  0.00  0.00    -0.287 OA
BRANCH  24  25
HETATM   25  P           1     -23.490  -2.844 -13.534  0.00  0.00     0.406 P 
HETATM   26  O           1     -24.281  -1.677 -13.984  0.00  0.00    -0.624 OA
HETATM   27  O           1     -24.362  -4.038 -13.477  0.00  0.00    -0.624 OA
BRANCH  25  28
HETATM   28  O           1     -22.282  -3.107 -14.572  0.00  0.00    -0.300 OA
HETATM   29  H           1     -22.205  -4.045 -14.624  0.00  0.00     0.223 HD
ENDBRANCH  25  28
ENDBRANCH  24  25
ENDBRANCH  23  24
ENDBRANCH  19  23
ENDBRANCH   3  19
TORSDOF 11
ENDMDL
MODEL 2
REMARK VINA RESULT:      -7.3      3.767      9.310
REMARK  11 active torsions:
REMARK  status: ('A' for Active; 'I' for Inactive)
REMARK    1  A    between atoms: N_4  and  C_7 
REMARK    2  A    between atoms: P_6  and  O_14 
REMARK    3  A    between atoms: P_6  and  O_16 
REMARK    4  A    between atoms: C_7  and  C_8 
REMARK    5  A    between atoms: C_7  and  C_15 
REMARK       I    between atoms: C_8  and  N_9 
REMARK    6  A    between atoms: N_9  and  C_27 
REMARK    7  A    between atoms: C_10  and  C_15 
REMARK    8  A    between atoms: O_14  and  C_28 
REMARK    9  A    between atoms: C_18  and  C_27 
REMARK   10  A    between atoms: O_26  and  C_29 
REMARK   11  A    between atoms: C_27  and  C_28 
ROOT
HETATM    1  H           1     -22.877  -6.774  -4.887  0.00  0.00     0.163 HD
HETATM    2  C           1     -21.378  -5.564  -5.646  0.00  0.00     0.249 C 
HETATM    3  N           1     -21.930  -6.441  -4.751  0.00  0.00    -0.343 N 
HETATM    4  O           1     -20.249  -5.168  -5.485  0.00  0.00    -0.271 OA
ENDROOT
BRANCH   2   5
HETATM    5  C           1     -22.182  -5.094  -6.834  0.00  0.00     0.278 C 
BRANCH   5   6
HETATM    6  N           1     -23.604  -4.869  -6.417  0.00  0.00    -0.066 N 
HETATM    7  H           1     -23.823  -3.847  -6.458  0.00  0.00     0.275 HD
HETATM    8  H           1     -24.242  -5.386  -7.064  0.00  0.00     0.275 HD
HETATM    9  H           1     -23.741  -5.216  -5.441  0.00  0.00     0.275 HD
ENDBRANCH   5   6
BRANCH   5  10
HETATM   10  C           1     -21.595  -3.789  -7.359  0.00  0.00     0.081 C 
BRANCH  10  11
HETATM   11  C           1     -21.629  -3.792  -8.856  0.00  0.00    -0.056 A 
HETATM   12  C           1     -20.476  -4.095  -9.580  0.00  0.00     0.010 A 
HETATM   13  C           1     -20.509  -4.096 -10.974  0.00  0.00     0.037 A 
HETATM   14  C           1     -21.694  -3.795 -11.644  0.00  0.00     0.065 A 
HETATM   15  C           1     -22.847  -3.492 -10.921  0.00  0.00     0.037 A 
HETATM   16  C           1     -22.815  -3.490  -9.527  0.00  0.00     0.010 A 
BRANCH  14  17
HETATM   17  O           1     -21.725  -3.797 -12.999  0.00  0.00    -0.361 OA
HETATM   18  H           1     -22.474  -4.350 -13.281  0.00  0.00     0.217 HD
ENDBRANCH  14  17
ENDBRANCH  10  11
ENDBRANCH   5  10
ENDBRANCH   2   5
BRANCH   3  19
HETATM   19  C           1     -21.158  -6.894  -3.610  0.00  0.00     0.210 C 
BRANCH  19  20
HETATM   20  C           1     -20.766  -8.337  -3.808  0.00  0.00     0.198 C 
HETATM   21  O           1     -19.570  -8.638  -4.011  0.00  0.00    -0.646 OA
HETATM   22  O           1     -21.638  -9.232  -3.770  0.00  0.00    -0.646 OA
ENDBRANCH  19  20
BRANCH  19  23
HETATM   23  C           1     -21.998  -6.764  -2.347  0.00  0.00     0.217 C 
BRANCH  23  24
HETATM   24  O           1     -21.275  -7.260  -1.253  0.00  0.00    -0.287 OA
BRANCH  24  25
HETATM   25  P           1     -22.115  -8.140  -0.189  0.00  0.00     0.406 P 
HETATM   26  O           1     -23.371  -7.435   0.153  0.00  0.00    -0.624 OA
HETATM   27  O           1     -21.308  -8.332   1.036  0.00  0.00    -0.624 OA
BRANCH  25  28
HETATM   28  O           1     -22.463  -9.577  -0.837  0.00  0.00    -0.300 OA
HETATM   29  H           1     -22.958 -10.029  -0.175  0.00  0.00     0.223 HD
ENDBRANCH  25  28
ENDBRANCH  24  25
ENDBRANCH  23  24
ENDBRANCH  19  23
ENDBRANCH   3  19
TORSDOF 11
ENDMDL
MODEL 3
REMARK VINA RESULT:      -7.3      3.440      9.085
REMARK  11 active torsions:
REMARK  status: ('A' for Active; 'I' for Inactive)
REMARK    1  A    between atoms: N_4  and  C_7 
REMARK    2  A    between atoms: P_6  and  O_14 
REMARK    3  A    between atoms: P_6  and  O_16 
REMARK    4  A    between atoms: C_7  and  C_8 
REMARK    5  A    between atoms: C_7  and  C_15 
REMARK       I    between atoms: C_8  and  N_9 
REMARK    6  A    between atoms: N_9  and  C_27 
REMARK    7  A    between atoms: C_10  and  C_15 
REMARK    8  A    between atoms: O_14  and  C_28 
REMARK    9  A    between atoms: C_18  and  C_27 
REMARK   10  A    between atoms: O_26  and  C_29 
REMARK   11  A    between atoms: C_27  and  C_28 
ROOT
HETATM    1  H           1     -22.798  -5.911  -5.438  0.00  0.00     0.163 HD
HETATM    2  C           1     -21.080  -5.130  -6.288  0.00  0.00     0.249 C 
HETATM    3  N           1     -21.787  -5.879  -5.387  0.00  0.00    -0.343 N 
HETATM    4  O           1     -19.874  -5.093  -6.228  0.00  0.00    -0.271 OA
ENDROOT
BRANCH   2   5
HETATM    5  C           1     -21.807  -4.352  -7.357  0.00  0.00     0.278 C 
BRANCH   5   6
HETATM    6  N           1     -21.596  -2.884  -7.135  0.00  0.00    -0.066 N 
HETATM    7  H           1     -22.352  -2.346  -7.618  0.00  0.00     0.275 HD
HETATM    8  H           1     -21.625  -2.679  -6.111  0.00  0.00     0.275 HD
HETATM    9  H           1     -20.667  -2.602  -7.522  0.00  0.00     0.275 HD
ENDBRANCH   5   6
BRANCH   5  10
HETATM   10  C           1     -21.264  -4.740  -8.726  0.00  0.00     0.081 C 
BRANCH  10  11
HETATM   11  C           1     -22.107  -4.116  -9.794  0.00  0.00    -0.056 A 
HETATM   12  C           1     -23.497  -4.137  -9.688  0.00  0.00     0.010 A 
HETATM   13  C           1     -24.282  -3.556 -10.684  0.00  0.00     0.037 A 
HETATM   14  C           1     -23.676  -2.955 -11.786  0.00  0.00     0.065 A 
HETATM   15  C           1     -22.285  -2.934 -11.894  0.00  0.00     0.037 A 
HETATM   16  C           1     -21.501  -3.515 -10.898  0.00  0.00     0.010 A 
BRANCH  14  17
HETATM   17  O           1     -24.438  -2.390 -12.754  0.00  0.00    -0.361 OA
HETATM   18  H           1     -25.360  -2.383 -12.444  0.00  0.00     0.217 HD
ENDBRANCH  14  17
ENDBRANCH  10  11
ENDBRANCH   5  10
ENDBRANCH   2   5
BRANCH   3  19
HETATM   19  C           1     -21.089  -6.628  -4.360  0.00  0.00     0.210 C 
BRANCH  19  20
HETATM   20  C           1     -20.968  -8.071  -4.783  0.00  0.00     0.198 C 
HETATM   21  O           1     -21.818  -8.906  -4.407  0.00  0.00    -0.646 OA
HETATM   22  O           1     -20.017  -8.431  -5.510  0.00  0.00    -0.646 OA
ENDBRANCH  19  20
BRANCH  19  23
HETATM   23  C           1     -21.867  -6.545  -3.054  0.00  0.00     0.217 C 
BRANCH  23  24
HETATM   24  O           1     -21.070  -7.021  -2.004  0.00  0.00    -0.287 OA
BRANCH  24  25
HETATM   25  P           1     -21.828  -7.905  -0.884  0.00  0.00     0.406 P 
HETATM   26  O           1     -23.002  -7.159  -0.378  0.00  0.00    -0.624 OA
HETATM   27  O           1     -20.900  -8.183   0.235  0.00  0.00    -0.624 OA
BRANCH  25  28
HETATM   28  O           1     -22.317  -9.298  -1.538  0.00  0.00    -0.300 OA
HETATM   29  H           1     -22.646  -9.064  -2.390  0.00  0.00     0.223 HD
ENDBRANCH  25  28
ENDBRANCH  24  25
ENDBRANCH  23  24
ENDBRANCH  19  23
ENDBRANCH   3  19
TORSDOF 11
ENDMDL
MODEL 4
REMARK VINA RESULT:      -7.0      3.382      8.365
REMARK  11 active torsions:
REMARK  status: ('A' for Active; 'I' for Inactive)
REMARK    1  A    between atoms: N_4  and  C_7 
REMARK    2  A    between atoms: P_6  and  O_14 
REMARK    3  A    between atoms: P_6  and  O_16 
REMARK    4  A    between atoms: C_7  and  C_8 
REMARK    5  A    between atoms: C_7  and  C_15 
REMARK       I    between atoms: C_8  and  N_9 
REMARK    6  A    between atoms: N_9  and  C_27 
REMARK    7  A    between atoms: C_10  and  C_15 
REMARK    8  A    between atoms: O_14  and  C_28 
REMARK    9  A    between atoms: C_18  and  C_27 
REMARK   10  A    between atoms: O_26  and  C_29 
REMARK   11  A    between atoms: C_27  and  C_28 
ROOT
HETATM    1  H           1     -20.043  -6.669  -5.365  0.00  0.00     0.163 HD
HETATM    2  C           1     -21.662  -5.559  -6.021  0.00  0.00     0.249 C 
HETATM    3  N           1     -21.041  -6.523  -5.274  0.00  0.00    -0.343 N 
HETATM    4  O           1     -22.853  -5.384  -5.912  0.00  0.00    -0.271 OA
ENDROOT
BRANCH   2   5
HETATM    5  C           1     -20.860  -4.716  -6.982  0.00  0.00     0.278 C 
BRANCH   5   6
HETATM    6  N           1     -19.478  -4.515  -6.435  0.00  0.00    -0.066 N 
HETATM    7  H           1     -18.851  -5.276  -6.783  0.00  0.00     0.275 HD
HETATM    8  H           1     -19.110  -3.590  -6.751  0.00  0.00     0.275 HD
HETATM    9  H           1     -19.509  -4.540  -5.391  0.00  0.00     0.275 HD
ENDBRANCH   5   6
BRANCH   5  10
HETATM   10  C           1     -20.774  -5.421  -8.329  0.00  0.00     0.081 C 
BRANCH  10  11
HETATM   11  C           1     -21.411  -4.569  -9.382  0.00  0.00    -0.056 A 
HETATM   12  C           1     -20.632  -4.009 -10.394  0.00  0.00     0.010 A 
HETATM   13  C           1     -21.226  -3.215 -11.374  0.00  0.00     0.037 A 
HETATM   14  C           1     -22.600  -2.980 -11.342  0.00  0.00     0.065 A 
HETATM   15  C           1     -23.380  -3.538 -10.330  0.00  0.00     0.037 A 
HETATM   16  C           1     -22.786  -4.332  -9.350  0.00  0.00     0.010 A 
BRANCH  14  17
HETATM   17  O           1     -23.177  -2.208 -12.294  0.00  0.00    -0.361 OA
HETATM   18  H           1     -23.751  -1.561 -11.849  0.00  0.00     0.217 HD
ENDBRANCH  14  17
ENDBRANCH  10  11
ENDBRANCH   5  10
ENDBRANCH   2   5
BRANCH   3  19
HETATM   19  C           1     -21.812  -7.333  -4.351  0.00  0.00     0.210 C 
BRANCH  19  20
HETATM   20  C           1     -21.517  -6.902  -2.936  0.00  0.00     0.198 C 
HETATM   21  O           1     -22.104  -5.912  -2.448  0.00  0.00    -0.646 OA
HETATM   22  O           1     -20.686  -7.535  -2.250  0.00  0.00    -0.646 OA
ENDBRANCH  19  20
BRANCH  19  23
HETATM   23  C           1     -21.435  -8.798  -4.525  0.00  0.00     0.217 C 
BRANCH  23  24
HETATM   24  O           1     -20.447  -8.912  -5.513  0.00  0.00    -0.287 OA
BRANCH  24  25
HETATM   25  P           1     -19.114  -9.722  -5.092  0.00  0.00     0.406 P 
HETATM   26  O           1     -18.130  -9.661  -6.196  0.00  0.00    -0.624 OA
HETATM   27  O           1     -19.462 -11.134  -4.819  0.00  0.00    -0.624 OA
BRANCH  25  28
HETATM   28  O           1     -18.477  -9.057  -3.766  0.00  0.00    -0.300 OA
HETATM   29  H           1     -18.001  -8.305  -4.075  0.00  0.00     0.223 HD
ENDBRANCH  25  28
ENDBRANCH  24  25
ENDBRANCH  23  24
ENDBRANCH  19  23
ENDBRANCH   3  19
TORSDOF 11
ENDMDL
MODEL 5
REMARK VINA RESULT:      -6.7      3.520      9.022
REMARK  11 active torsions:
REMARK  status: ('A' for Active; 'I' for Inactive)
REMARK    1  A    between atoms: N_4  and  C_7 
REMARK    2  A    between atoms: P_6  and  O_14 
REMARK    3  A    between atoms: P_6  and  O_16 
REMARK    4  A    between atoms: C_7  and  C_8 
REMARK    5  A    between atoms: C_7  and  C_15 
REMARK       I    between atoms: C_8  and  N_9 
REMARK    6  A    between atoms: N_9  and  C_27 
REMARK    7  A    between atoms: C_10  and  C_15 
REMARK    8  A    between atoms: O_14  and  C_28 
REMARK    9  A    between atoms: C_18  and  C_27 
REMARK   10  A    between atoms: O_26  and  C_29 
REMARK   11  A    between atoms: C_27  and  C_28 
ROOT
HETATM    1  H           1     -19.948  -6.608  -4.641  0.00  0.00     0.163 HD
HETATM    2  C           1     -21.675  -5.855  -5.498  0.00  0.00     0.249 C 
HETATM    3  N           1     -20.960  -6.649  -4.643  0.00  0.00    -0.343 N 
HETATM    4  O           1     -22.882  -5.903  -5.500  0.00  0.00    -0.271 OA
ENDROOT
BRANCH   2   5
HETATM    5  C           1     -20.955  -4.919  -6.438  0.00  0.00     0.278 C 
BRANCH   5   6
HETATM    6  N           1     -19.654  -4.498  -5.823  0.00  0.00    -0.066 N 
HETATM    7  H           1     -19.799  -3.628  -5.262  0.00  0.00     0.275 HD
HETATM    8  H           1     -19.302  -5.259  -5.199  0.00  0.00     0.275 HD
HETATM    9  H           1     -18.955  -4.314  -6.578  0.00  0.00     0.275 HD
ENDBRANCH   5   6
BRANCH   5  10
HETATM   10  C           1     -20.686  -5.631  -7.757  0.00  0.00     0.081 C 
BRANCH  10  11
HETATM   11  C           1     -21.202  -4.799  -8.890  0.00  0.00    -0.056 A 
HETATM   12  C           1     -20.352  -4.439  -9.935  0.00  0.00     0.010 A 
HETATM   13  C           1     -20.833  -3.663 -10.990  0.00  0.00     0.037 A 
HETATM   14  C           1     -22.164  -3.248 -10.998  0.00  0.00     0.065 A 
HETATM   15  C           1     -23.015  -3.607  -9.953  0.00  0.00     0.037 A 
HETATM   16  C           1     -22.533  -4.382  -8.898  0.00  0.00     0.010 A 
BRANCH  14  17
HETATM   17  O           1     -22.632  -2.494 -12.023  0.00  0.00    -0.361 OA
HETATM   18  H           1     -21.996  -2.557 -12.756  0.00  0.00     0.217 HD
ENDBRANCH  14  17
ENDBRANCH  10  11
ENDBRANCH   5  10
ENDBRANCH   2   5
BRANCH   3  19
HETATM   19  C           1     -21.652  -7.548  -3.740  0.00  0.00     0.210 C 
BRANCH  19  20
HETATM   20  C           1     -21.647  -6.966  -2.348  0.00  0.00     0.198 C 
HETATM   21  O           1     -22.332  -5.953  -2.091  0.00  0.00    -0.646 OA
HETATM   22  O           1     -20.956  -7.496  -1.451  0.00  0.00    -0.646 OA
ENDBRANCH  19  20
BRANCH  19  23
HETATM   23  C           1     -20.946  -8.898  -3.728  0.00  0.00     0.217 C 
BRANCH  23  24
HETATM   24  O           1     -21.898  -9.923  -3.809  0.00  0.00    -0.287 OA
BRANCH  24  25
HETATM   25  P           1     -21.945 -10.946  -2.559  0.00  0.00     0.406 P 
HETATM   26  O           1     -21.631 -12.314  -3.028  0.00  0.00    -0.624 OA
HETATM   27  O           1     -23.297 -10.928  -1.958  0.00  0.00    -0.624 OA
BRANCH  25  28
HETATM   28  O           1     -20.858 -10.494  -1.454  0.00  0.00    -0.300 OA
HETATM   29  H           1     -20.119 -10.184  -1.951  0.00  0.00     0.223 HD
ENDBRANCH  25  28
ENDBRANCH  24  25
ENDBRANCH  23  24
ENDBRANCH  19  23
ENDBRANCH   3  19
TORSDOF 11
ENDMDL
MODEL 6
REMARK VINA RESULT:      -6.6      2.191      3.430
REMARK  11 active torsions:
REMARK  status: ('A' for Active; 'I' for Inactive)
REMARK    1  A    between atoms: N_4  and  C_7 
REMARK    2  A    between atoms: P_6  and  O_14 
REMARK    3  A    between atoms: P_6  and  O_16 
REMARK    4  A    between atoms: C_7  and  C_8 
REMARK    5  A    between atoms: C_7  and  C_15 
REMARK       I    between atoms: C_8  and  N_9 
REMARK    6  A    between atoms: N_9  and  C_27 
REMARK    7  A    between atoms: C_10  and  C_15 
REMARK    8  A    between atoms: O_14  and  C_28 
REMARK    9  A    between atoms: C_18  and  C_27 
REMARK   10  A    between atoms: O_26  and  C_29 
REMARK   11  A    between atoms: C_27  and  C_28 
ROOT
HETATM    1  H           1     -21.360  -4.083  -6.101  0.00  0.00     0.163 HD
HETATM    2  C           1     -21.243  -6.148  -6.160  0.00  0.00     0.249 C 
HETATM    3  N           1     -21.384  -4.899  -6.700  0.00  0.00    -0.343 N 
HETATM    4  O           1     -21.270  -7.122  -6.874  0.00  0.00    -0.271 OA
ENDROOT
BRANCH   2   5
HETATM    5  C           1     -21.052  -6.310  -4.671  0.00  0.00     0.278 C 
BRANCH   5   6
HETATM    6  N           1     -22.390  -6.321  -3.995  0.00  0.00    -0.066 N 
HETATM    7  H           1     -22.444  -7.136  -3.342  0.00  0.00     0.275 HD
HETATM    8  H           1     -22.514  -5.435  -3.455  0.00  0.00     0.275 HD
HETATM    9  H           1     -23.144  -6.401  -4.714  0.00  0.00     0.275 HD
ENDBRANCH   5   6
BRANCH   5  10
HETATM   10  C           1     -20.331  -7.622  -4.391  0.00  0.00     0.081 C 
BRANCH  10  11
HETATM   11  C           1     -20.908  -8.258  -3.165  0.00  0.00    -0.056 A 
HETATM   12  C           1     -21.631  -9.446  -3.268  0.00  0.00     0.010 A 
HETATM   13  C           1     -22.169 -10.037  -2.125  0.00  0.00     0.037 A 
HETATM   14  C           1     -21.983  -9.440  -0.879  0.00  0.00     0.065 A 
HETATM   15  C           1     -21.260  -8.252  -0.774  0.00  0.00     0.037 A 
HETATM   16  C           1     -20.722  -7.661  -1.917  0.00  0.00     0.010 A 
BRANCH  14  17
HETATM   17  O           1     -22.505 -10.015   0.232  0.00  0.00    -0.361 OA
HETATM   18  H           1     -23.135 -10.699  -0.052  0.00  0.00     0.217 HD
ENDBRANCH  14  17
ENDBRANCH  10  11
ENDBRANCH   5  10
ENDBRANCH   2   5
BRANCH   3  19
HETATM   19  C           1     -21.567  -4.744  -8.130  0.00  0.00     0.210 C 
BRANCH  19  20
HETATM   20  C           1     -20.243  -4.419  -8.775  0.00  0.00     0.198 C 
HETATM   21  O           1     -19.269  -4.080  -8.068  0.00  0.00    -0.646 OA
HETATM   22  O           1     -20.119  -4.488 -10.016  0.00  0.00    -0.646 OA
ENDBRANCH  19  20
BRANCH  19  23
HETATM   23  C           1     -22.552  -3.614  -8.395  0.00  0.00     0.217 C 
BRANCH  23  24
HETATM   24  O           1     -23.693  -4.128  -9.026  0.00  0.00    -0.287 OA
BRANCH  24  25
HETATM   25  P           1     -23.779  -3.908 -10.624  0.00  0.00     0.406 P 
HETATM   26  O           1     -25.032  -3.194 -10.959  0.00  0.00    -0.624 OA
HETATM   27  O           1     -23.764  -5.222 -11.304  0.00  0.00    -0.624 OA
BRANCH  25  28
HETATM   28  O           1     -22.515  -3.031 -11.115  0.00  0.00    -0.300 OA
HETATM   29  H           1     -22.879  -2.375 -11.684  0.00  0.00     0.223 HD
ENDBRANCH  25  28
ENDBRANCH  24  25
ENDBRANCH  23  24
ENDBRANCH  19  23
ENDBRANCH   3  19
TORSDOF 11
ENDMDL
MODEL 7
REMARK VINA RESULT:      -6.5      3.545      8.817
REMARK  11 active torsions:
REMARK  status: ('A' for Active; 'I' for Inactive)
REMARK    1  A    between atoms: N_4  and  C_7 
REMARK    2  A    between atoms: P_6  and  O_14 
REMARK    3  A    between atoms: P_6  and  O_16 
REMARK    4  A    between atoms: C_7  and  C_8 
REMARK    5  A    between atoms: C_7  and  C_15 
REMARK       I    between atoms: C_8  and  N_9 
REMARK    6  A    between atoms: N_9  and  C_27 
REMARK    7  A    between atoms: C_10  and  C_15 
REMARK    8  A    between atoms: O_14  and  C_28 
REMARK    9  A    between atoms: C_18  and  C_27 
REMARK   10  A    between atoms: O_26  and  C_29 
REMARK   11  A    between atoms: C_27  and  C_28 
ROOT
HETATM    1  H           1     -19.796  -7.175  -4.588  0.00  0.00     0.163 HD
HETATM    2  C           1     -21.240  -5.988  -5.478  0.00  0.00     0.249 C 
HETATM    3  N           1     -20.782  -6.941  -4.609  0.00  0.00    -0.343 N 
HETATM    4  O           1     -22.415  -5.708  -5.503  0.00  0.00    -0.271 OA
ENDROOT
BRANCH   2   5
HETATM    5  C           1     -20.277  -5.287  -6.406  0.00  0.00     0.278 C 
BRANCH   5   6
HETATM    6  N           1     -19.969  -6.178  -7.572  0.00  0.00    -0.066 N 
HETATM    7  H           1     -19.848  -5.596  -8.432  0.00  0.00     0.275 HD
HETATM    8  H           1     -19.088  -6.707  -7.383  0.00  0.00     0.275 HD
HETATM    9  H           1     -20.756  -6.851  -7.714  0.00  0.00     0.275 HD
ENDBRANCH   5   6
BRANCH   5  10
HETATM   10  C           1     -20.906  -3.994  -6.907  0.00  0.00     0.081 C 
BRANCH  10  11
HETATM   11  C           1     -21.244  -4.132  -8.359  0.00  0.00    -0.056 A 
HETATM   12  C           1     -22.551  -4.425  -8.747  0.00  0.00     0.010 A 
HETATM   13  C           1     -22.865  -4.554 -10.100  0.00  0.00     0.037 A 
HETATM   14  C           1     -21.871  -4.390 -11.064  0.00  0.00     0.065 A 
HETATM   15  C           1     -20.564  -4.097 -10.677  0.00  0.00     0.037 A 
HETATM   16  C           1     -20.250  -3.968  -9.325  0.00  0.00     0.010 A 
BRANCH  14  17
HETATM   17  O           1     -22.176  -4.515 -12.379  0.00  0.00    -0.361 OA
HETATM   18  H           1     -21.372  -4.328 -12.893  0.00  0.00     0.217 HD
ENDBRANCH  14  17
ENDBRANCH  10  11
ENDBRANCH   5  10
ENDBRANCH   2   5
BRANCH   3  19
HETATM   19  C           1     -21.706  -7.614  -3.718  0.00  0.00     0.210 C 
BRANCH  19  20
HETATM   20  C           1     -21.667  -6.957  -2.362  0.00  0.00     0.198 C 
HETATM   21  O           1     -20.994  -7.464  -1.439  0.00  0.00    -0.646 OA
HETATM   22  O           1     -22.309  -5.903  -2.159  0.00  0.00    -0.646 OA
ENDBRANCH  19  20
BRANCH  19  23
HETATM   23  C           1     -21.307  -9.078  -3.585  0.00  0.00     0.217 C 
BRANCH  23  24
HETATM   24  O           1     -20.002  -9.252  -4.064  0.00  0.00    -0.287 OA
BRANCH  24  25
HETATM   25  P           1     -18.979 -10.014  -3.073  0.00  0.00     0.406 P 
HETATM   26  O           1     -17.731  -9.227  -2.951  0.00  0.00    -0.624 OA
HETATM   27  O           1     -18.666 -11.352  -3.621  0.00  0.00    -0.624 OA
BRANCH  25  28
HETATM   28  O           1     -19.659 -10.172  -1.617  0.00  0.00    -0.300 OA
HETATM   29  H           1     -18.963 -10.467  -1.054  0.00  0.00     0.223 HD
ENDBRANCH  25  28
ENDBRANCH  24  25
ENDBRANCH  23  24
ENDBRANCH  19  23
ENDBRANCH   3  19
TORSDOF 11
ENDMDL
MODEL 8
REMARK VINA RESULT:      -6.3     14.167     17.019
REMARK  11 active torsions:
REMARK  status: ('A' for Active; 'I' for Inactive)
REMARK    1  A    between atoms: N_4  and  C_7 
REMARK    2  A    between atoms: P_6  and  O_14 
REMARK    3  A    between atoms: P_6  and  O_16 
REMARK    4  A    between atoms: C_7  and  C_8 
REMARK    5  A    between atoms: C_7  and  C_15 
REMARK       I    between atoms: C_8  and  N_9 
REMARK    6  A    between atoms: N_9  and  C_27 
REMARK    7  A    between atoms: C_10  and  C_15 
REMARK    8  A    between atoms: O_14  and  C_28 
REMARK    9  A    between atoms: C_18  and  C_27 
REMARK   10  A    between atoms: O_26  and  C_29 
REMARK   11  A    between atoms: C_27  and  C_28 
ROOT
HETATM    1  H           1     -21.558  10.240 -14.715  0.00  0.00     0.163 HD
HETATM    2  C           1     -23.001  11.603 -14.126  0.00  0.00     0.249 C 
HETATM    3  N           1     -22.143  11.012 -15.013  0.00  0.00    -0.343 N 
HETATM    4  O           1     -23.699  12.522 -14.481  0.00  0.00    -0.271 OA
ENDROOT
BRANCH   2   5
HETATM    5  C           1     -23.076  11.104 -12.703  0.00  0.00     0.278 C 
BRANCH   5   6
HETATM    6  N           1     -22.364  12.065 -11.799  0.00  0.00    -0.066 N 
HETATM    7  H           1     -22.864  12.117 -10.882  0.00  0.00     0.275 HD
HETATM    8  H           1     -21.385  11.736 -11.643  0.00  0.00     0.275 HD
HETATM    9  H           1     -22.348  13.012 -12.241  0.00  0.00     0.275 HD
ENDBRANCH   5   6
BRANCH   5  10
HETATM   10  C           1     -24.535  10.996 -12.279  0.00  0.00     0.081 C 
BRANCH  10  11
HETATM   11  C           1     -24.822   9.599 -11.823  0.00  0.00    -0.056 A 
HETATM   12  C           1     -25.983   9.324 -11.100  0.00  0.00     0.010 A 
HETATM   13  C           1     -26.248   8.023 -10.675  0.00  0.00     0.037 A 
HETATM   14  C           1     -25.353   6.996 -10.973  0.00  0.00     0.065 A 
HETATM   15  C           1     -24.192   7.270 -11.696  0.00  0.00     0.037 A 
HETATM   16  C           1     -23.926   8.571 -12.121  0.00  0.00     0.010 A 
BRANCH  14  17
HETATM   17  O           1     -25.612   5.732 -10.561  0.00  0.00    -0.361 OA
HETATM   18  H           1     -24.798   5.373 -10.165  0.00  0.00     0.217 HD
ENDBRANCH  14  17
ENDBRANCH  10  11
ENDBRANCH   5  10
ENDBRANCH   2   5
BRANCH   3  19
HETATM   19  C           1     -22.071  11.490 -16.380  0.00  0.00     0.210 C 
BRANCH  19  20
HETATM   20  C           1     -21.839  10.325 -17.309  0.00  0.00     0.198 C 
HETATM   21  O           1     -21.114   9.373 -16.951  0.00  0.00    -0.646 OA
HETATM   22  O           1     -22.373  10.312 -18.440  0.00  0.00    -0.646 OA
ENDBRANCH  19  20
BRANCH  19  23
HETATM   23  C           1     -20.921  12.481 -16.511  0.00  0.00     0.217 C 
BRANCH  23  24
HETATM   24  O           1     -19.993  12.257 -15.484  0.00  0.00    -0.287 OA
BRANCH  24  25
HETATM   25  P           1     -18.530  11.756 -15.950  0.00  0.00     0.406 P 
HETATM   26  O           1     -17.491  12.524 -15.227  0.00  0.00    -0.624 OA
HETATM   27  O           1     -18.376  11.969 -17.406  0.00  0.00    -0.624 OA
BRANCH  25  28
HETATM   28  O           1     -18.368  10.185 -15.615  0.00  0.00    -0.300 OA
HETATM   29  H           1     -17.984  10.158 -14.754  0.00  0.00     0.223 HD
ENDBRANCH  25  28
ENDBRANCH  24  25
ENDBRANCH  23  24
ENDBRANCH  19  23
ENDBRANCH   3  19
TORSDOF 11
ENDMDL
MODEL 9
REMARK VINA RESULT:      -6.3      3.644      8.821
REMARK  11 active torsions:
REMARK  status: ('A' for Active; 'I' for Inactive)
REMARK    1  A    between atoms: N_4  and  C_7 
REMARK    2  A    between atoms: P_6  and  O_14 
REMARK    3  A    between atoms: P_6  and  O_16 
REMARK    4  A    between atoms: C_7  and  C_8 
REMARK    5  A    between atoms: C_7  and  C_15 
REMARK       I    between atoms: C_8  and  N_9 
REMARK    6  A    between atoms: N_9  and  C_27 
REMARK    7  A    between atoms: C_10  and  C_15 
REMARK    8  A    between atoms: O_14  and  C_28 
REMARK    9  A    between atoms: C_18  and  C_27 
REMARK   10  A    between atoms: O_26  and  C_29 
REMARK   11  A    between atoms: C_27  and  C_28 
ROOT
HETATM    1  H           1     -20.932  -7.956  -6.523  0.00  0.00     0.163 HD
HETATM    2  C           1     -21.292  -6.174  -5.534  0.00  0.00     0.249 C 
HETATM    3  N           1     -20.806  -7.448  -5.657  0.00  0.00    -0.343 N 
HETATM    4  O           1     -21.141  -5.566  -4.501  0.00  0.00    -0.271 OA
ENDROOT
BRANCH   2   5
HETATM    5  C           1     -22.015  -5.527  -6.691  0.00  0.00     0.278 C 
BRANCH   5   6
HETATM    6  N           1     -23.394  -5.130  -6.258  0.00  0.00    -0.066 N 
HETATM    7  H           1     -23.756  -4.380  -6.890  0.00  0.00     0.275 HD
HETATM    8  H           1     -24.027  -5.960  -6.306  0.00  0.00     0.275 HD
HETATM    9  H           1     -23.362  -4.772  -5.276  0.00  0.00     0.275 HD
ENDBRANCH   5   6
BRANCH   5  10
HETATM   10  C           1     -21.248  -4.291  -7.142  0.00  0.00     0.081 C 
BRANCH  10  11
HETATM   11  C           1     -21.346  -4.156  -8.629  0.00  0.00    -0.056 A 
HETATM   12  C           1     -20.256  -4.488  -9.434  0.00  0.00     0.010 A 
HETATM   13  C           1     -20.348  -4.361 -10.819  0.00  0.00     0.037 A 
HETATM   14  C           1     -21.529  -3.903 -11.401  0.00  0.00     0.065 A 
HETATM   15  C           1     -22.620  -3.570 -10.597  0.00  0.00     0.037 A 
HETATM   16  C           1     -22.528  -3.696  -9.211  0.00  0.00     0.010 A 
BRANCH  14  17
HETATM   17  O           1     -21.618  -3.780 -12.747  0.00  0.00    -0.361 OA
HETATM   18  H           1     -21.778  -4.664 -13.120  0.00  0.00     0.217 HD
ENDBRANCH  14  17
ENDBRANCH  10  11
ENDBRANCH   5  10
ENDBRANCH   2   5
BRANCH   3  19
HETATM   19  C           1     -20.112  -8.068  -4.546  0.00  0.00     0.210 C 
BRANCH  19  20
HETATM   20  C           1     -18.986  -8.924  -5.071  0.00  0.00     0.198 C 
HETATM   21  O           1     -18.640  -8.837  -6.269  0.00  0.00    -0.646 OA
HETATM   22  O           1     -18.399  -9.722  -4.308  0.00  0.00    -0.646 OA
ENDBRANCH  19  20
BRANCH  19  23
HETATM   23  C           1     -21.085  -8.936  -3.759  0.00  0.00     0.217 C 
BRANCH  23  24
HETATM   24  O           1     -21.673  -9.874  -4.618  0.00  0.00    -0.287 OA
BRANCH  24  25
HETATM   25  P           1     -22.024 -11.309  -3.965  0.00  0.00     0.406 P 
HETATM   26  O           1     -20.788 -11.928  -3.437  0.00  0.00    -0.624 OA
HETATM   27  O           1     -22.614 -12.190  -4.998  0.00  0.00    -0.624 OA
BRANCH  25  28
HETATM   28  O           1     -23.081 -11.108  -2.761  0.00  0.00    -0.300 OA
HETATM   29  H           1     -23.325 -10.198  -2.801  0.00  0.00     0.223 HD
ENDBRANCH  25  28
ENDBRANCH  24  25
ENDBRANCH  23  24
ENDBRANCH  19  23
ENDBRANCH   3  19
TORSDOF 11
ENDMDL
