MODEL 1
REMARK VINA RESULT:      -7.8      0.000      0.000
REMARK  12 active torsions:
REMARK  status: ('A' for Active; 'I' for Inactive)
REMARK    1  A    between atoms: C_1  and  C_5 
REMARK    2  A    between atoms: C_4  and  O_21 
REMARK    3  A    between atoms: C_5  and  C_15 
REMARK    4  A    between atoms: C_6  and  C_12 
REMARK    5  A    between atoms: C_6  and  C_7 
REMARK    6  A    between atoms: N_10  and  C_13 
REMARK    7  A    between atoms: C_12  and  C_13 
REMARK    8  A    between atoms: C_13  and  C_14 
REMARK       I    between atoms: C_14  and  N_16 
REMARK    9  A    between atoms: C_15  and  C_18 
REMARK   10  A    between atoms: C_15  and  N_16 
REMARK   11  A    between atoms: P_20  and  O_21 
REMARK   12  A    between atoms: P_20  and  O_30 
ROOT
HETATM    1  C           1     -21.605  -6.857  -5.433  0.00  0.00     0.189 C 
ENDROOT
BRANCH   1   2
HETATM    2  C           1     -20.597  -5.776  -5.802  0.00  0.00     0.074 C 
BRANCH   2   3
HETATM    3  C           1     -21.008  -5.127  -7.087  0.00  0.00    -0.056 A 
HETATM    4  C           1     -20.155  -5.160  -8.189  0.00  0.00     0.010 A 
HETATM    5  C           1     -20.537  -4.556  -9.386  0.00  0.00     0.038 A 
HETATM    6  C           1     -21.774  -3.919  -9.481  0.00  0.00     0.081 A 
HETATM    7  C           1     -22.629  -3.886  -8.379  0.00  0.00     0.038 A 
HETATM    8  C           1     -22.245  -4.491  -7.182  0.00  0.00     0.010 A 
BRANCH   6   9
HETATM    9  O           1     -22.146  -3.332 -10.645  0.00  0.00    -0.247 OA
BRANCH   9  10
HETATM   10  P           1     -23.456  -3.903 -11.397  0.00  0.00     0.411 P 
HETATM   11  O           1     -24.617  -3.034 -11.098  0.00  0.00    -0.624 OA
HETATM   12  O           1     -23.736  -5.278 -10.924  0.00  0.00    -0.624 OA
BRANCH  10  13
HETATM   13  O           1     -23.196  -3.923 -12.991  0.00  0.00    -0.300 OA
HETATM   14  H           1     -23.434  -3.061 -13.287  0.00  0.00     0.223 HD
ENDBRANCH  10  13
ENDBRANCH   9  10
ENDBRANCH   6   9
ENDBRANCH   2   3
ENDBRANCH   1   2
BRANCH   1  15
HETATM   15  C           1     -20.878  -8.145  -5.139  0.00  0.00     0.197 C 
HETATM   16  O           1     -21.512  -9.221  -5.078  0.00  0.00    -0.646 OA
HETATM   17  O           1     -19.641  -8.137  -4.956  0.00  0.00    -0.646 OA
ENDBRANCH   1  15
BRANCH   1  18
HETATM   18  N           1     -22.350  -6.443  -4.260  0.00  0.00    -0.344 N 
HETATM   19  H           1     -23.338  -6.239  -4.334  0.00  0.00     0.163 HD
HETATM   20  C           1     -21.715  -6.327  -3.053  0.00  0.00     0.249 C 
HETATM   21  O           1     -21.213  -5.277  -2.732  0.00  0.00    -0.271 OA
BRANCH  20  22
HETATM   22  C           1     -21.644  -7.514  -2.123  0.00  0.00     0.275 C 
BRANCH  22  23
HETATM   23  N           1     -20.207  -7.846  -1.845  0.00  0.00    -0.066 N 
HETATM   24  H           1     -20.046  -7.865  -0.813  0.00  0.00     0.275 HD
HETATM   25  H           1     -19.982  -8.782  -2.251  0.00  0.00     0.275 HD
HETATM   26  H           1     -19.593  -7.120  -2.280  0.00  0.00     0.275 HD
ENDBRANCH  22  23
BRANCH  22  27
HETATM   27  C           1     -22.347  -7.176  -0.813  0.00  0.00     0.053 C 
BRANCH  27  28
HETATM   28  C           1     -21.901  -8.149   0.269  0.00  0.00     0.115 C 
BRANCH  28  29
HETATM   29  C           1     -22.418  -9.530  -0.052  0.00  0.00     0.172 C 
HETATM   30  O           1     -23.647  -9.759  -0.032  0.00  0.00    -0.648 OA
HETATM   31  O           1     -21.617 -10.446  -0.338  0.00  0.00    -0.648 OA
ENDBRANCH  28  29
ENDBRANCH  27  28
ENDBRANCH  22  27
ENDBRANCH  20  22
ENDBRANCH   1  18
TORSDOF 12
ENDMDL
MODEL 2
REMARK VINA RESULT:      -7.7      1.801      2.419
REMARK  12 active torsions:
REMARK  status: ('A' for Active; 'I' for Inactive)
REMARK    1  A    between atoms: C_1  and  C_5 
REMARK    2  A    between atoms: C_4  and  O_21 
REMARK    3  A    between atoms: C_5  and  C_15 
REMARK    4  A    between atoms: C_6  and  C_12 
REMARK    5  A    between atoms: C_6  and  C_7 
REMARK    6  A    between atoms: N_10  and  C_13 
REMARK    7  A    between atoms: C_12  and  C_13 
REMARK    8  A    between atoms: C_13  and  C_14 
REMARK       I    between atoms: C_14  and  N_16 
REMARK    9  A    between atoms: C_15  and  C_18 
REMARK   10  A    between atoms: C_15  and  N_16 
REMARK   11  A    between atoms: P_20  and  O_21 
REMARK   12  A    between atoms: P_20  and  O_30 
ROOT
HETATM    1  C           1     -21.235  -6.081  -7.091  0.00  0.00     0.189 C 
ENDROOT
BRANCH   1   2
HETATM    2  C           1     -21.875  -4.702  -6.992  0.00  0.00     0.074 C 
BRANCH   2   3
HETATM    3  C           1     -22.143  -4.176  -8.368  0.00  0.00    -0.056 A 
HETATM    4  C           1     -21.113  -4.119  -9.306  0.00  0.00     0.010 A 
HETATM    5  C           1     -21.363  -3.629 -10.587  0.00  0.00     0.038 A 
HETATM    6  C           1     -22.643  -3.197 -10.931  0.00  0.00     0.081 A 
HETATM    7  C           1     -23.675  -3.255  -9.993  0.00  0.00     0.038 A 
HETATM    8  C           1     -23.424  -3.744  -8.711  0.00  0.00     0.010 A 
BRANCH   6   9
HETATM    9  O           1     -22.886  -2.721 -12.177  0.00  0.00    -0.247 OA
BRANCH   9  10
HETATM   10  P           1     -23.957  -3.509 -13.093  0.00  0.00     0.411 P 
HETATM   11  O           1     -23.675  -3.244 -14.522  0.00  0.00    -0.624 OA
HETATM   12  O           1     -25.324  -3.042 -12.767  0.00  0.00    -0.624 OA
BRANCH  10  13
HETATM   13  O           1     -23.846  -5.095 -12.809  0.00  0.00    -0.300 OA
HETATM   14  H           1     -24.028  -5.190 -11.889  0.00  0.00     0.223 HD
ENDBRANCH  10  13
ENDBRANCH   9  10
ENDBRANCH   6   9
ENDBRANCH   2   3
ENDBRANCH   1   2
BRANCH   1  15
HETATM   15  C           1     -19.775  -5.986  -6.721  0.00  0.00     0.197 C 
HETATM   16  O           1     -19.060  -7.012  -6.731  0.00  0.00    -0.646 OA
HETATM   17  O           1     -19.282  -4.883  -6.402  0.00  0.00    -0.646 OA
ENDBRANCH   1  15
BRANCH   1  18
HETATM   18  N           1     -21.906  -6.991  -6.184  0.00  0.00    -0.344 N 
HETATM   19  H           1     -22.012  -7.966  -6.432  0.00  0.00     0.163 HD
HETATM   20  C           1     -22.398  -6.531  -4.992  0.00  0.00     0.249 C 
HETATM   21  O           1     -23.529  -6.111  -4.926  0.00  0.00    -0.271 OA
BRANCH  20  22
HETATM   22  C           1     -21.526  -6.547  -3.760  0.00  0.00     0.275 C 
BRANCH  22  23
HETATM   23  N           1     -22.290  -5.984  -2.599  0.00  0.00    -0.066 N 
HETATM   24  H           1     -23.293  -6.269  -2.669  0.00  0.00     0.275 HD
HETATM   25  H           1     -21.885  -6.348  -1.707  0.00  0.00     0.275 HD
HETATM   26  H           1     -22.224  -4.940  -2.612  0.00  0.00     0.275 HD
ENDBRANCH  22  23
BRANCH  22  27
HETATM   27  C           1     -21.114  -7.980  -3.448  0.00  0.00     0.053 C 
BRANCH  27  28
HETATM   28  C           1     -20.437  -8.030  -2.086  0.00  0.00     0.115 C 
BRANCH  28  29
HETATM   29  C           1     -21.230  -8.920  -1.162  0.00  0.00     0.172 C 
HETATM   30  O           1     -22.404  -8.617  -0.855  0.00  0.00    -0.648 OA
HETATM   31  O           1     -20.714  -9.962  -0.702  0.00  0.00    -0.648 OA
ENDBRANCH  28  29
ENDBRANCH  27  28
ENDBRANCH  22  27
ENDBRANCH  20  22
ENDBRANCH   1  18
TORSDOF 12
ENDMDL
MODEL 3
REMARK VINA RESULT:      -7.4      2.444      3.171
REMARK  12 active torsions:
REMARK  status: ('A' for Active; 'I' for Inactive)
REMARK    1  A    between atoms: C_1  and  C_5 
REMARK    2  A    between atoms: C_4  and  O_21 
REMARK    3  A    between atoms: C_5  and  C_15 
REMARK    4  A    between atoms: C_6  and  C_12 
REMARK    5  A    between atoms: C_6  and  C_7 
REMARK    6  A    between atoms: N_10  and  C_13 
REMARK    7  A    between atoms: C_12  and  C_13 
REMARK    8  A    between atoms: C_13  and  C_14 
REMARK       I    between atoms: C_14  and  N_16 
REMARK    9  A    between atoms: C_15  and  C_18 
REMARK   10  A    between atoms: C_15  and  N_16 
REMARK   11  A    between atoms: P_20  and  O_21 
REMARK   12  A    between atoms: P_20  and  O_30 
ROOT
HETATM    1  C           1     -21.592  -5.547  -6.651  0.00  0.00     0.189 C 
ENDROOT
BRANCH   1   2
HETATM    2  C           1     -21.984  -4.151  -7.117  0.00  0.00     0.074 C 
BRANCH   2   3
HETATM    3  C           1     -22.433  -4.209  -8.544  0.00  0.00    -0.056 A 
HETATM    4  C           1     -21.497  -4.374  -9.564  0.00  0.00     0.010 A 
HETATM    5  C           1     -21.915  -4.429 -10.893  0.00  0.00     0.038 A 
HETATM    6  C           1     -23.270  -4.318 -11.203  0.00  0.00     0.081 A 
HETATM    7  C           1     -24.208  -4.154 -10.183  0.00  0.00     0.038 A 
HETATM    8  C           1     -23.789  -4.099  -8.854  0.00  0.00     0.010 A 
BRANCH   6   9
HETATM    9  O           1     -23.676  -4.371 -12.495  0.00  0.00    -0.247 OA
BRANCH   9  10
HETATM   10  P           1     -23.988  -2.977 -13.249  0.00  0.00     0.411 P 
HETATM   11  O           1     -25.410  -2.615 -13.051  0.00  0.00    -0.624 OA
HETATM   12  O           1     -23.716  -3.128 -14.696  0.00  0.00    -0.624 OA
BRANCH  10  13
HETATM   13  O           1     -23.048  -1.814 -12.640  0.00  0.00    -0.300 OA
HETATM   14  H           1     -22.995  -1.163 -13.319  0.00  0.00     0.223 HD
ENDBRANCH  10  13
ENDBRANCH   9  10
ENDBRANCH   6   9
ENDBRANCH   2   3
ENDBRANCH   1   2
BRANCH   1  15
HETATM   15  C           1     -20.102  -5.600  -6.420  0.00  0.00     0.197 C 
HETATM   16  O           1     -19.460  -6.631  -6.716  0.00  0.00    -0.646 OA
HETATM   17  O           1     -19.510  -4.614  -5.931  0.00  0.00    -0.646 OA
ENDBRANCH   1  15
BRANCH   1  18
HETATM   18  N           1     -22.284  -5.856  -5.415  0.00  0.00    -0.344 N 
HETATM   19  H           1     -23.255  -5.592  -5.300  0.00  0.00     0.163 HD
HETATM   20  C           1     -21.626  -6.502  -4.405  0.00  0.00     0.249 C 
HETATM   21  O           1     -21.038  -5.867  -3.562  0.00  0.00    -0.271 OA
BRANCH  20  22
HETATM   22  C           1     -21.635  -8.010  -4.344  0.00  0.00     0.275 C 
BRANCH  22  23
HETATM   23  N           1     -21.279  -8.568  -5.690  0.00  0.00    -0.066 N 
HETATM   24  H           1     -20.723  -9.444  -5.570  0.00  0.00     0.275 HD
HETATM   25  H           1     -22.154  -8.780  -6.221  0.00  0.00     0.275 HD
HETATM   26  H           1     -20.712  -7.865  -6.218  0.00  0.00     0.275 HD
ENDBRANCH  22  23
BRANCH  22  27
HETATM   27  C           1     -20.616  -8.484  -3.314  0.00  0.00     0.053 C 
BRANCH  27  28
HETATM   28  C           1     -19.386  -9.026  -4.029  0.00  0.00     0.115 C 
BRANCH  28  29
HETATM   29  C           1     -18.478  -9.697  -3.028  0.00  0.00     0.172 C 
HETATM   30  O           1     -17.367  -9.192  -2.755  0.00  0.00    -0.648 OA
HETATM   31  O           1     -18.836 -10.758  -2.473  0.00  0.00    -0.648 OA
ENDBRANCH  28  29
ENDBRANCH  27  28
ENDBRANCH  22  27
ENDBRANCH  20  22
ENDBRANCH   1  18
TORSDOF 12
ENDMDL
MODEL 4
REMARK VINA RESULT:      -7.4      3.395      8.970
REMARK  12 active torsions:
REMARK  status: ('A' for Active; 'I' for Inactive)
REMARK    1  A    between atoms: C_1  and  C_5 
REMARK    2  A    between atoms: C_4  and  O_21 
REMARK    3  A    between atoms: C_5  and  C_15 
REMARK    4  A    between atoms: C_6  and  C_12 
REMARK    5  A    between atoms: C_6  and  C_7 
REMARK    6  A    between atoms: N_10  and  C_13 
REMARK    7  A    between atoms: C_12  and  C_13 
REMARK    8  A    between atoms: C_13  and  C_14 
REMARK       I    between atoms: C_14  and  N_16 
REMARK    9  A    between atoms: C_15  and  C_18 
REMARK   10  A    between atoms: C_15  and  N_16 
REMARK   11  A    between atoms: P_20  and  O_21 
REMARK   12  A    between atoms: P_20  and  O_30 
ROOT
HETATM    1  C           1     -20.633  -5.003  -6.462  0.00  0.00     0.189 C 
ENDROOT
BRANCH   1   2
HETATM    2  C           1     -21.290  -6.368  -6.297  0.00  0.00     0.074 C 
BRANCH   2   3
HETATM    3  C           1     -21.128  -6.832  -4.883  0.00  0.00    -0.056 A 
HETATM    4  C           1     -21.762  -6.148  -3.847  0.00  0.00     0.010 A 
HETATM    5  C           1     -21.612  -6.581  -2.530  0.00  0.00     0.038 A 
HETATM    6  C           1     -20.827  -7.700  -2.249  0.00  0.00     0.081 A 
HETATM    7  C           1     -20.194  -8.386  -3.286  0.00  0.00     0.038 A 
HETATM    8  C           1     -20.344  -7.951  -4.603  0.00  0.00     0.010 A 
BRANCH   6   9
HETATM    9  O           1     -20.681  -8.121  -0.969  0.00  0.00    -0.247 OA
BRANCH   9  10
HETATM   10  P           1     -21.875  -8.991  -0.317  0.00  0.00     0.411 P 
HETATM   11  O           1     -22.539  -9.789  -1.372  0.00  0.00    -0.624 OA
HETATM   12  O           1     -22.864  -8.082   0.307  0.00  0.00    -0.624 OA
BRANCH  10  13
HETATM   13  O           1     -21.268  -9.982   0.805  0.00  0.00    -0.300 OA
HETATM   14  H           1     -21.957 -10.081   1.440  0.00  0.00     0.223 HD
ENDBRANCH  10  13
ENDBRANCH   9  10
ENDBRANCH   6   9
ENDBRANCH   2   3
ENDBRANCH   1   2
BRANCH   1  15
HETATM   15  C           1     -19.594  -5.073  -7.554  0.00  0.00     0.197 C 
HETATM   16  O           1     -18.577  -4.349  -7.496  0.00  0.00    -0.646 OA
HETATM   17  O           1     -19.752  -5.855  -8.517  0.00  0.00    -0.646 OA
ENDBRANCH   1  15
BRANCH   1  18
HETATM   18  N           1     -21.640  -4.022  -6.815  0.00  0.00    -0.344 N 
HETATM   19  H           1     -21.444  -3.035  -6.709  0.00  0.00     0.163 HD
HETATM   20  C           1     -22.857  -4.431  -7.291  0.00  0.00     0.249 C 
HETATM   21  O           1     -23.766  -4.643  -6.524  0.00  0.00    -0.271 OA
BRANCH  20  22
HETATM   22  C           1     -23.061  -4.617  -8.775  0.00  0.00     0.275 C 
BRANCH  22  23
HETATM   23  N           1     -24.519  -4.472  -9.101  0.00  0.00    -0.066 N 
HETATM   24  H           1     -24.692  -3.528  -9.514  0.00  0.00     0.275 HD
HETATM   25  H           1     -24.796  -5.209  -9.787  0.00  0.00     0.275 HD
HETATM   26  H           1     -25.083  -4.579  -8.227  0.00  0.00     0.275 HD
ENDBRANCH  22  23
BRANCH  22  27
HETATM   27  C           1     -22.265  -3.562  -9.534  0.00  0.00     0.053 C 
BRANCH  27  28
HETATM   28  C           1     -22.063  -4.016 -10.972  0.00  0.00     0.115 C 
BRANCH  28  29
HETATM   29  C           1     -22.902  -3.163 -11.892  0.00  0.00     0.172 C 
HETATM   30  O           1     -24.020  -2.749 -11.515  0.00  0.00    -0.648 OA
HETATM   31  O           1     -22.479  -2.870 -13.031  0.00  0.00    -0.648 OA
ENDBRANCH  28  29
ENDBRANCH  27  28
ENDBRANCH  22  27
ENDBRANCH  20  22
ENDBRANCH   1  18
TORSDOF 12
ENDMDL
MODEL 5
REMARK VINA RESULT:      -7.1      1.460      1.948
REMARK  12 active torsions:
REMARK  status: ('A' for Active; 'I' for Inactive)
REMARK    1  A    between atoms: C_1  and  C_5 
REMARK    2  A    between atoms: C_4  and  O_21 
REMARK    3  A    between atoms: C_5  and  C_15 
REMARK    4  A    between atoms: C_6  and  C_12 
REMARK    5  A    between atoms: C_6  and  C_7 
REMARK    6  A    between atoms: N_10  and  C_13 
REMARK    7  A    between atoms: C_12  and  C_13 
REMARK    8  A    between atoms: C_13  and  C_14 
REMARK       I    between atoms: C_14  and  N_16 
REMARK    9  A    between atoms: C_15  and  C_18 
REMARK   10  A    between atoms: C_15  and  N_16 
REMARK   11  A    between atoms: P_20  and  O_21 
REMARK   12  A    between atoms: P_20  and  O_30 
ROOT
HETATM    1  C           1     -21.254  -6.632  -4.920  0.00  0.00     0.189 C 
ENDROOT
BRANCH   1   2
HETATM    2  C           1     -20.592  -5.299  -5.245  0.00  0.00     0.074 C 
BRANCH   2   3
HETATM    3  C           1     -21.096  -4.799  -6.563  0.00  0.00    -0.056 A 
HETATM    4  C           1     -20.200  -4.530  -7.596  0.00  0.00     0.010 A 
HETATM    5  C           1     -20.669  -4.066  -8.824  0.00  0.00     0.038 A 
HETATM    6  C           1     -22.036  -3.870  -9.019  0.00  0.00     0.081 A 
HETATM    7  C           1     -22.934  -4.140  -7.986  0.00  0.00     0.038 A 
HETATM    8  C           1     -22.464  -4.605  -6.758  0.00  0.00     0.010 A 
BRANCH   6   9
HETATM    9  O           1     -22.492  -3.418 -10.213  0.00  0.00    -0.247 OA
BRANCH   9  10
HETATM   10  P           1     -23.830  -4.092 -10.817  0.00  0.00     0.411 P 
HETATM   11  O           1     -23.910  -5.505 -10.385  0.00  0.00    -0.624 OA
HETATM   12  O           1     -23.789  -4.031 -12.295  0.00  0.00    -0.624 OA
BRANCH  10  13
HETATM   13  O           1     -25.126  -3.292 -10.278  0.00  0.00    -0.300 OA
HETATM   14  H           1     -25.780  -3.411 -10.946  0.00  0.00     0.223 HD
ENDBRANCH  10  13
ENDBRANCH   9  10
ENDBRANCH   6   9
ENDBRANCH   2   3
ENDBRANCH   1   2
BRANCH   1  15
HETATM   15  C           1     -20.654  -7.715  -5.783  0.00  0.00     0.197 C 
HETATM   16  O           1     -21.361  -8.672  -6.166  0.00  0.00    -0.646 OA
HETATM   17  O           1     -19.450  -7.655  -6.113  0.00  0.00    -0.646 OA
ENDBRANCH   1  15
BRANCH   1  18
HETATM   18  N           1     -21.036  -6.951  -3.523  0.00  0.00    -0.344 N 
HETATM   19  H           1     -21.108  -6.226  -2.821  0.00  0.00     0.163 HD
HETATM   20  C           1     -20.732  -8.233  -3.152  0.00  0.00     0.249 C 
HETATM   21  O           1     -19.579  -8.591  -3.100  0.00  0.00    -0.271 OA
BRANCH  20  22
HETATM   22  C           1     -21.838  -9.201  -2.810  0.00  0.00     0.275 C 
BRANCH  22  23
HETATM   23  N           1     -21.812 -10.352  -3.772  0.00  0.00    -0.066 N 
HETATM   24  H           1     -21.869 -11.251  -3.243  0.00  0.00     0.275 HD
HETATM   25  H           1     -22.626 -10.279  -4.423  0.00  0.00     0.275 HD
HETATM   26  H           1     -20.922 -10.326  -4.320  0.00  0.00     0.275 HD
ENDBRANCH  22  23
BRANCH  22  27
HETATM   27  C           1     -21.637  -9.722  -1.392  0.00  0.00     0.053 C 
BRANCH  27  28
HETATM   28  C           1     -22.800  -9.278  -0.517  0.00  0.00     0.115 C 
BRANCH  28  29
HETATM   29  C           1     -22.511  -7.909   0.048  0.00  0.00     0.172 C 
HETATM   30  O           1     -22.735  -6.888  -0.639  0.00  0.00    -0.648 OA
HETATM   31  O           1     -22.046  -7.795   1.203  0.00  0.00    -0.648 OA
ENDBRANCH  28  29
ENDBRANCH  27  28
ENDBRANCH  22  27
ENDBRANCH  20  22
ENDBRANCH   1  18
TORSDOF 12
ENDMDL
MODEL 6
REMARK VINA RESULT:      -7.1      2.437      3.625
REMARK  12 active torsions:
REMARK  status: ('A' for Active; 'I' for Inactive)
REMARK    1  A    between atoms: C_1  and  C_5 
REMARK    2  A    between atoms: C_4  and  O_21 
REMARK    3  A    between atoms: C_5  and  C_15 
REMARK    4  A    between atoms: C_6  and  C_12 
REMARK    5  A    between atoms: C_6  and  C_7 
REMARK    6  A    between atoms: N_10  and  C_13 
REMARK    7  A    between atoms: C_12  and  C_13 
REMARK    8  A    between atoms: C_13  and  C_14 
REMARK       I    between atoms: C_14  and  N_16 
REMARK    9  A    between atoms: C_15  and  C_18 
REMARK   10  A    between atoms: C_15  and  N_16 
REMARK   11  A    between atoms: P_20  and  O_21 
REMARK   12  A    between atoms: P_20  and  O_30 
ROOT
HETATM    1  C           1     -21.444  -5.499  -7.415  0.00  0.00     0.189 C 
ENDROOT
BRANCH   1   2
HETATM    2  C           1     -22.730  -4.763  -7.770  0.00  0.00     0.074 C 
BRANCH   2   3
HETATM    3  C           1     -22.602  -4.166  -9.137  0.00  0.00    -0.056 A 
HETATM    4  C           1     -23.620  -3.360  -9.644  0.00  0.00     0.010 A 
HETATM    5  C           1     -23.501  -2.804 -10.917  0.00  0.00     0.038 A 
HETATM    6  C           1     -22.363  -3.054 -11.684  0.00  0.00     0.081 A 
HETATM    7  C           1     -21.344  -3.860 -11.177  0.00  0.00     0.038 A 
HETATM    8  C           1     -21.464  -4.416  -9.903  0.00  0.00     0.010 A 
BRANCH   6   9
HETATM    9  O           1     -22.248  -2.513 -12.921  0.00  0.00    -0.247 OA
BRANCH   9  10
HETATM   10  P           1     -23.441  -2.776 -13.977  0.00  0.00     0.411 P 
HETATM   11  O           1     -24.179  -4.000 -13.595  0.00  0.00    -0.624 OA
HETATM   12  O           1     -22.871  -2.948 -15.333  0.00  0.00    -0.624 OA
BRANCH  10  13
HETATM   13  O           1     -24.452  -1.516 -13.972  0.00  0.00    -0.300 OA
HETATM   14  H           1     -24.950  -1.600 -14.767  0.00  0.00     0.223 HD
ENDBRANCH  10  13
ENDBRANCH   9  10
ENDBRANCH   6   9
ENDBRANCH   2   3
ENDBRANCH   1   2
BRANCH   1  15
HETATM   15  C           1     -20.508  -4.560  -6.696  0.00  0.00     0.197 C 
HETATM   16  O           1     -19.313  -4.882  -6.519  0.00  0.00    -0.646 OA
HETATM   17  O           1     -20.927  -3.459  -6.277  0.00  0.00    -0.646 OA
ENDBRANCH   1  15
BRANCH   1  18
HETATM   18  N           1     -21.754  -6.624  -6.555  0.00  0.00    -0.344 N 
HETATM   19  H           1     -21.641  -7.570  -6.899  0.00  0.00     0.163 HD
HETATM   20  C           1     -22.201  -6.409  -5.280  0.00  0.00     0.249 C 
HETATM   21  O           1     -23.385  -6.305  -5.063  0.00  0.00    -0.271 OA
BRANCH  20  22
HETATM   22  C           1     -21.213  -6.299  -4.144  0.00  0.00     0.275 C 
BRANCH  22  23
HETATM   23  N           1     -21.952  -6.068  -2.859  0.00  0.00    -0.066 N 
HETATM   24  H           1     -21.341  -5.542  -2.194  0.00  0.00     0.275 HD
HETATM   25  H           1     -22.817  -5.514  -3.050  0.00  0.00     0.275 HD
HETATM   26  H           1     -22.213  -6.989  -2.437  0.00  0.00     0.275 HD
ENDBRANCH  22  23
BRANCH  22  27
HETATM   27  C           1     -20.411  -7.591  -4.041  0.00  0.00     0.053 C 
BRANCH  27  28
HETATM   28  C           1     -21.326  -8.723  -3.595  0.00  0.00     0.115 C 
BRANCH  28  29
HETATM   29  C           1     -21.326  -9.812  -4.640  0.00  0.00     0.172 C 
HETATM   30  O           1     -21.712 -10.964  -4.343  0.00  0.00    -0.648 OA
HETATM   31  O           1     -20.940  -9.563  -5.803  0.00  0.00    -0.648 OA
ENDBRANCH  28  29
ENDBRANCH  27  28
ENDBRANCH  22  27
ENDBRANCH  20  22
ENDBRANCH   1  18
TORSDOF 12
ENDMDL
MODEL 7
REMARK VINA RESULT:      -7.1      2.374      3.839
REMARK  12 active torsions:
REMARK  status: ('A' for Active; 'I' for Inactive)
REMARK    1  A    between atoms: C_1  and  C_5 
REMARK    2  A    between atoms: C_4  and  O_21 
REMARK    3  A    between atoms: C_5  and  C_15 
REMARK    4  A    between atoms: C_6  and  C_12 
REMARK    5  A    between atoms: C_6  and  C_7 
REMARK    6  A    between atoms: N_10  and  C_13 
REMARK    7  A    between atoms: C_12  and  C_13 
REMARK    8  A    between atoms: C_13  and  C_14 
REMARK       I    between atoms: C_14  and  N_16 
REMARK    9  A    between atoms: C_15  and  C_18 
REMARK   10  A    between atoms: C_15  and  N_16 
REMARK   11  A    between atoms: P_20  and  O_21 
REMARK   12  A    between atoms: P_20  and  O_30 
ROOT
HETATM    1  C           1     -22.214  -4.865  -7.379  0.00  0.00     0.189 C 
ENDROOT
BRANCH   1   2
HETATM    2  C           1     -23.579  -4.285  -7.726  0.00  0.00     0.074 C 
BRANCH   2   3
HETATM    3  C           1     -23.703  -4.155  -9.212  0.00  0.00    -0.056 A 
HETATM    4  C           1     -22.849  -4.872 -10.049  0.00  0.00     0.010 A 
HETATM    5  C           1     -22.965  -4.751 -11.434  0.00  0.00     0.038 A 
HETATM    6  C           1     -23.936  -3.913 -11.982  0.00  0.00     0.081 A 
HETATM    7  C           1     -24.792  -3.197 -11.145  0.00  0.00     0.038 A 
HETATM    8  C           1     -24.675  -3.318  -9.760  0.00  0.00     0.010 A 
BRANCH   6   9
HETATM    9  O           1     -24.049  -3.796 -13.327  0.00  0.00    -0.247 OA
BRANCH   9  10
HETATM   10  P           1     -23.383  -2.506 -14.034  0.00  0.00     0.411 P 
HETATM   11  O           1     -24.449  -1.578 -14.474  0.00  0.00    -0.624 OA
HETATM   12  O           1     -22.592  -2.939 -15.207  0.00  0.00    -0.624 OA
BRANCH  10  13
HETATM   13  O           1     -22.418  -1.753 -12.980  0.00  0.00    -0.300 OA
HETATM   14  H           1     -22.999  -1.248 -12.436  0.00  0.00     0.223 HD
ENDBRANCH  10  13
ENDBRANCH   9  10
ENDBRANCH   6   9
ENDBRANCH   2   3
ENDBRANCH   1   2
BRANCH   1  15
HETATM   15  C           1     -21.158  -3.800  -7.538  0.00  0.00     0.197 C 
HETATM   16  O           1     -20.087  -4.064  -8.126  0.00  0.00    -0.646 OA
HETATM   17  O           1     -21.354  -2.653  -7.081  0.00  0.00    -0.646 OA
ENDBRANCH   1  15
BRANCH   1  18
HETATM   18  N           1     -22.224  -5.335  -6.007  0.00  0.00    -0.344 N 
HETATM   19  H           1     -23.088  -5.336  -5.480  0.00  0.00     0.163 HD
HETATM   20  C           1     -21.067  -5.776  -5.426  0.00  0.00     0.249 C 
HETATM   21  O           1     -20.353  -5.001  -4.836  0.00  0.00    -0.271 OA
BRANCH  20  22
HETATM   22  C           1     -20.682  -7.232  -5.523  0.00  0.00     0.275 C 
BRANCH  22  23
HETATM   23  N           1     -19.454  -7.370  -6.373  0.00  0.00    -0.066 N 
HETATM   24  H           1     -19.551  -8.204  -6.995  0.00  0.00     0.275 HD
HETATM   25  H           1     -19.337  -6.511  -6.956  0.00  0.00     0.275 HD
HETATM   26  H           1     -18.617  -7.491  -5.757  0.00  0.00     0.275 HD
ENDBRANCH  22  23
BRANCH  22  27
HETATM   27  C           1     -20.397  -7.776  -4.128  0.00  0.00     0.053 C 
BRANCH  27  28
HETATM   28  C           1     -21.709  -8.008  -3.394  0.00  0.00     0.115 C 
BRANCH  28  29
HETATM   29  C           1     -21.768  -7.121  -2.175  0.00  0.00     0.172 C 
HETATM   30  O           1     -21.295  -7.520  -1.088  0.00  0.00    -0.648 OA
HETATM   31  O           1     -22.290  -5.988  -2.251  0.00  0.00    -0.648 OA
ENDBRANCH  28  29
ENDBRANCH  27  28
ENDBRANCH  22  27
ENDBRANCH  20  22
ENDBRANCH   1  18
TORSDOF 12
ENDMDL
MODEL 8
REMARK VINA RESULT:      -7.0      3.481      8.974
REMARK  12 active torsions:
REMARK  status: ('A' for Active; 'I' for Inactive)
REMARK    1  A    between atoms: C_1  and  C_5 
REMARK    2  A    between atoms: C_4  and  O_21 
REMARK    3  A    between atoms: C_5  and  C_15 
REMARK    4  A    between atoms: C_6  and  C_12 
REMARK    5  A    between atoms: C_6  and  C_7 
REMARK    6  A    between atoms: N_10  and  C_13 
REMARK    7  A    between atoms: C_12  and  C_13 
REMARK    8  A    between atoms: C_13  and  C_14 
REMARK       I    between atoms: C_14  and  N_16 
REMARK    9  A    between atoms: C_15  and  C_18 
REMARK   10  A    between atoms: C_15  and  N_16 
REMARK   11  A    between atoms: P_20  and  O_21 
REMARK   12  A    between atoms: P_20  and  O_30 
ROOT
HETATM    1  C           1     -21.152  -7.023  -6.017  0.00  0.00     0.189 C 
ENDROOT
BRANCH   1   2
HETATM    2  C           1     -19.922  -7.714  -5.443  0.00  0.00     0.074 C 
BRANCH   2   3
HETATM    3  C           1     -20.346  -8.727  -4.427  0.00  0.00    -0.056 A 
HETATM    4  C           1     -21.441  -9.552  -4.680  0.00  0.00     0.010 A 
HETATM    5  C           1     -21.836 -10.497  -3.733  0.00  0.00     0.038 A 
HETATM    6  C           1     -21.136 -10.617  -2.533  0.00  0.00     0.081 A 
HETATM    7  C           1     -20.039  -9.792  -2.280  0.00  0.00     0.038 A 
HETATM    8  C           1     -19.645  -8.847  -3.227  0.00  0.00     0.010 A 
BRANCH   6   9
HETATM    9  O           1     -21.520 -11.535  -1.613  0.00  0.00    -0.247 OA
BRANCH   9  10
HETATM   10  P           1     -22.713 -11.139  -0.600  0.00  0.00     0.411 P 
HETATM   11  O           1     -22.669  -9.685  -0.328  0.00  0.00    -0.624 OA
HETATM   12  O           1     -22.549 -11.882   0.670  0.00  0.00    -0.624 OA
BRANCH  10  13
HETATM   13  O           1     -24.134 -11.519  -1.268  0.00  0.00    -0.300 OA
HETATM   14  H           1     -24.752 -10.923  -0.879  0.00  0.00     0.223 HD
ENDBRANCH  10  13
ENDBRANCH   9  10
ENDBRANCH   6   9
ENDBRANCH   2   3
ENDBRANCH   1   2
BRANCH   1  15
HETATM   15  C           1     -21.763  -6.127  -4.968  0.00  0.00     0.197 C 
HETATM   16  O           1     -23.004  -6.005  -4.897  0.00  0.00    -0.646 OA
HETATM   17  O           1     -21.026  -5.506  -4.172  0.00  0.00    -0.646 OA
ENDBRANCH   1  15
BRANCH   1  18
HETATM   18  N           1     -20.767  -6.229  -7.168  0.00  0.00    -0.344 N 
HETATM   19  H           1     -20.071  -6.579  -7.814  0.00  0.00     0.163 HD
HETATM   20  C           1     -21.343  -5.006  -7.379  0.00  0.00     0.249 C 
HETATM   21  O           1     -20.845  -4.012  -6.906  0.00  0.00    -0.271 OA
BRANCH  20  22
HETATM   22  C           1     -22.603  -4.899  -8.203  0.00  0.00     0.275 C 
BRANCH  22  23
HETATM   23  N           1     -23.685  -4.262  -7.382  0.00  0.00    -0.066 N 
HETATM   24  H           1     -23.415  -4.281  -6.373  0.00  0.00     0.275 HD
HETATM   25  H           1     -23.817  -3.272  -7.689  0.00  0.00     0.275 HD
HETATM   26  H           1     -24.578  -4.790  -7.513  0.00  0.00     0.275 HD
ENDBRANCH  22  23
BRANCH  22  27
HETATM   27  C           1     -22.334  -4.044  -9.435  0.00  0.00     0.053 C 
BRANCH  27  28
HETATM   28  C           1     -23.232  -4.500 -10.576  0.00  0.00     0.115 C 
BRANCH  28  29
HETATM   29  C           1     -24.291  -3.457 -10.831  0.00  0.00     0.172 C 
HETATM   30  O           1     -25.212  -3.285 -10.003  0.00  0.00    -0.648 OA
HETATM   31  O           1     -24.249  -2.763 -11.870  0.00  0.00    -0.648 OA
ENDBRANCH  28  29
ENDBRANCH  27  28
ENDBRANCH  22  27
ENDBRANCH  20  22
ENDBRANCH   1  18
TORSDOF 12
ENDMDL
MODEL 9
REMARK VINA RESULT:      -7.0      1.331      1.870
REMARK  12 active torsions:
REMARK  status: ('A' for Active; 'I' for Inactive)
REMARK    1  A    between atoms: C_1  and  C_5 
REMARK    2  A    between atoms: C_4  and  O_21 
REMARK    3  A    between atoms: C_5  and  C_15 
REMARK    4  A    between atoms: C_6  and  C_12 
REMARK    5  A    between atoms: C_6  and  C_7 
REMARK    6  A    between atoms: N_10  and  C_13 
REMARK    7  A    between atoms: C_12  and  C_13 
REMARK    8  A    between atoms: C_13  and  C_14 
REMARK       I    between atoms: C_14  and  N_16 
REMARK    9  A    between atoms: C_15  and  C_18 
REMARK   10  A    between atoms: C_15  and  N_16 
REMARK   11  A    between atoms: P_20  and  O_21 
REMARK   12  A    between atoms: P_20  and  O_30 
ROOT
HETATM    1  C           1     -21.032  -7.832  -5.543  0.00  0.00     0.189 C 
ENDROOT
BRANCH   1   2
HETATM    2  C           1     -20.373  -6.459  -5.523  0.00  0.00     0.074 C 
BRANCH   2   3
HETATM    3  C           1     -20.913  -5.629  -6.645  0.00  0.00    -0.056 A 
HETATM    4  C           1     -20.215  -5.544  -7.849  0.00  0.00     0.010 A 
HETATM    5  C           1     -20.719  -4.771  -8.895  0.00  0.00     0.038 A 
HETATM    6  C           1     -21.922  -4.083  -8.737  0.00  0.00     0.081 A 
HETATM    7  C           1     -22.621  -4.169  -7.533  0.00  0.00     0.038 A 
HETATM    8  C           1     -22.117  -4.942  -6.487  0.00  0.00     0.010 A 
BRANCH   6   9
HETATM    9  O           1     -22.411  -3.332  -9.753  0.00  0.00    -0.247 OA
BRANCH   9  10
HETATM   10  P           1     -23.893  -3.669 -10.299  0.00  0.00     0.411 P 
HETATM   11  O           1     -24.082  -5.136 -10.344  0.00  0.00    -0.624 OA
HETATM   12  O           1     -24.057  -3.110 -11.659  0.00  0.00    -0.624 OA
BRANCH  10  13
HETATM   13  O           1     -24.992  -3.017  -9.310  0.00  0.00    -0.300 OA
HETATM   14  H           1     -24.490  -2.600  -8.630  0.00  0.00     0.223 HD
ENDBRANCH  10  13
ENDBRANCH   9  10
ENDBRANCH   6   9
ENDBRANCH   2   3
ENDBRANCH   1   2
BRANCH   1  15
HETATM   15  C           1     -19.992  -8.895  -5.286  0.00  0.00     0.197 C 
HETATM   16  O           1     -20.186 -10.066  -5.676  0.00  0.00    -0.646 OA
HETATM   17  O           1     -18.937  -8.603  -4.683  0.00  0.00    -0.646 OA
ENDBRANCH   1  15
BRANCH   1  18
HETATM   18  N           1     -22.051  -7.893  -4.513  0.00  0.00    -0.344 N 
HETATM   19  H           1     -22.890  -8.439  -4.663  0.00  0.00     0.163 HD
HETATM   20  C           1     -21.878  -7.214  -3.337  0.00  0.00     0.249 C 
HETATM   21  O           1     -22.270  -6.076  -3.233  0.00  0.00    -0.271 OA
BRANCH  20  22
HETATM   22  C           1     -21.195  -7.886  -2.172  0.00  0.00     0.275 C 
BRANCH  22  23
HETATM   23  N           1     -21.693  -7.290  -0.888  0.00  0.00    -0.066 N 
HETATM   24  H           1     -22.735  -7.361  -0.851  0.00  0.00     0.275 HD
HETATM   25  H           1     -21.279  -7.808  -0.081  0.00  0.00     0.275 HD
HETATM   26  H           1     -21.411  -6.285  -0.839  0.00  0.00     0.275 HD
ENDBRANCH  22  23
BRANCH  22  27
HETATM   27  C           1     -21.507  -9.378  -2.192  0.00  0.00     0.053 C 
BRANCH  27  28
HETATM   28  C           1     -20.284 -10.159  -1.731  0.00  0.00     0.115 C 
BRANCH  28  29
HETATM   29  C           1     -20.529 -10.705  -0.345  0.00  0.00     0.172 C 
HETATM   30  O           1     -19.980 -11.770   0.013  0.00  0.00    -0.648 OA
HETATM   31  O           1     -21.281 -10.093   0.444  0.00  0.00    -0.648 OA
ENDBRANCH  28  29
ENDBRANCH  27  28
ENDBRANCH  22  27
ENDBRANCH  20  22
ENDBRANCH   1  18
TORSDOF 12
ENDMDL
