MODEL 1
REMARK VINA RESULT:      -7.9      0.000      0.000
REMARK  8 active torsions:
REMARK  status: ('A' for Active; 'I' for Inactive)
REMARK    1  A    between atoms: N_1  and  C_8 
REMARK       I    between atoms: N_1  and  C_21 
REMARK       I    between atoms: N_4  and  C_5 
REMARK    2  A    between atoms: C_5  and  C_19 
REMARK    3  A    between atoms: C_7  and  C_8 
REMARK    4  A    between atoms: C_8  and  C_19 
REMARK    5  A    between atoms: C_13  and  C_20 
REMARK    6  A    between atoms: C_13  and  C_14 
REMARK    7  A    between atoms: N_15  and  C_20 
REMARK    8  A    between atoms: C_20  and  C_21 
ROOT
HETATM    1  N           1     -35.598   0.005 -13.498  0.00  0.00    -0.344 N 
HETATM    2  H           1     -34.607   0.105 -13.327  0.00  0.00     0.163 HD
HETATM    3  O           1     -37.624  -0.454 -12.677  0.00  0.00    -0.271 OA
HETATM    4  C           1     -36.439  -0.335 -12.474  0.00  0.00     0.249 C 
ENDROOT
BRANCH   4   5
HETATM    5  C           1     -35.887  -0.561 -11.088  0.00  0.00     0.278 C 
BRANCH   5   6
HETATM    6  C           1     -36.276  -1.952 -10.605  0.00  0.00     0.081 C 
BRANCH   6   7
HETATM    7  C           1     -35.169  -2.914 -10.908  0.00  0.00    -0.056 A 
HETATM    8  C           1     -33.878  -2.440 -11.141  0.00  0.00     0.007 A 
HETATM    9  C           1     -32.847  -3.336 -11.423  0.00  0.00     0.001 A 
HETATM   10  C           1     -33.107  -4.706 -11.473  0.00  0.00     0.000 A 
HETATM   11  C           1     -34.398  -5.180 -11.239  0.00  0.00     0.001 A 
HETATM   12  C           1     -35.429  -4.283 -10.957  0.00  0.00     0.007 A 
ENDBRANCH   6   7
ENDBRANCH   5   6
BRANCH   5  13
HETATM   13  N           1     -36.449   0.467 -10.152  0.00  0.00    -0.066 N 
HETATM   14  H           1     -36.324   0.146  -9.165  0.00  0.00     0.275 HD
HETATM   15  H           1     -37.467   0.598 -10.347  0.00  0.00     0.275 HD
HETATM   16  H           1     -35.949   1.374 -10.290  0.00  0.00     0.275 HD
ENDBRANCH   5  13
ENDBRANCH   4   5
BRANCH   1  17
HETATM   17  C           1     -36.129   0.223 -14.830  0.00  0.00     0.194 C 
BRANCH  17  18
HETATM   18  C           1     -35.738  -0.930 -15.722  0.00  0.00     0.197 C 
HETATM   19  O           1     -35.030  -1.856 -15.272  0.00  0.00    -0.646 OA
HETATM   20  O           1     -36.124  -0.959 -16.911  0.00  0.00    -0.646 OA
ENDBRANCH  17  18
BRANCH  17  21
HETATM   21  C           1     -35.563   1.517 -15.398  0.00  0.00     0.138 C 
BRANCH  21  22
HETATM   22  C           1     -36.627   2.224 -16.200  0.00  0.00     0.217 C 
HETATM   23  N           1     -37.925   1.791 -16.148  0.00  0.00    -0.370 N 
HETATM   24  H           1     -38.170   0.997 -15.570  0.00  0.00     0.159 HD
HETATM   25  H           1     -38.639   2.265 -16.686  0.00  0.00     0.159 HD
HETATM   26  O           1     -36.334   3.171 -16.890  0.00  0.00    -0.274 OA
ENDBRANCH  21  22
ENDBRANCH  17  21
ENDBRANCH   1  17
TORSDOF 8
ENDMDL
MODEL 2
REMARK VINA RESULT:      -7.5     12.954     15.148
REMARK  8 active torsions:
REMARK  status: ('A' for Active; 'I' for Inactive)
REMARK    1  A    between atoms: N_1  and  C_8 
REMARK       I    between atoms: N_1  and  C_21 
REMARK       I    between atoms: N_4  and  C_5 
REMARK    2  A    between atoms: C_5  and  C_19 
REMARK    3  A    between atoms: C_7  and  C_8 
REMARK    4  A    between atoms: C_8  and  C_19 
REMARK    5  A    between atoms: C_13  and  C_20 
REMARK    6  A    between atoms: C_13  and  C_14 
REMARK    7  A    between atoms: N_15  and  C_20 
REMARK    8  A    between atoms: C_20  and  C_21 
ROOT
HETATM    1  N           1     -23.297  -4.281  -8.758  0.00  0.00    -0.344 N 
HETATM    2  H           1     -24.143  -4.746  -8.454  0.00  0.00     0.163 HD
HETATM    3  O           1     -21.197  -3.680  -8.293  0.00  0.00    -0.271 OA
HETATM    4  C           1     -22.207  -4.235  -7.931  0.00  0.00     0.249 C 
ENDROOT
BRANCH   4   5
HETATM    5  C           1     -22.266  -4.878  -6.568  0.00  0.00     0.278 C 
BRANCH   5   6
HETATM    6  C           1     -21.412  -6.139  -6.562  0.00  0.00     0.081 C 
BRANCH   6   7
HETATM    7  C           1     -21.400  -6.728  -5.185  0.00  0.00    -0.056 A 
HETATM    8  C           1     -21.519  -8.108  -5.017  0.00  0.00     0.007 A 
HETATM    9  C           1     -21.508  -8.657  -3.735  0.00  0.00     0.001 A 
HETATM   10  C           1     -21.378  -7.826  -2.621  0.00  0.00     0.000 A 
HETATM   11  C           1     -21.258  -6.447  -2.790  0.00  0.00     0.001 A 
HETATM   12  C           1     -21.269  -5.898  -4.073  0.00  0.00     0.007 A 
ENDBRANCH   6   7
ENDBRANCH   5   6
BRANCH   5  13
HETATM   13  N           1     -23.687  -5.235  -6.245  0.00  0.00    -0.066 N 
HETATM   14  H           1     -23.928  -4.879  -5.292  0.00  0.00     0.275 HD
HETATM   15  H           1     -23.799  -6.274  -6.267  0.00  0.00     0.275 HD
HETATM   16  H           1     -24.324  -4.802  -6.951  0.00  0.00     0.275 HD
ENDBRANCH   5  13
ENDBRANCH   4   5
BRANCH   1  17
HETATM   17  C           1     -23.240  -3.664 -10.069  0.00  0.00     0.194 C 
BRANCH  17  18
HETATM   18  C           1     -24.632  -3.279 -10.505  0.00  0.00     0.197 C 
HETATM   19  O           1     -25.538  -3.147  -9.655  0.00  0.00    -0.646 OA
HETATM   20  O           1     -24.878  -3.092 -11.717  0.00  0.00    -0.646 OA
ENDBRANCH  17  18
BRANCH  17  21
HETATM   21  C           1     -22.649  -4.649 -11.069  0.00  0.00     0.138 C 
BRANCH  21  22
HETATM   22  C           1     -21.586  -3.960 -11.888  0.00  0.00     0.217 C 
HETATM   23  N           1     -21.907  -3.400 -13.095  0.00  0.00    -0.370 N 
HETATM   24  H           1     -22.857  -3.449 -13.438  0.00  0.00     0.159 HD
HETATM   25  H           1     -21.193  -2.937 -13.644  0.00  0.00     0.159 HD
HETATM   26  O           1     -20.451  -3.902 -11.478  0.00  0.00    -0.274 OA
ENDBRANCH  21  22
ENDBRANCH  17  21
ENDBRANCH   1  17
TORSDOF 8
ENDMDL
MODEL 3
REMARK VINA RESULT:      -7.1     11.999     13.515
REMARK  8 active torsions:
REMARK  status: ('A' for Active; 'I' for Inactive)
REMARK    1  A    between atoms: N_1  and  C_8 
REMARK       I    between atoms: N_1  and  C_21 
REMARK       I    between atoms: N_4  and  C_5 
REMARK    2  A    between atoms: C_5  and  C_19 
REMARK    3  A    between atoms: C_7  and  C_8 
REMARK    4  A    between atoms: C_8  and  C_19 
REMARK    5  A    between atoms: C_13  and  C_20 
REMARK    6  A    between atoms: C_13  and  C_14 
REMARK    7  A    between atoms: N_15  and  C_20 
REMARK    8  A    between atoms: C_20  and  C_21 
ROOT
HETATM    1  N           1     -23.210  -3.509 -12.007  0.00  0.00    -0.344 N 
HETATM    2  H           1     -22.218  -3.704 -11.967  0.00  0.00     0.163 HD
HETATM    3  O           1     -25.116  -3.157 -10.898  0.00  0.00    -0.271 OA
HETATM    4  C           1     -23.932  -3.389 -10.851  0.00  0.00     0.249 C 
ENDROOT
BRANCH   4   5
HETATM    5  C           1     -23.249  -3.547  -9.515  0.00  0.00     0.278 C 
BRANCH   5   6
HETATM    6  C           1     -22.447  -4.843  -9.504  0.00  0.00     0.081 C 
BRANCH   6   7
HETATM    7  C           1     -21.401  -4.774  -8.434  0.00  0.00    -0.056 A 
HETATM    8  C           1     -21.699  -5.199  -7.139  0.00  0.00     0.007 A 
HETATM    9  C           1     -20.725  -5.136  -6.144  0.00  0.00     0.001 A 
HETATM   10  C           1     -19.453  -4.647  -6.443  0.00  0.00     0.000 A 
HETATM   11  C           1     -19.154  -4.222  -7.737  0.00  0.00     0.001 A 
HETATM   12  C           1     -20.130  -4.286  -8.733  0.00  0.00     0.007 A 
ENDBRANCH   6   7
ENDBRANCH   5   6
BRANCH   5  13
HETATM   13  N           1     -24.281  -3.589  -8.427  0.00  0.00    -0.066 N 
HETATM   14  H           1     -24.981  -4.336  -8.640  0.00  0.00     0.275 HD
HETATM   15  H           1     -24.764  -2.665  -8.369  0.00  0.00     0.275 HD
HETATM   16  H           1     -23.816  -3.797  -7.515  0.00  0.00     0.275 HD
ENDBRANCH   5  13
ENDBRANCH   4   5
BRANCH   1  17
HETATM   17  C           1     -23.867  -3.357 -13.291  0.00  0.00     0.194 C 
BRANCH  17  18
HETATM   18  C           1     -24.235  -4.716 -13.832  0.00  0.00     0.197 C 
HETATM   19  O           1     -24.639  -4.832 -15.009  0.00  0.00    -0.646 OA
HETATM   20  O           1     -24.134  -5.727 -13.103  0.00  0.00    -0.646 OA
ENDBRANCH  17  18
BRANCH  17  21
HETATM   21  C           1     -22.924  -2.663 -14.265  0.00  0.00     0.138 C 
BRANCH  21  22
HETATM   22  C           1     -23.627  -1.487 -14.896  0.00  0.00     0.217 C 
HETATM   23  N           1     -23.001  -0.757 -15.870  0.00  0.00    -0.370 N 
HETATM   24  H           1     -22.067  -1.005 -16.167  0.00  0.00     0.159 HD
HETATM   25  H           1     -23.474   0.032 -16.294  0.00  0.00     0.159 HD
HETATM   26  O           1     -24.743  -1.189 -14.542  0.00  0.00    -0.274 OA
ENDBRANCH  21  22
ENDBRANCH  17  21
ENDBRANCH   1  17
TORSDOF 8
ENDMDL
MODEL 4
REMARK VINA RESULT:      -7.0     15.085     17.905
REMARK  8 active torsions:
REMARK  status: ('A' for Active; 'I' for Inactive)
REMARK    1  A    between atoms: N_1  and  C_8 
REMARK       I    between atoms: N_1  and  C_21 
REMARK       I    between atoms: N_4  and  C_5 
REMARK    2  A    between atoms: C_5  and  C_19 
REMARK    3  A    between atoms: C_7  and  C_8 
REMARK    4  A    between atoms: C_8  and  C_19 
REMARK    5  A    between atoms: C_13  and  C_20 
REMARK    6  A    between atoms: C_13  and  C_14 
REMARK    7  A    between atoms: N_15  and  C_20 
REMARK    8  A    between atoms: C_20  and  C_21 
ROOT
HETATM    1  N           1     -21.431  -7.047  -5.393  0.00  0.00    -0.344 N 
HETATM    2  H           1     -21.993  -7.680  -5.947  0.00  0.00     0.163 HD
HETATM    3  O           1     -20.726  -4.958  -5.040  0.00  0.00    -0.271 OA
HETATM    4  C           1     -21.398  -5.714  -5.700  0.00  0.00     0.249 C 
ENDROOT
BRANCH   4   5
HETATM    5  C           1     -22.202  -5.188  -6.863  0.00  0.00     0.278 C 
BRANCH   5   6
HETATM    6  C           1     -21.564  -3.907  -7.384  0.00  0.00     0.081 C 
BRANCH   6   7
HETATM    7  C           1     -21.542  -3.933  -8.882  0.00  0.00    -0.056 A 
HETATM    8  C           1     -20.358  -4.231  -9.556  0.00  0.00     0.007 A 
HETATM    9  C           1     -20.337  -4.255 -10.950  0.00  0.00     0.001 A 
HETATM   10  C           1     -21.501  -3.981 -11.670  0.00  0.00     0.000 A 
HETATM   11  C           1     -22.685  -3.684 -10.995  0.00  0.00     0.001 A 
HETATM   12  C           1     -22.705  -3.660  -9.600  0.00  0.00     0.007 A 
ENDBRANCH   6   7
ENDBRANCH   5   6
BRANCH   5  13
HETATM   13  N           1     -23.604  -4.899  -6.412  0.00  0.00    -0.066 N 
HETATM   14  H           1     -23.669  -5.027  -5.376  0.00  0.00     0.275 HD
HETATM   15  H           1     -24.265  -5.555  -6.885  0.00  0.00     0.275 HD
HETATM   16  H           1     -23.853  -3.915  -6.659  0.00  0.00     0.275 HD
ENDBRANCH   5  13
ENDBRANCH   4   5
BRANCH   1  17
HETATM   17  C           1     -20.658  -7.554  -4.275  0.00  0.00     0.194 C 
BRANCH  17  18
HETATM   18  C           1     -19.727  -8.639  -4.757  0.00  0.00     0.197 C 
HETATM   19  O           1     -19.190  -8.547  -5.881  0.00  0.00    -0.646 OA
HETATM   20  O           1     -19.493  -9.630  -4.031  0.00  0.00    -0.646 OA
ENDBRANCH  17  18
BRANCH  17  21
HETATM   21  C           1     -21.600  -8.124  -3.224  0.00  0.00     0.138 C 
BRANCH  21  22
HETATM   22  C           1     -21.690  -7.170  -2.058  0.00  0.00     0.217 C 
HETATM   23  N           1     -22.250  -5.932  -2.228  0.00  0.00    -0.370 N 
HETATM   24  H           1     -22.604  -5.657  -3.135  0.00  0.00     0.159 HD
HETATM   25  H           1     -22.311  -5.292  -1.445  0.00  0.00     0.159 HD
HETATM   26  O           1     -21.267  -7.498  -0.975  0.00  0.00    -0.274 OA
ENDBRANCH  21  22
ENDBRANCH  17  21
ENDBRANCH   1  17
TORSDOF 8
ENDMDL
MODEL 5
REMARK VINA RESULT:      -6.8     15.229     18.127
REMARK  8 active torsions:
REMARK  status: ('A' for Active; 'I' for Inactive)
REMARK    1  A    between atoms: N_1  and  C_8 
REMARK       I    between atoms: N_1  and  C_21 
REMARK       I    between atoms: N_4  and  C_5 
REMARK    2  A    between atoms: C_5  and  C_19 
REMARK    3  A    between atoms: C_7  and  C_8 
REMARK    4  A    between atoms: C_8  and  C_19 
REMARK    5  A    between atoms: C_13  and  C_20 
REMARK    6  A    between atoms: C_13  and  C_14 
REMARK    7  A    between atoms: N_15  and  C_20 
REMARK    8  A    between atoms: C_20  and  C_21 
ROOT
HETATM    1  N           1     -21.033  -6.573  -4.805  0.00  0.00    -0.344 N 
HETATM    2  H           1     -20.024  -6.634  -4.789  0.00  0.00     0.163 HD
HETATM    3  O           1     -22.859  -5.634  -5.683  0.00  0.00    -0.271 OA
HETATM    4  C           1     -21.654  -5.708  -5.665  0.00  0.00     0.249 C 
ENDROOT
BRANCH   4   5
HETATM    5  C           1     -20.832  -4.846  -6.591  0.00  0.00     0.278 C 
BRANCH   5   6
HETATM    6  C           1     -20.572  -5.599  -7.889  0.00  0.00     0.081 C 
BRANCH   6   7
HETATM    7  C           1     -21.046  -4.777  -9.048  0.00  0.00    -0.056 A 
HETATM    8  C           1     -20.172  -4.472 -10.091  0.00  0.00     0.007 A 
HETATM    9  C           1     -20.614  -3.707 -11.170  0.00  0.00     0.001 A 
HETATM   10  C           1     -21.931  -3.248 -11.206  0.00  0.00     0.000 A 
HETATM   11  C           1     -22.806  -3.554 -10.163  0.00  0.00     0.001 A 
HETATM   12  C           1     -22.363  -4.319  -9.084  0.00  0.00     0.007 A 
ENDBRANCH   6   7
ENDBRANCH   5   6
BRANCH   5  13
HETATM   13  N           1     -19.525  -4.513  -5.936  0.00  0.00    -0.066 N 
HETATM   14  H           1     -18.738  -4.850  -6.536  0.00  0.00     0.275 HD
HETATM   15  H           1     -19.473  -4.979  -5.002  0.00  0.00     0.275 HD
HETATM   16  H           1     -19.451  -3.478  -5.813  0.00  0.00     0.275 HD
ENDBRANCH   5  13
ENDBRANCH   4   5
BRANCH   1  17
HETATM   17  C           1     -21.823  -7.402  -3.914  0.00  0.00     0.194 C 
BRANCH  17  18
HETATM   18  C           1     -21.654  -6.919  -2.495  0.00  0.00     0.197 C 
HETATM   19  O           1     -22.249  -5.889  -2.111  0.00  0.00    -0.646 OA
HETATM   20  O           1     -20.920  -7.550  -1.703  0.00  0.00    -0.646 OA
ENDBRANCH  17  18
BRANCH  17  21
HETATM   21  C           1     -21.354  -8.847  -4.017  0.00  0.00     0.138 C 
BRANCH  21  22
HETATM   22  C           1     -19.944  -8.882  -4.553  0.00  0.00     0.217 C 
HETATM   23  N           1     -18.884  -8.924  -3.687  0.00  0.00    -0.370 N 
HETATM   24  H           1     -19.045  -8.931  -2.689  0.00  0.00     0.159 HD
HETATM   25  H           1     -17.937  -8.948  -4.047  0.00  0.00     0.159 HD
HETATM   26  O           1     -19.750  -8.873  -5.745  0.00  0.00    -0.274 OA
ENDBRANCH  21  22
ENDBRANCH  17  21
ENDBRANCH   1  17
TORSDOF 8
ENDMDL
MODEL 6
REMARK VINA RESULT:      -6.7      5.141      7.435
REMARK  8 active torsions:
REMARK  status: ('A' for Active; 'I' for Inactive)
REMARK    1  A    between atoms: N_1  and  C_8 
REMARK       I    between atoms: N_1  and  C_21 
REMARK       I    between atoms: N_4  and  C_5 
REMARK    2  A    between atoms: C_5  and  C_19 
REMARK    3  A    between atoms: C_7  and  C_8 
REMARK    4  A    between atoms: C_8  and  C_19 
REMARK    5  A    between atoms: C_13  and  C_20 
REMARK    6  A    between atoms: C_13  and  C_14 
REMARK    7  A    between atoms: N_15  and  C_20 
REMARK    8  A    between atoms: C_20  and  C_21 
ROOT
HETATM    1  N           1     -33.402  -3.996 -14.259  0.00  0.00    -0.344 N 
HETATM    2  H           1     -32.458  -3.636 -14.222  0.00  0.00     0.163 HD
HETATM    3  O           1     -35.020  -4.943 -15.474  0.00  0.00    -0.271 OA
HETATM    4  C           1     -33.892  -4.513 -15.428  0.00  0.00     0.249 C 
ENDROOT
BRANCH   4   5
HETATM    5  C           1     -33.022  -4.548 -16.660  0.00  0.00     0.278 C 
BRANCH   5   6
HETATM    6  C           1     -31.557  -4.475 -16.251  0.00  0.00     0.081 C 
BRANCH   6   7
HETATM    7  C           1     -30.834  -5.684 -16.758  0.00  0.00    -0.056 A 
HETATM    8  C           1     -31.395  -6.455 -17.777  0.00  0.00     0.007 A 
HETATM    9  C           1     -30.722  -7.581 -18.249  0.00  0.00     0.001 A 
HETATM   10  C           1     -29.488  -7.937 -17.702  0.00  0.00     0.000 A 
HETATM   11  C           1     -28.928  -7.166 -16.684  0.00  0.00     0.001 A 
HETATM   12  C           1     -29.602  -6.039 -16.212  0.00  0.00     0.007 A 
ENDBRANCH   6   7
ENDBRANCH   5   6
BRANCH   5  13
HETATM   13  N           1     -33.354  -3.380 -17.540  0.00  0.00    -0.066 N 
HETATM   14  H           1     -32.539  -2.726 -17.574  0.00  0.00     0.275 HD
HETATM   15  H           1     -34.186  -2.878 -17.155  0.00  0.00     0.275 HD
HETATM   16  H           1     -33.569  -3.720 -18.504  0.00  0.00     0.275 HD
ENDBRANCH   5  13
ENDBRANCH   4   5
BRANCH   1  17
HETATM   17  C           1     -34.238  -3.962 -13.075  0.00  0.00     0.194 C 
BRANCH  17  18
HETATM   18  C           1     -34.636  -2.537 -12.780  0.00  0.00     0.197 C 
HETATM   19  O           1     -34.554  -2.094 -11.614  0.00  0.00    -0.646 OA
HETATM   20  O           1     -35.048  -1.800 -13.702  0.00  0.00    -0.646 OA
ENDBRANCH  17  18
BRANCH  17  21
HETATM   21  C           1     -33.464  -4.528 -11.891  0.00  0.00     0.138 C 
BRANCH  21  22
HETATM   22  C           1     -34.214  -5.703 -11.314  0.00  0.00     0.217 C 
HETATM   23  N           1     -34.933  -6.528 -12.138  0.00  0.00    -0.370 N 
HETATM   24  H           1     -34.962  -6.349 -13.133  0.00  0.00     0.159 HD
HETATM   25  H           1     -35.436  -7.317 -11.750  0.00  0.00     0.159 HD
HETATM   26  O           1     -34.180  -5.917 -10.125  0.00  0.00    -0.274 OA
ENDBRANCH  21  22
ENDBRANCH  17  21
ENDBRANCH   1  17
TORSDOF 8
ENDMDL
MODEL 7
REMARK VINA RESULT:      -6.7     16.935     19.505
REMARK  8 active torsions:
REMARK  status: ('A' for Active; 'I' for Inactive)
REMARK    1  A    between atoms: N_1  and  C_8 
REMARK       I    between atoms: N_1  and  C_21 
REMARK       I    between atoms: N_4  and  C_5 
REMARK    2  A    between atoms: C_5  and  C_19 
REMARK    3  A    between atoms: C_7  and  C_8 
REMARK    4  A    between atoms: C_8  and  C_19 
REMARK    5  A    between atoms: C_13  and  C_20 
REMARK    6  A    between atoms: C_13  and  C_14 
REMARK    7  A    between atoms: N_15  and  C_20 
REMARK    8  A    between atoms: C_20  and  C_21 
ROOT
HETATM    1  N           1     -21.185  -8.507  -2.570  0.00  0.00    -0.344 N 
HETATM    2  H           1     -22.059  -8.039  -2.771  0.00  0.00     0.163 HD
HETATM    3  O           1     -19.124  -9.038  -3.247  0.00  0.00    -0.271 OA
HETATM    4  C           1     -20.168  -8.480  -3.485  0.00  0.00     0.249 C 
ENDROOT
BRANCH   4   5
HETATM    5  C           1     -20.350  -7.751  -4.794  0.00  0.00     0.278 C 
BRANCH   5   6
HETATM    6  C           1     -21.140  -6.470  -4.557  0.00  0.00     0.081 C 
BRANCH   6   7
HETATM    7  C           1     -21.041  -5.591  -5.765  0.00  0.00    -0.056 A 
HETATM    8  C           1     -19.790  -5.208  -6.248  0.00  0.00     0.007 A 
HETATM    9  C           1     -19.698  -4.389  -7.374  0.00  0.00     0.001 A 
HETATM   10  C           1     -20.857  -3.953  -8.016  0.00  0.00     0.000 A 
HETATM   11  C           1     -22.109  -4.337  -7.533  0.00  0.00     0.001 A 
HETATM   12  C           1     -22.200  -5.156  -6.407  0.00  0.00     0.007 A 
ENDBRANCH   6   7
ENDBRANCH   5   6
BRANCH   5  13
HETATM   13  N           1     -21.097  -8.628  -5.755  0.00  0.00    -0.066 N 
HETATM   14  H           1     -21.221  -8.123  -6.662  0.00  0.00     0.275 HD
HETATM   15  H           1     -22.034  -8.862  -5.357  0.00  0.00     0.275 HD
HETATM   16  H           1     -20.556  -9.507  -5.915  0.00  0.00     0.275 HD
ENDBRANCH   5  13
ENDBRANCH   4   5
BRANCH   1  17
HETATM   17  C           1     -21.010  -9.207  -1.312  0.00  0.00     0.194 C 
BRANCH  17  18
HETATM   18  C           1     -22.047 -10.296  -1.194  0.00  0.00     0.197 C 
HETATM   19  O           1     -22.718 -10.631  -2.194  0.00  0.00    -0.646 OA
HETATM   20  O           1     -22.235 -10.865  -0.096  0.00  0.00    -0.646 OA
ENDBRANCH  17  18
BRANCH  17  21
HETATM   21  C           1     -21.172  -8.226  -0.158  0.00  0.00     0.138 C 
BRANCH  21  22
HETATM   22  C           1     -22.519  -7.553  -0.254  0.00  0.00     0.217 C 
HETATM   23  N           1     -23.544  -7.956   0.559  0.00  0.00    -0.370 N 
HETATM   24  H           1     -23.399  -8.704   1.224  0.00  0.00     0.159 HD
HETATM   25  H           1     -24.448  -7.504   0.495  0.00  0.00     0.159 HD
HETATM   26  O           1     -22.693  -6.660  -1.048  0.00  0.00    -0.274 OA
ENDBRANCH  21  22
ENDBRANCH  17  21
ENDBRANCH   1  17
TORSDOF 8
ENDMDL
MODEL 8
REMARK VINA RESULT:      -6.6     14.331     16.558
REMARK  8 active torsions:
REMARK  status: ('A' for Active; 'I' for Inactive)
REMARK    1  A    between atoms: N_1  and  C_8 
REMARK       I    between atoms: N_1  and  C_21 
REMARK       I    between atoms: N_4  and  C_5 
REMARK    2  A    between atoms: C_5  and  C_19 
REMARK    3  A    between atoms: C_7  and  C_8 
REMARK    4  A    between atoms: C_8  and  C_19 
REMARK    5  A    between atoms: C_13  and  C_20 
REMARK    6  A    between atoms: C_13  and  C_14 
REMARK    7  A    between atoms: N_15  and  C_20 
REMARK    8  A    between atoms: C_20  and  C_21 
ROOT
HETATM    1  N           1     -21.890  -4.815  -7.341  0.00  0.00    -0.344 N 
HETATM    2  H           1     -22.357  -4.044  -6.882  0.00  0.00     0.163 HD
HETATM    3  O           1     -20.908  -6.812  -7.157  0.00  0.00    -0.271 OA
HETATM    4  C           1     -21.466  -5.892  -6.610  0.00  0.00     0.249 C 
ENDROOT
BRANCH   4   5
HETATM    5  C           1     -21.699  -5.931  -5.120  0.00  0.00     0.278 C 
BRANCH   5   6
HETATM    6  C           1     -20.816  -7.003  -4.495  0.00  0.00     0.081 C 
BRANCH   6   7
HETATM    7  C           1     -21.329  -7.340  -3.128  0.00  0.00    -0.056 A 
HETATM    8  C           1     -21.356  -8.667  -2.701  0.00  0.00     0.007 A 
HETATM    9  C           1     -21.833  -8.981  -1.429  0.00  0.00     0.001 A 
HETATM   10  C           1     -22.285  -7.966  -0.584  0.00  0.00     0.000 A 
HETATM   11  C           1     -22.257  -6.639  -1.011  0.00  0.00     0.001 A 
HETATM   12  C           1     -21.779  -6.326  -2.284  0.00  0.00     0.007 A 
ENDBRANCH   6   7
ENDBRANCH   5   6
BRANCH   5  13
HETATM   13  N           1     -23.139  -6.248  -4.846  0.00  0.00    -0.066 N 
HETATM   14  H           1     -23.677  -5.358  -4.737  0.00  0.00     0.275 HD
HETATM   15  H           1     -23.213  -6.808  -3.968  0.00  0.00     0.275 HD
HETATM   16  H           1     -23.532  -6.797  -5.644  0.00  0.00     0.275 HD
ENDBRANCH   5  13
ENDBRANCH   4   5
BRANCH   1  17
HETATM   17  C           1     -21.666  -4.778  -8.773  0.00  0.00     0.194 C 
BRANCH  17  18
HETATM   18  C           1     -20.246  -4.351  -9.051  0.00  0.00     0.197 C 
HETATM   19  O           1     -19.700  -4.662 -10.131  0.00  0.00    -0.646 OA
HETATM   20  O           1     -19.616  -3.686  -8.200  0.00  0.00    -0.646 OA
ENDBRANCH  17  18
BRANCH  17  21
HETATM   21  C           1     -22.628  -3.784  -9.411  0.00  0.00     0.138 C 
BRANCH  21  22
HETATM   22  C           1     -23.255  -4.404 -10.635  0.00  0.00     0.217 C 
HETATM   23  N           1     -22.510  -4.586 -11.769  0.00  0.00    -0.370 N 
HETATM   24  H           1     -21.538  -4.306 -11.786  0.00  0.00     0.159 HD
HETATM   25  H           1     -22.931  -5.003 -12.590  0.00  0.00     0.159 HD
HETATM   26  O           1     -24.416  -4.739 -10.615  0.00  0.00    -0.274 OA
ENDBRANCH  21  22
ENDBRANCH  17  21
ENDBRANCH   1  17
TORSDOF 8
ENDMDL
MODEL 9
REMARK VINA RESULT:      -6.4     15.791     18.781
REMARK  8 active torsions:
REMARK  status: ('A' for Active; 'I' for Inactive)
REMARK    1  A    between atoms: N_1  and  C_8 
REMARK       I    between atoms: N_1  and  C_21 
REMARK       I    between atoms: N_4  and  C_5 
REMARK    2  A    between atoms: C_5  and  C_19 
REMARK    3  A    between atoms: C_7  and  C_8 
REMARK    4  A    between atoms: C_8  and  C_19 
REMARK    5  A    between atoms: C_13  and  C_20 
REMARK    6  A    between atoms: C_13  and  C_14 
REMARK    7  A    between atoms: N_15  and  C_20 
REMARK    8  A    between atoms: C_20  and  C_21 
ROOT
HETATM    1  N           1     -20.607  -8.054  -4.744  0.00  0.00    -0.344 N 
HETATM    2  H           1     -21.423  -8.015  -4.148  0.00  0.00     0.163 HD
HETATM    3  O           1     -19.506  -7.227  -6.502  0.00  0.00    -0.271 OA
HETATM    4  C           1     -20.480  -7.180  -5.789  0.00  0.00     0.249 C 
ENDROOT
BRANCH   4   5
HETATM    5  C           1     -21.557  -6.156  -6.052  0.00  0.00     0.278 C 
BRANCH   5   6
HETATM    6  C           1     -20.914  -4.817  -6.390  0.00  0.00     0.081 C 
BRANCH   6   7
HETATM    7  C           1     -21.202  -4.471  -7.819  0.00  0.00    -0.056 A 
HETATM    8  C           1     -22.485  -4.073  -8.195  0.00  0.00     0.007 A 
HETATM    9  C           1     -22.753  -3.751  -9.525  0.00  0.00     0.001 A 
HETATM   10  C           1     -21.737  -3.827 -10.479  0.00  0.00     0.000 A 
HETATM   11  C           1     -20.454  -4.223 -10.103  0.00  0.00     0.001 A 
HETATM   12  C           1     -20.187  -4.546  -8.772  0.00  0.00     0.007 A 
ENDBRANCH   6   7
ENDBRANCH   5   6
BRANCH   5  13
HETATM   13  N           1     -22.411  -6.005  -4.828  0.00  0.00    -0.066 N 
HETATM   14  H           1     -21.801  -5.840  -3.996  0.00  0.00     0.275 HD
HETATM   15  H           1     -22.970  -6.875  -4.683  0.00  0.00     0.275 HD
HETATM   16  H           1     -23.058  -5.193  -4.954  0.00  0.00     0.275 HD
ENDBRANCH   5  13
ENDBRANCH   4   5
BRANCH   1  17
HETATM   17  C           1     -19.572  -9.038  -4.491  0.00  0.00     0.194 C 
BRANCH  17  18
HETATM   18  C           1     -20.056 -10.400  -4.927  0.00  0.00     0.197 C 
HETATM   19  O           1     -20.488 -10.567  -6.087  0.00  0.00    -0.646 OA
HETATM   20  O           1     -20.022 -11.360  -4.127  0.00  0.00    -0.646 OA
ENDBRANCH  17  18
BRANCH  17  21
HETATM   21  C           1     -19.251  -9.067  -3.003  0.00  0.00     0.138 C 
BRANCH  21  22
HETATM   22  C           1     -20.465  -8.637  -2.217  0.00  0.00     0.217 C 
HETATM   23  N           1     -21.345  -9.576  -1.749  0.00  0.00    -0.370 N 
HETATM   24  H           1     -21.181 -10.557  -1.930  0.00  0.00     0.159 HD
HETATM   25  H           1     -22.160  -9.287  -1.221  0.00  0.00     0.159 HD
HETATM   26  O           1     -20.662  -7.465  -2.002  0.00  0.00    -0.274 OA
ENDBRANCH  21  22
ENDBRANCH  17  21
ENDBRANCH   1  17
TORSDOF 8
ENDMDL
