MODEL 1
REMARK VINA RESULT:      -6.2      0.000      0.000
REMARK  10 active torsions:
REMARK  status: ('A' for Active; 'I' for Inactive)
REMARK       I    between atoms: N_6  and  C_23 
REMARK    1  A    between atoms: C_7  and  C_20 
REMARK    2  A    between atoms: C_7  and  C_22 
REMARK    3  A    between atoms: Se_10  and  C_20 
REMARK    4  A    between atoms: N_13  and  C_15 
REMARK    5  A    between atoms: C_14  and  C_15 
REMARK    6  A    between atoms: C_14  and  C_24 
REMARK    7  A    between atoms: C_15  and  C_16 
REMARK       I    between atoms: C_16  and  N_17 
REMARK    8  A    between atoms: N_17  and  C_22 
REMARK    9  A    between atoms: C_18  and  C_22 
REMARK   10  A    between atoms: C_23  and  C_24 
ROOT
HETATM    1  C           1     -33.415  -2.390 -11.354  0.00  0.00     0.275 C 
ENDROOT
BRANCH   1   2
HETATM    2  N           1     -33.884  -2.116  -9.956  0.00  0.00    -0.066 N 
HETATM    3  H           1     -34.463  -2.918  -9.618  0.00  0.00     0.275 HD
HETATM    4  H           1     -33.055  -1.997  -9.329  0.00  0.00     0.275 HD
HETATM    5  H           1     -34.457  -1.243  -9.945  0.00  0.00     0.275 HD
ENDBRANCH   1   2
BRANCH   1   6
HETATM    6  C           1     -33.056  -3.864 -11.488  0.00  0.00     0.052 C 
BRANCH   6   7
HETATM    7  C           1     -33.931  -4.687 -10.550  0.00  0.00     0.105 C 
BRANCH   7   8
HETATM    8  C           1     -34.478  -5.882 -11.292  0.00  0.00     0.215 C 
HETATM    9  N           1     -34.810  -5.772 -12.616  0.00  0.00    -0.370 N 
HETATM   10  H           1     -35.176  -6.573 -13.114  0.00  0.00     0.159 HD
HETATM   11  H           1     -34.688  -4.889 -13.097  0.00  0.00     0.159 HD
HETATM   12  O           1     -34.623  -6.936 -10.719  0.00  0.00    -0.274 OA
ENDBRANCH   7   8
ENDBRANCH   6   7
ENDBRANCH   1   6
BRANCH   1  13
HETATM   13  C           1     -34.516  -2.048 -12.329  0.00  0.00     0.249 C 
HETATM   14  O           1     -34.706  -2.749 -13.294  0.00  0.00    -0.271 OA
HETATM   15  N           1     -35.297  -0.945 -12.118  0.00  0.00    -0.345 N 
HETATM   16  H           1     -35.137  -0.358 -11.310  0.00  0.00     0.163 HD
BRANCH  15  17
HETATM   17  C           1     -36.354  -0.616 -13.055  0.00  0.00     0.185 C 
BRANCH  17  18
HETATM   18  C           1     -37.552  -0.063 -12.295  0.00  0.00     0.036 C 
BRANCH  18  19
HETATM   19  C           1     -37.540  -0.596 -10.869  0.00  0.00     0.003 C 
BRANCH  19  20
HETATM   20 Se           1     -37.337   0.888  -9.621  0.00  0.00     0.000 Se
HETATM   21  C           1     -37.572  -0.206  -8.026  0.00  0.00     0.000 C 
ENDBRANCH  19  20
ENDBRANCH  18  19
ENDBRANCH  17  18
BRANCH  17  22
HETATM   22  C           1     -35.856   0.419 -14.033  0.00  0.00     0.196 C 
HETATM   23  O           1     -36.378   0.512 -15.166  0.00  0.00    -0.646 OA
HETATM   24  O           1     -34.919   1.183 -13.712  0.00  0.00    -0.646 OA
ENDBRANCH  17  22
ENDBRANCH  15  17
ENDBRANCH   1  13
TORSDOF 10
ENDMDL
MODEL 2
REMARK VINA RESULT:      -5.8      1.852      2.516
REMARK  10 active torsions:
REMARK  status: ('A' for Active; 'I' for Inactive)
REMARK       I    between atoms: N_6  and  C_23 
REMARK    1  A    between atoms: C_7  and  C_20 
REMARK    2  A    between atoms: C_7  and  C_22 
REMARK    3  A    between atoms: Se_10  and  C_20 
REMARK    4  A    between atoms: N_13  and  C_15 
REMARK    5  A    between atoms: C_14  and  C_15 
REMARK    6  A    between atoms: C_14  and  C_24 
REMARK    7  A    between atoms: C_15  and  C_16 
REMARK       I    between atoms: C_16  and  N_17 
REMARK    8  A    between atoms: N_17  and  C_22 
REMARK    9  A    between atoms: C_18  and  C_22 
REMARK   10  A    between atoms: C_23  and  C_24 
ROOT
HETATM    1  C           1     -34.081  -3.515 -10.396  0.00  0.00     0.275 C 
ENDROOT
BRANCH   1   2
HETATM    2  N           1     -34.300  -4.999 -10.355  0.00  0.00    -0.066 N 
HETATM    3  H           1     -34.448  -5.302  -9.366  0.00  0.00     0.275 HD
HETATM    4  H           1     -35.143  -5.242 -10.924  0.00  0.00     0.275 HD
HETATM    5  H           1     -33.463  -5.486 -10.747  0.00  0.00     0.275 HD
ENDBRANCH   1   2
BRANCH   1   6
HETATM    6  C           1     -33.106  -3.178 -11.517  0.00  0.00     0.052 C 
BRANCH   6   7
HETATM    7  C           1     -33.162  -4.265 -12.583  0.00  0.00     0.105 C 
BRANCH   7   8
HETATM    8  C           1     -33.905  -3.747 -13.790  0.00  0.00     0.215 C 
HETATM    9  N           1     -33.729  -4.344 -15.010  0.00  0.00    -0.370 N 
HETATM   10  H           1     -34.227  -3.997 -15.820  0.00  0.00     0.159 HD
HETATM   11  H           1     -33.100  -5.132 -15.101  0.00  0.00     0.159 HD
HETATM   12  O           1     -34.655  -2.806 -13.681  0.00  0.00    -0.274 OA
ENDBRANCH   7   8
ENDBRANCH   6   7
ENDBRANCH   1   6
BRANCH   1  13
HETATM   13  C           1     -35.397  -2.821 -10.647  0.00  0.00     0.249 C 
HETATM   14  O           1     -36.423  -3.458 -10.662  0.00  0.00    -0.271 OA
HETATM   15  N           1     -35.428  -1.469 -10.858  0.00  0.00    -0.345 N 
HETATM   16  H           1     -34.569  -0.935 -10.846  0.00  0.00     0.163 HD
BRANCH  15  17
HETATM   17  C           1     -36.693  -0.802 -11.100  0.00  0.00     0.185 C 
BRANCH  17  18
HETATM   18  C           1     -36.844   0.364 -10.133  0.00  0.00     0.036 C 
BRANCH  18  19
HETATM   19  C           1     -37.389  -0.143  -8.805  0.00  0.00     0.003 C 
BRANCH  19  20
HETATM   20 Se           1     -38.074   1.358  -7.766  0.00  0.00     0.000 Se
HETATM   21  C           1     -37.139   0.864  -6.129  0.00  0.00     0.000 C 
ENDBRANCH  19  20
ENDBRANCH  18  19
ENDBRANCH  17  18
BRANCH  17  22
HETATM   22  C           1     -36.728  -0.289 -12.518  0.00  0.00     0.196 C 
HETATM   23  O           1     -37.710  -0.541 -13.250  0.00  0.00    -0.646 OA
HETATM   24  O           1     -35.775   0.388 -12.962  0.00  0.00    -0.646 OA
ENDBRANCH  17  22
ENDBRANCH  15  17
ENDBRANCH   1  13
TORSDOF 10
ENDMDL
MODEL 3
REMARK VINA RESULT:      -5.8     12.547     14.691
REMARK  10 active torsions:
REMARK  status: ('A' for Active; 'I' for Inactive)
REMARK       I    between atoms: N_6  and  C_23 
REMARK    1  A    between atoms: C_7  and  C_20 
REMARK    2  A    between atoms: C_7  and  C_22 
REMARK    3  A    between atoms: Se_10  and  C_20 
REMARK    4  A    between atoms: N_13  and  C_15 
REMARK    5  A    between atoms: C_14  and  C_15 
REMARK    6  A    between atoms: C_14  and  C_24 
REMARK    7  A    between atoms: C_15  and  C_16 
REMARK       I    between atoms: C_16  and  N_17 
REMARK    8  A    between atoms: N_17  and  C_22 
REMARK    9  A    between atoms: C_18  and  C_22 
REMARK   10  A    between atoms: C_23  and  C_24 
ROOT
HETATM    1  C           1     -24.175  -4.671 -10.013  0.00  0.00     0.275 C 
ENDROOT
BRANCH   1   2
HETATM    2  N           1     -25.283  -3.660  -9.989  0.00  0.00    -0.066 N 
HETATM    3  H           1     -24.979  -2.797 -10.494  0.00  0.00     0.275 HD
HETATM    4  H           1     -26.127  -4.059 -10.460  0.00  0.00     0.275 HD
HETATM    5  H           1     -25.516  -3.421  -9.000  0.00  0.00     0.275 HD
ENDBRANCH   1   2
BRANCH   1   6
HETATM    6  C           1     -23.341  -4.479 -11.273  0.00  0.00     0.052 C 
BRANCH   6   7
HETATM    7  C           1     -23.272  -2.995 -11.616  0.00  0.00     0.105 C 
BRANCH   7   8
HETATM    8  C           1     -23.504  -2.809 -13.095  0.00  0.00     0.215 C 
HETATM    9  N           1     -22.513  -3.118 -13.988  0.00  0.00    -0.370 N 
HETATM   10  H           1     -22.668  -2.994 -14.979  0.00  0.00     0.159 HD
HETATM   11  H           1     -21.625  -3.473 -13.654  0.00  0.00     0.159 HD
HETATM   12  O           1     -24.564  -2.386 -13.492  0.00  0.00    -0.274 OA
ENDBRANCH   7   8
ENDBRANCH   6   7
ENDBRANCH   1   6
BRANCH   1  13
HETATM   13  C           1     -23.301  -4.486  -8.797  0.00  0.00     0.249 C 
HETATM   14  O           1     -23.739  -3.931  -7.817  0.00  0.00    -0.271 OA
HETATM   15  N           1     -22.012  -4.947  -8.804  0.00  0.00    -0.345 N 
HETATM   16  H           1     -21.645  -5.411  -9.625  0.00  0.00     0.163 HD
BRANCH  15  17
HETATM   17  C           1     -21.172  -4.768  -7.636  0.00  0.00     0.185 C 
BRANCH  17  18
HETATM   18  C           1     -21.078  -6.083  -6.873  0.00  0.00     0.036 C 
BRANCH  18  19
HETATM   19  C           1     -21.871  -5.979  -5.578  0.00  0.00     0.003 C 
BRANCH  19  20
HETATM   20 Se           1     -21.308  -7.388  -4.354  0.00  0.00     0.000 Se
HETATM   21  C           1     -21.581  -6.324  -2.744  0.00  0.00     0.000 C 
ENDBRANCH  19  20
ENDBRANCH  18  19
ENDBRANCH  17  18
BRANCH  17  22
HETATM   22  C           1     -19.793  -4.337  -8.068  0.00  0.00     0.196 C 
HETATM   23  O           1     -18.813  -4.525  -7.314  0.00  0.00    -0.646 OA
HETATM   24  O           1     -19.629  -3.788  -9.180  0.00  0.00    -0.646 OA
ENDBRANCH  17  22
ENDBRANCH  15  17
ENDBRANCH   1  13
TORSDOF 10
ENDMDL
MODEL 4
REMARK VINA RESULT:      -5.7     13.012     15.229
REMARK  10 active torsions:
REMARK  status: ('A' for Active; 'I' for Inactive)
REMARK       I    between atoms: N_6  and  C_23 
REMARK    1  A    between atoms: C_7  and  C_20 
REMARK    2  A    between atoms: C_7  and  C_22 
REMARK    3  A    between atoms: Se_10  and  C_20 
REMARK    4  A    between atoms: N_13  and  C_15 
REMARK    5  A    between atoms: C_14  and  C_15 
REMARK    6  A    between atoms: C_14  and  C_24 
REMARK    7  A    between atoms: C_15  and  C_16 
REMARK       I    between atoms: C_16  and  N_17 
REMARK    8  A    between atoms: N_17  and  C_22 
REMARK    9  A    between atoms: C_18  and  C_22 
REMARK   10  A    between atoms: C_23  and  C_24 
ROOT
HETATM    1  C           1     -23.282  -4.242  -9.159  0.00  0.00     0.275 C 
ENDROOT
BRANCH   1   2
HETATM    2  N           1     -24.461  -3.350  -8.906  0.00  0.00    -0.066 N 
HETATM    3  H           1     -24.952  -3.157  -9.809  0.00  0.00     0.275 HD
HETATM    4  H           1     -25.119  -3.822  -8.245  0.00  0.00     0.275 HD
HETATM    5  H           1     -24.134  -2.450  -8.489  0.00  0.00     0.275 HD
ENDBRANCH   1   2
BRANCH   1   6
HETATM    6  C           1     -22.510  -3.731 -10.369  0.00  0.00     0.052 C 
BRANCH   6   7
HETATM    7  C           1     -22.976  -4.470 -11.618  0.00  0.00     0.105 C 
BRANCH   7   8
HETATM    8  C           1     -23.712  -3.513 -12.523  0.00  0.00     0.215 C 
HETATM    9  N           1     -23.366  -3.419 -13.845  0.00  0.00    -0.370 N 
HETATM   10  H           1     -23.860  -2.778 -14.452  0.00  0.00     0.159 HD
HETATM   11  H           1     -22.617  -3.992 -14.214  0.00  0.00     0.159 HD
HETATM   12  O           1     -24.605  -2.830 -12.082  0.00  0.00    -0.274 OA
ENDBRANCH   7   8
ENDBRANCH   6   7
ENDBRANCH   1   6
BRANCH   1  13
HETATM   13  C           1     -22.382  -4.240  -7.948  0.00  0.00     0.249 C 
HETATM   14  O           1     -21.764  -3.244  -7.657  0.00  0.00    -0.271 OA
HETATM   15  N           1     -22.265  -5.367  -7.180  0.00  0.00    -0.345 N 
HETATM   16  H           1     -22.783  -6.202  -7.424  0.00  0.00     0.163 HD
BRANCH  15  17
HETATM   17  C           1     -21.400  -5.365  -6.017  0.00  0.00     0.185 C 
BRANCH  17  18
HETATM   18  C           1     -21.940  -6.342  -4.981  0.00  0.00     0.036 C 
BRANCH  18  19
HETATM   19  C           1     -21.308  -6.048  -3.627  0.00  0.00     0.003 C 
BRANCH  19  20
HETATM   20 Se           1     -21.333  -7.663  -2.534  0.00  0.00     0.000 Se
HETATM   21  C           1     -22.330  -6.853  -1.069  0.00  0.00     0.000 C 
ENDBRANCH  19  20
ENDBRANCH  18  19
ENDBRANCH  17  18
BRANCH  17  22
HETATM   22  C           1     -20.008  -5.781  -6.424  0.00  0.00     0.196 C 
HETATM   23  O           1     -19.743  -6.991  -6.599  0.00  0.00    -0.646 OA
HETATM   24  O           1     -19.119  -4.917  -6.586  0.00  0.00    -0.646 OA
ENDBRANCH  17  22
ENDBRANCH  15  17
ENDBRANCH   1  13
TORSDOF 10
ENDMDL
MODEL 5
REMARK VINA RESULT:      -5.6      2.642      3.579
REMARK  10 active torsions:
REMARK  status: ('A' for Active; 'I' for Inactive)
REMARK       I    between atoms: N_6  and  C_23 
REMARK    1  A    between atoms: C_7  and  C_20 
REMARK    2  A    between atoms: C_7  and  C_22 
REMARK    3  A    between atoms: Se_10  and  C_20 
REMARK    4  A    between atoms: N_13  and  C_15 
REMARK    5  A    between atoms: C_14  and  C_15 
REMARK    6  A    between atoms: C_14  and  C_24 
REMARK    7  A    between atoms: C_15  and  C_16 
REMARK       I    between atoms: C_16  and  N_17 
REMARK    8  A    between atoms: N_17  and  C_22 
REMARK    9  A    between atoms: C_18  and  C_22 
REMARK   10  A    between atoms: C_23  and  C_24 
ROOT
HETATM    1  C           1     -34.443  -3.999 -11.913  0.00  0.00     0.275 C 
ENDROOT
BRANCH   1   2
HETATM    2  N           1     -33.332  -4.275 -12.881  0.00  0.00    -0.066 N 
HETATM    3  H           1     -33.627  -5.023 -13.548  0.00  0.00     0.275 HD
HETATM    4  H           1     -33.110  -3.402 -13.414  0.00  0.00     0.275 HD
HETATM    5  H           1     -32.483  -4.588 -12.359  0.00  0.00     0.275 HD
ENDBRANCH   1   2
BRANCH   1   6
HETATM    6  C           1     -34.172  -4.735 -10.607  0.00  0.00     0.052 C 
BRANCH   6   7
HETATM    7  C           1     -33.549  -6.092 -10.909  0.00  0.00     0.105 C 
BRANCH   7   8
HETATM    8  C           1     -34.367  -7.178 -10.253  0.00  0.00     0.215 C 
HETATM    9  N           1     -34.063  -8.494 -10.479  0.00  0.00    -0.370 N 
HETATM   10  H           1     -34.611  -9.222 -10.039  0.00  0.00     0.159 HD
HETATM   11  H           1     -33.289  -8.738 -11.085  0.00  0.00     0.159 HD
HETATM   12  O           1     -35.290  -6.886  -9.530  0.00  0.00    -0.274 OA
ENDBRANCH   7   8
ENDBRANCH   6   7
ENDBRANCH   1   6
BRANCH   1  13
HETATM   13  C           1     -34.523  -2.515 -11.649  0.00  0.00     0.249 C 
HETATM   14  O           1     -33.644  -1.964 -11.031  0.00  0.00    -0.271 OA
HETATM   15  N           1     -35.591  -1.794 -12.110  0.00  0.00    -0.345 N 
HETATM   16  H           1     -36.328  -2.256 -12.628  0.00  0.00     0.163 HD
BRANCH  15  17
HETATM   17  C           1     -35.668  -0.369 -11.856  0.00  0.00     0.185 C 
BRANCH  17  18
HETATM   18  C           1     -36.127   0.348 -13.118  0.00  0.00     0.036 C 
BRANCH  18  19
HETATM   19  C           1     -35.583  -0.377 -14.341  0.00  0.00     0.003 C 
BRANCH  19  20
HETATM   20 Se           1     -36.273   0.466 -15.958  0.00  0.00     0.000 Se
HETATM   21  C           1     -38.075  -0.248 -15.758  0.00  0.00     0.000 C 
ENDBRANCH  19  20
ENDBRANCH  18  19
ENDBRANCH  17  18
BRANCH  17  22
HETATM   22  C           1     -36.652  -0.108 -10.742  0.00  0.00     0.196 C 
HETATM   23  O           1     -36.328  -0.335  -9.556  0.00  0.00    -0.646 OA
HETATM   24  O           1     -37.792   0.332 -11.005  0.00  0.00    -0.646 OA
ENDBRANCH  17  22
ENDBRANCH  15  17
ENDBRANCH   1  13
TORSDOF 10
ENDMDL
MODEL 6
REMARK VINA RESULT:      -5.5      2.716      3.826
REMARK  10 active torsions:
REMARK  status: ('A' for Active; 'I' for Inactive)
REMARK       I    between atoms: N_6  and  C_23 
REMARK    1  A    between atoms: C_7  and  C_20 
REMARK    2  A    between atoms: C_7  and  C_22 
REMARK    3  A    between atoms: Se_10  and  C_20 
REMARK    4  A    between atoms: N_13  and  C_15 
REMARK    5  A    between atoms: C_14  and  C_15 
REMARK    6  A    between atoms: C_14  and  C_24 
REMARK    7  A    between atoms: C_15  and  C_16 
REMARK       I    between atoms: C_16  and  N_17 
REMARK    8  A    between atoms: N_17  and  C_22 
REMARK    9  A    between atoms: C_18  and  C_22 
REMARK   10  A    between atoms: C_23  and  C_24 
ROOT
HETATM    1  C           1     -33.731  -3.821 -10.822  0.00  0.00     0.275 C 
ENDROOT
BRANCH   1   2
HETATM    2  N           1     -34.943  -4.675 -10.596  0.00  0.00    -0.066 N 
HETATM    3  H           1     -35.550  -4.653 -11.447  0.00  0.00     0.275 HD
HETATM    4  H           1     -34.644  -5.660 -10.408  0.00  0.00     0.275 HD
HETATM    5  H           1     -35.478  -4.311  -9.777  0.00  0.00     0.275 HD
ENDBRANCH   1   2
BRANCH   1   6
HETATM    6  C           1     -33.087  -4.197 -12.151  0.00  0.00     0.052 C 
BRANCH   6   7
HETATM    7  C           1     -34.159  -4.697 -13.112  0.00  0.00     0.105 C 
BRANCH   7   8
HETATM    8  C           1     -34.081  -3.918 -14.401  0.00  0.00     0.215 C 
HETATM    9  N           1     -33.314  -4.383 -15.436  0.00  0.00    -0.370 N 
HETATM   10  H           1     -33.261  -3.862 -16.302  0.00  0.00     0.159 HD
HETATM   11  H           1     -32.800  -5.250 -15.335  0.00  0.00     0.159 HD
HETATM   12  O           1     -34.693  -2.883 -14.522  0.00  0.00    -0.274 OA
ENDBRANCH   7   8
ENDBRANCH   6   7
ENDBRANCH   1   6
BRANCH   1  13
HETATM   13  C           1     -34.140  -2.368 -10.853  0.00  0.00     0.249 C 
HETATM   14  O           1     -33.478  -1.542 -10.271  0.00  0.00    -0.271 OA
HETATM   15  N           1     -35.260  -1.987 -11.540  0.00  0.00    -0.345 N 
HETATM   16  H           1     -35.815  -2.679 -12.028  0.00  0.00     0.163 HD
BRANCH  15  17
HETATM   17  C           1     -35.653  -0.592 -11.569  0.00  0.00     0.185 C 
BRANCH  17  18
HETATM   18  C           1     -36.105  -0.221 -12.975  0.00  0.00     0.036 C 
BRANCH  18  19
HETATM   19  C           1     -34.979   0.507 -13.696  0.00  0.00     0.003 C 
BRANCH  19  20
HETATM   20 Se           1     -35.633   1.191 -15.401  0.00  0.00     0.000 Se
HETATM   21  C           1     -36.952  -0.223 -15.648  0.00  0.00     0.000 C 
ENDBRANCH  19  20
ENDBRANCH  18  19
ENDBRANCH  17  18
BRANCH  17  22
HETATM   22  C           1     -36.787  -0.368 -10.599  0.00  0.00     0.196 C 
HETATM   23  O           1     -37.891  -0.922 -10.791  0.00  0.00    -0.646 OA
HETATM   24  O           1     -36.623   0.373  -9.605  0.00  0.00    -0.646 OA
ENDBRANCH  17  22
ENDBRANCH  15  17
ENDBRANCH   1  13
TORSDOF 10
ENDMDL
MODEL 7
REMARK VINA RESULT:      -5.5     14.549     17.078
REMARK  10 active torsions:
REMARK  status: ('A' for Active; 'I' for Inactive)
REMARK       I    between atoms: N_6  and  C_23 
REMARK    1  A    between atoms: C_7  and  C_20 
REMARK    2  A    between atoms: C_7  and  C_22 
REMARK    3  A    between atoms: Se_10  and  C_20 
REMARK    4  A    between atoms: N_13  and  C_15 
REMARK    5  A    between atoms: C_14  and  C_15 
REMARK    6  A    between atoms: C_14  and  C_24 
REMARK    7  A    between atoms: C_15  and  C_16 
REMARK       I    between atoms: C_16  and  N_17 
REMARK    8  A    between atoms: N_17  and  C_22 
REMARK    9  A    between atoms: C_18  and  C_22 
REMARK   10  A    between atoms: C_23  and  C_24 
ROOT
HETATM    1  C           1     -20.471  -4.987  -6.562  0.00  0.00     0.275 C 
ENDROOT
BRANCH   1   2
HETATM    2  N           1     -19.937  -5.890  -7.633  0.00  0.00    -0.066 N 
HETATM    3  H           1     -19.874  -6.867  -7.267  0.00  0.00     0.275 HD
HETATM    4  H           1     -20.578  -5.868  -8.459  0.00  0.00     0.275 HD
HETATM    5  H           1     -18.987  -5.566  -7.921  0.00  0.00     0.275 HD
ENDBRANCH   1   2
BRANCH   1   6
HETATM    6  C           1     -21.264  -3.855  -7.204  0.00  0.00     0.052 C 
BRANCH   6   7
HETATM    7  C           1     -21.437  -4.136  -8.691  0.00  0.00     0.105 C 
BRANCH   7   8
HETATM    8  C           1     -22.904  -4.303  -9.004  0.00  0.00     0.215 C 
HETATM    9  N           1     -23.841  -4.068  -8.034  0.00  0.00    -0.370 N 
HETATM   10  H           1     -24.825  -4.179  -8.242  0.00  0.00     0.159 HD
HETATM   11  H           1     -23.549  -3.782  -7.107  0.00  0.00     0.159 HD
HETATM   12  O           1     -23.252  -4.644 -10.109  0.00  0.00    -0.274 OA
ENDBRANCH   7   8
ENDBRANCH   6   7
ENDBRANCH   1   6
BRANCH   1  13
HETATM   13  C           1     -21.372  -5.775  -5.643  0.00  0.00     0.249 C 
HETATM   14  O           1     -22.566  -5.595  -5.667  0.00  0.00    -0.271 OA
HETATM   15  N           1     -20.836  -6.695  -4.783  0.00  0.00    -0.345 N 
HETATM   16  H           1     -19.836  -6.846  -4.762  0.00  0.00     0.163 HD
BRANCH  15  17
HETATM   17  C           1     -21.701  -7.452  -3.899  0.00  0.00     0.185 C 
BRANCH  17  18
HETATM   18  C           1     -21.244  -8.904  -3.863  0.00  0.00     0.036 C 
BRANCH  18  19
HETATM   19  C           1     -19.959  -9.053  -4.665  0.00  0.00     0.003 C 
BRANCH  19  20
HETATM   20 Se           1     -18.480  -9.445  -3.457  0.00  0.00     0.000 Se
HETATM   21  C           1     -19.530 -10.592  -2.281  0.00  0.00     0.000 C 
ENDBRANCH  19  20
ENDBRANCH  18  19
ENDBRANCH  17  18
BRANCH  17  22
HETATM   22  C           1     -21.637  -6.868  -2.510  0.00  0.00     0.196 C 
HETATM   23  O           1     -20.915  -7.402  -1.640  0.00  0.00    -0.646 OA
HETATM   24  O           1     -22.307  -5.851  -2.227  0.00  0.00    -0.646 OA
ENDBRANCH  17  22
ENDBRANCH  15  17
ENDBRANCH   1  13
TORSDOF 10
ENDMDL
MODEL 8
REMARK VINA RESULT:      -5.3     13.878     16.346
REMARK  10 active torsions:
REMARK  status: ('A' for Active; 'I' for Inactive)
REMARK       I    between atoms: N_6  and  C_23 
REMARK    1  A    between atoms: C_7  and  C_20 
REMARK    2  A    between atoms: C_7  and  C_22 
REMARK    3  A    between atoms: Se_10  and  C_20 
REMARK    4  A    between atoms: N_13  and  C_15 
REMARK    5  A    between atoms: C_14  and  C_15 
REMARK    6  A    between atoms: C_14  and  C_24 
REMARK    7  A    between atoms: C_15  and  C_16 
REMARK       I    between atoms: C_16  and  N_17 
REMARK    8  A    between atoms: N_17  and  C_22 
REMARK    9  A    between atoms: C_18  and  C_22 
REMARK   10  A    between atoms: C_23  and  C_24 
ROOT
HETATM    1  C           1     -20.952  -3.952  -7.290  0.00  0.00     0.275 C 
ENDROOT
BRANCH   1   2
HETATM    2  N           1     -19.873  -4.161  -8.311  0.00  0.00    -0.066 N 
HETATM    3  H           1     -18.956  -3.846  -7.920  0.00  0.00     0.275 HD
HETATM    4  H           1     -19.817  -5.176  -8.555  0.00  0.00     0.275 HD
HETATM    5  H           1     -20.093  -3.608  -9.170  0.00  0.00     0.275 HD
ENDBRANCH   1   2
BRANCH   1   6
HETATM    6  C           1     -22.289  -4.398  -7.869  0.00  0.00     0.052 C 
BRANCH   6   7
HETATM    7  C           1     -22.313  -4.119  -9.367  0.00  0.00     0.105 C 
BRANCH   7   8
HETATM    8  C           1     -23.741  -3.951  -9.824  0.00  0.00     0.215 C 
HETATM    9  N           1     -24.639  -3.287  -9.033  0.00  0.00    -0.370 N 
HETATM   10  H           1     -25.597  -3.173  -9.339  0.00  0.00     0.159 HD
HETATM   11  H           1     -24.345  -2.909  -8.141  0.00  0.00     0.159 HD
HETATM   12  O           1     -24.092  -4.402 -10.888  0.00  0.00    -0.274 OA
ENDBRANCH   7   8
ENDBRANCH   6   7
ENDBRANCH   1   6
BRANCH   1  13
HETATM   13  C           1     -20.640  -4.763  -6.057  0.00  0.00     0.249 C 
HETATM   14  O           1     -19.846  -4.348  -5.246  0.00  0.00    -0.271 OA
HETATM   15  N           1     -21.257  -5.968  -5.856  0.00  0.00    -0.345 N 
HETATM   16  H           1     -21.922  -6.316  -6.535  0.00  0.00     0.163 HD
BRANCH  15  17
HETATM   17  C           1     -20.956  -6.748  -4.671  0.00  0.00     0.185 C 
BRANCH  17  18
HETATM   18  C           1     -22.140  -6.692  -3.714  0.00  0.00     0.036 C 
BRANCH  18  19
HETATM   19  C           1     -21.704  -6.054  -2.403  0.00  0.00     0.003 C 
BRANCH  19  20
HETATM   20 Se           1     -22.286  -7.167  -0.912  0.00  0.00     0.000 Se
HETATM   21  C           1     -20.800  -8.421  -1.055  0.00  0.00     0.000 C 
ENDBRANCH  19  20
ENDBRANCH  18  19
ENDBRANCH  17  18
BRANCH  17  22
HETATM   22  C           1     -20.692  -8.180  -5.064  0.00  0.00     0.196 C 
HETATM   23  O           1     -19.705  -8.461  -5.778  0.00  0.00    -0.646 OA
HETATM   24  O           1     -21.461  -9.087  -4.677  0.00  0.00    -0.646 OA
ENDBRANCH  17  22
ENDBRANCH  15  17
ENDBRANCH   1  13
TORSDOF 10
ENDMDL
MODEL 9
REMARK VINA RESULT:      -5.1     14.460     16.498
REMARK  10 active torsions:
REMARK  status: ('A' for Active; 'I' for Inactive)
REMARK       I    between atoms: N_6  and  C_23 
REMARK    1  A    between atoms: C_7  and  C_20 
REMARK    2  A    between atoms: C_7  and  C_22 
REMARK    3  A    between atoms: Se_10  and  C_20 
REMARK    4  A    between atoms: N_13  and  C_15 
REMARK    5  A    between atoms: C_14  and  C_15 
REMARK    6  A    between atoms: C_14  and  C_24 
REMARK    7  A    between atoms: C_15  and  C_16 
REMARK       I    between atoms: C_16  and  N_17 
REMARK    8  A    between atoms: N_17  and  C_22 
REMARK    9  A    between atoms: C_18  and  C_22 
REMARK   10  A    between atoms: C_23  and  C_24 
ROOT
HETATM    1  C           1     -21.245  -6.408  -2.841  0.00  0.00     0.275 C 
ENDROOT
BRANCH   1   2
HETATM    2  N           1     -22.418  -5.807  -2.124  0.00  0.00    -0.066 N 
HETATM    3  H           1     -22.413  -4.770  -2.256  0.00  0.00     0.275 HD
HETATM    4  H           1     -23.304  -6.204  -2.514  0.00  0.00     0.275 HD
HETATM    5  H           1     -22.356  -6.029  -1.106  0.00  0.00     0.275 HD
ENDBRANCH   1   2
BRANCH   1   6
HETATM    6  C           1     -21.014  -7.826  -2.332  0.00  0.00     0.052 C 
BRANCH   6   7
HETATM    7  C           1     -21.383  -7.902  -0.856  0.00  0.00     0.105 C 
BRANCH   7   8
HETATM    8  C           1     -21.708  -9.330  -0.492  0.00  0.00     0.215 C 
HETATM    9  N           1     -22.476 -10.092  -1.332  0.00  0.00    -0.370 N 
HETATM   10  H           1     -22.694 -11.049  -1.089  0.00  0.00     0.159 HD
HETATM   11  H           1     -22.824  -9.697  -2.197  0.00  0.00     0.159 HD
HETATM   12  O           1     -21.293  -9.801   0.540  0.00  0.00    -0.274 OA
ENDBRANCH   7   8
ENDBRANCH   6   7
ENDBRANCH   1   6
BRANCH   1  13
HETATM   13  C           1     -21.526  -6.444  -4.323  0.00  0.00     0.249 C 
HETATM   14  O           1     -22.158  -7.358  -4.796  0.00  0.00    -0.271 OA
HETATM   15  N           1     -21.065  -5.440  -5.131  0.00  0.00    -0.345 N 
HETATM   16  H           1     -20.535  -4.674  -4.735  0.00  0.00     0.163 HD
BRANCH  15  17
HETATM   17  C           1     -21.334  -5.475  -6.555  0.00  0.00     0.185 C 
BRANCH  17  18
HETATM   18  C           1     -21.827  -4.108  -7.011  0.00  0.00     0.036 C 
BRANCH  18  19
HETATM   19  C           1     -23.124  -4.269  -7.791  0.00  0.00     0.003 C 
BRANCH  19  20
HETATM   20 Se           1     -22.809  -3.855  -9.671  0.00  0.00     0.000 Se
HETATM   21  C           1     -24.671  -3.428 -10.058  0.00  0.00     0.000 C 
ENDBRANCH  19  20
ENDBRANCH  18  19
ENDBRANCH  17  18
BRANCH  17  22
HETATM   22  C           1     -20.070  -5.828  -7.298  0.00  0.00     0.196 C 
HETATM   23  O           1     -19.437  -6.865  -6.999  0.00  0.00    -0.646 OA
HETATM   24  O           1     -19.653  -5.085  -8.213  0.00  0.00    -0.646 OA
ENDBRANCH  17  22
ENDBRANCH  15  17
ENDBRANCH   1  13
TORSDOF 10
ENDMDL
