MODEL 1
REMARK VINA RESULT:      -6.2      0.000      0.000
REMARK  4 active torsions:
REMARK  status: ('A' for Active; 'I' for Inactive)
REMARK    1  A    between atoms: C_1  and  C_2 
REMARK    2  A    between atoms: C_2  and  C_4 
REMARK    3  A    between atoms: C_2  and  N_16 
REMARK    4  A    between atoms: C_6  and  C_7 
REMARK       I    between atoms: C_7  and  N_16 
ROOT
HETATM    1  C           1     -34.962  -0.392 -14.401  0.00  0.00     0.274 C 
HETATM    2  H           1     -36.289  -1.013 -15.898  0.00  0.00     0.255 HD
HETATM    3  H           1     -35.384   0.375 -16.304  0.00  0.00     0.275 HD
HETATM    4  H           1     -35.749   1.066 -16.321  0.00  0.00     0.274 HD
HETATM    5  C           1     -35.991   0.483 -13.699  0.00  0.00     0.062 C 
HETATM    6  C           1     -37.362  -0.175 -13.783  0.00  0.00     0.004 C 
HETATM    7  H           1     -36.186   1.786 -14.836  0.00  0.00     0.254 HD
HETATM    8  C           1     -37.754  -0.345 -15.245  0.00  0.00     0.047 C 
HETATM    9  H           1     -36.489   2.604 -16.303  0.00  0.00     0.274 HD
HETATM   10  C           1     -37.804   1.019 -15.920  0.00  0.00     0.229 C 
HETATM   11  H           1     -34.643  -1.162 -16.322  0.00  0.00     0.275 HD
HETATM   12  N           1     -36.454   1.667 -15.838  0.00  0.00    -0.080 N 
HETATM   13  N           1     -35.349  -0.561 -15.841  0.00  0.00    -0.067 N 
ENDROOT
BRANCH   1  14
HETATM   14  C           1     -34.912  -1.745 -13.733  0.00  0.00     0.249 C 
HETATM   15  N           1     -35.026  -1.841 -12.373  0.00  0.00    -0.344 N 
HETATM   16  H           1     -35.145  -1.006 -11.814  0.00  0.00     0.163 HD
HETATM   17  O           1     -34.770  -2.743 -14.400  0.00  0.00    -0.271 OA
BRANCH  15  18
HETATM   18  C           1     -34.977  -3.141 -11.731  0.00  0.00     0.189 C 
BRANCH  18  19
HETATM   19  C           1     -36.146  -3.279 -10.788  0.00  0.00     0.197 C 
HETATM   20  O           1     -36.763  -2.263 -10.403  0.00  0.00    -0.646 OA
HETATM   21  O           1     -36.499  -4.412 -10.392  0.00  0.00    -0.646 OA
ENDBRANCH  18  19
BRANCH  18  22
HETATM   22  C           1     -33.676  -3.274 -10.951  0.00  0.00     0.010 C 
HETATM   23  C           1     -33.175  -1.890 -10.560  0.00  0.00     0.012 C 
HETATM   24  C           1     -32.633  -3.965 -11.820  0.00  0.00     0.012 C 
ENDBRANCH  18  22
ENDBRANCH  15  18
ENDBRANCH   1  14
TORSDOF 4
ENDMDL
MODEL 2
REMARK VINA RESULT:      -5.8     12.929     15.940
REMARK  4 active torsions:
REMARK  status: ('A' for Active; 'I' for Inactive)
REMARK    1  A    between atoms: C_1  and  C_2 
REMARK    2  A    between atoms: C_2  and  C_4 
REMARK    3  A    between atoms: C_2  and  N_16 
REMARK    4  A    between atoms: C_6  and  C_7 
REMARK       I    between atoms: C_7  and  N_16 
ROOT
HETATM    1  C           1     -20.510  -5.951  -7.359  0.00  0.00     0.274 C 
HETATM    2  H           1     -20.129  -4.969  -5.549  0.00  0.00     0.255 HD
HETATM    3  H           1     -19.141  -6.333  -5.820  0.00  0.00     0.275 HD
HETATM    4  H           1     -19.272  -6.978  -5.399  0.00  0.00     0.274 HD
HETATM    5  C           1     -21.590  -6.849  -6.772  0.00  0.00     0.062 C 
HETATM    6  C           1     -22.381  -6.076  -5.724  0.00  0.00     0.004 C 
HETATM    7  H           1     -20.658  -7.910  -5.756  0.00  0.00     0.254 HD
HETATM    8  C           1     -21.442  -5.619  -4.615  0.00  0.00     0.047 C 
HETATM    9  H           1     -19.568  -8.429  -4.549  0.00  0.00     0.274 HD
HETATM   10  C           1     -20.793  -6.834  -3.965  0.00  0.00     0.229 C 
HETATM   11  H           1     -18.846  -4.884  -6.670  0.00  0.00     0.275 HD
HETATM   12  N           1     -20.014  -7.595  -4.996  0.00  0.00    -0.080 N 
HETATM   13  N           1     -19.586  -5.500  -6.266  0.00  0.00    -0.067 N 
ENDROOT
BRANCH   1  14
HETATM   14  C           1     -21.152  -4.746  -8.003  0.00  0.00     0.249 C 
HETATM   15  N           1     -21.931  -4.899  -9.118  0.00  0.00    -0.344 N 
HETATM   16  H           1     -22.077  -5.820  -9.511  0.00  0.00     0.163 HD
HETATM   17  O           1     -20.978  -3.646  -7.534  0.00  0.00    -0.271 OA
BRANCH  15  18
HETATM   18  C           1     -22.548  -3.741  -9.736  0.00  0.00     0.189 C 
BRANCH  18  19
HETATM   19  C           1     -24.048  -3.889  -9.692  0.00  0.00     0.197 C 
HETATM   20  O           1     -24.580  -4.973 -10.012  0.00  0.00    -0.646 OA
HETATM   21  O           1     -24.760  -2.924  -9.336  0.00  0.00    -0.646 OA
ENDBRANCH  18  19
BRANCH  18  22
HETATM   22  C           1     -22.089  -3.635 -11.185  0.00  0.00     0.010 C 
HETATM   23  C           1     -20.595  -3.339 -11.223  0.00  0.00     0.012 C 
HETATM   24  C           1     -22.848  -2.509 -11.875  0.00  0.00     0.012 C 
ENDBRANCH  18  22
ENDBRANCH  15  18
ENDBRANCH   1  14
TORSDOF 4
ENDMDL
MODEL 3
REMARK VINA RESULT:      -5.7     12.886     14.975
REMARK  4 active torsions:
REMARK  status: ('A' for Active; 'I' for Inactive)
REMARK    1  A    between atoms: C_1  and  C_2 
REMARK    2  A    between atoms: C_2  and  C_4 
REMARK    3  A    between atoms: C_2  and  N_16 
REMARK    4  A    between atoms: C_6  and  C_7 
REMARK       I    between atoms: C_7  and  N_16 
ROOT
HETATM    1  C           1     -21.526  -3.313 -10.391  0.00  0.00     0.274 C 
HETATM    2  H           1     -21.728  -4.406 -12.166  0.00  0.00     0.255 HD
HETATM    3  H           1     -21.775  -2.715 -12.383  0.00  0.00     0.275 HD
HETATM    4  H           1     -22.460  -2.381 -12.557  0.00  0.00     0.274 HD
HETATM    5  C           1     -23.018  -3.317 -10.089  0.00  0.00     0.062 C 
HETATM    6  C           1     -23.623  -4.644 -10.530  0.00  0.00     0.004 C 
HETATM    7  H           1     -23.634  -2.255 -11.323  0.00  0.00     0.254 HD
HETATM    8  C           1     -23.408  -4.829 -12.026  0.00  0.00     0.047 C 
HETATM    9  H           1     -23.946  -1.601 -12.868  0.00  0.00     0.274 HD
HETATM   10  C           1     -24.080  -3.690 -12.781  0.00  0.00     0.229 C 
HETATM   11  H           1     -20.290  -3.494 -12.072  0.00  0.00     0.275 HD
HETATM   12  N           1     -23.485  -2.383 -12.349  0.00  0.00    -0.080 N 
HETATM   13  N           1     -21.314  -3.496 -11.865  0.00  0.00    -0.067 N 
ENDROOT
BRANCH   1  14
HETATM   14  C           1     -20.858  -4.442  -9.644  0.00  0.00     0.249 C 
HETATM   15  N           1     -21.024  -4.559  -8.291  0.00  0.00    -0.344 N 
HETATM   16  H           1     -21.595  -3.891  -7.790  0.00  0.00     0.163 HD
HETATM   17  O           1     -20.175  -5.241 -10.241  0.00  0.00    -0.271 OA
BRANCH  15  18
HETATM   18  C           1     -20.382  -5.644  -7.573  0.00  0.00     0.189 C 
BRANCH  18  19
HETATM   19  C           1     -21.400  -6.347  -6.711  0.00  0.00     0.197 C 
HETATM   20  O           1     -21.202  -7.525  -6.342  0.00  0.00    -0.646 OA
HETATM   21  O           1     -22.444  -5.751  -6.364  0.00  0.00    -0.646 OA
ENDBRANCH  18  19
BRANCH  18  22
HETATM   22  C           1     -19.271  -5.084  -6.694  0.00  0.00     0.010 C 
HETATM   23  C           1     -19.881  -4.434  -5.459  0.00  0.00     0.012 C 
HETATM   24  C           1     -18.481  -4.044  -7.478  0.00  0.00     0.012 C 
ENDBRANCH  18  22
ENDBRANCH  15  18
ENDBRANCH   1  14
TORSDOF 4
ENDMDL
MODEL 4
REMARK VINA RESULT:      -5.5     17.148     19.899
REMARK  4 active torsions:
REMARK  status: ('A' for Active; 'I' for Inactive)
REMARK    1  A    between atoms: C_1  and  C_2 
REMARK    2  A    between atoms: C_2  and  C_4 
REMARK    3  A    between atoms: C_2  and  N_16 
REMARK    4  A    between atoms: C_6  and  C_7 
REMARK       I    between atoms: C_7  and  N_16 
ROOT
HETATM    1  C           1     -21.376 -10.722  -1.330  0.00  0.00     0.274 C 
HETATM    2  H           1     -20.192  -9.080  -0.793  0.00  0.00     0.255 HD
HETATM    3  H           1     -19.759 -10.533  -0.011  0.00  0.00     0.275 HD
HETATM    4  H           1     -19.926 -10.612   0.748  0.00  0.00     0.274 HD
HETATM    5  C           1     -22.424 -10.457  -0.258  0.00  0.00     0.062 C 
HETATM    6  C           1     -22.601  -8.955  -0.079  0.00  0.00     0.004 C 
HETATM    7  H           1     -21.555 -10.857   1.196  0.00  0.00     0.254 HD
HETATM    8  C           1     -21.276  -8.334   0.343  0.00  0.00     0.047 C 
HETATM    9  H           1     -20.333 -10.854   2.388  0.00  0.00     0.274 HD
HETATM   10  C           1     -20.821  -8.952   1.659  0.00  0.00     0.229 C 
HETATM   11  H           1     -19.352 -10.292  -1.651  0.00  0.00     0.275 HD
HETATM   12  N           1     -20.646 -10.431   1.484  0.00  0.00    -0.080 N 
HETATM   13  N           1     -20.071 -10.110  -0.915  0.00  0.00    -0.067 N 
ENDROOT
BRANCH   1  14
HETATM   14  C           1     -21.824 -10.111  -2.635  0.00  0.00     0.249 C 
HETATM   15  N           1     -21.188  -9.004  -3.127  0.00  0.00    -0.344 N 
HETATM   16  H           1     -20.415  -8.595  -2.617  0.00  0.00     0.163 HD
HETATM   17  O           1     -22.747 -10.599  -3.245  0.00  0.00    -0.271 OA
BRANCH  15  18
HETATM   18  C           1     -21.619  -8.417  -4.381  0.00  0.00     0.189 C 
BRANCH  18  19
HETATM   19  C           1     -20.740  -8.920  -5.499  0.00  0.00     0.197 C 
HETATM   20  O           1     -19.690  -8.310  -5.794  0.00  0.00    -0.646 OA
HETATM   21  O           1     -21.062  -9.950  -6.132  0.00  0.00    -0.646 OA
ENDBRANCH  18  19
BRANCH  18  22
HETATM   22  C           1     -21.513  -6.900  -4.295  0.00  0.00     0.010 C 
HETATM   23  C           1     -21.795  -6.454  -2.866  0.00  0.00     0.012 C 
HETATM   24  C           1     -22.530  -6.267  -5.235  0.00  0.00     0.012 C 
ENDBRANCH  18  22
ENDBRANCH  15  18
ENDBRANCH   1  14
TORSDOF 4
ENDMDL
MODEL 5
REMARK VINA RESULT:      -5.5     15.885     17.522
REMARK  4 active torsions:
REMARK  status: ('A' for Active; 'I' for Inactive)
REMARK    1  A    between atoms: C_1  and  C_2 
REMARK    2  A    between atoms: C_2  and  C_4 
REMARK    3  A    between atoms: C_2  and  N_16 
REMARK    4  A    between atoms: C_6  and  C_7 
REMARK       I    between atoms: C_7  and  N_16 
ROOT
HETATM    1  C           1     -19.926  -5.960  -6.019  0.00  0.00     0.274 C 
HETATM    2  H           1     -20.844  -6.431  -7.841  0.00  0.00     0.255 HD
HETATM    3  H           1     -19.245  -5.856  -7.998  0.00  0.00     0.275 HD
HETATM    4  H           1     -19.134  -5.138  -8.283  0.00  0.00     0.274 HD
HETATM    5  C           1     -20.441  -4.527  -6.004  0.00  0.00     0.062 C 
HETATM    6  C           1     -21.841  -4.483  -6.602  0.00  0.00     0.004 C 
HETATM    7  H           1     -19.517  -3.803  -7.289  0.00  0.00     0.254 HD
HETATM    8  C           1     -21.797  -4.992  -8.037  0.00  0.00     0.047 C 
HETATM    9  H           1     -18.848  -3.549  -8.839  0.00  0.00     0.274 HD
HETATM   10  C           1     -20.866  -4.111  -8.860  0.00  0.00     0.229 C 
HETATM   11  H           1     -19.530  -7.444  -7.442  0.00  0.00     0.275 HD
HETATM   12  N           1     -19.487  -4.154  -8.273  0.00  0.00    -0.080 N 
HETATM   13  N           1     -19.883  -6.461  -7.432  0.00  0.00    -0.067 N 
ENDROOT
BRANCH   1  14
HETATM   14  C           1     -20.847  -6.835  -5.204  0.00  0.00     0.249 C 
HETATM   15  N           1     -20.700  -6.904  -3.845  0.00  0.00    -0.344 N 
HETATM   16  H           1     -19.975  -6.369  -3.386  0.00  0.00     0.163 HD
HETATM   17  O           1     -21.714  -7.474  -5.752  0.00  0.00    -0.271 OA
BRANCH  15  18
HETATM   18  C           1     -21.586  -7.745  -3.062  0.00  0.00     0.189 C 
BRANCH  18  19
HETATM   19  C           1     -22.026  -6.997  -1.828  0.00  0.00     0.197 C 
HETATM   20  O           1     -22.553  -5.869  -1.934  0.00  0.00    -0.646 OA
HETATM   21  O           1     -21.864  -7.507  -0.697  0.00  0.00    -0.646 OA
ENDBRANCH  18  19
BRANCH  18  22
HETATM   22  C           1     -20.851  -9.014  -2.653  0.00  0.00     0.010 C 
HETATM   23  C           1     -19.362  -8.850  -2.932  0.00  0.00     0.012 C 
HETATM   24  C           1     -21.391 -10.192  -3.451  0.00  0.00     0.012 C 
ENDBRANCH  18  22
ENDBRANCH  15  18
ENDBRANCH   1  14
TORSDOF 4
ENDMDL
MODEL 6
REMARK VINA RESULT:      -5.3     19.037     20.958
REMARK  4 active torsions:
REMARK  status: ('A' for Active; 'I' for Inactive)
REMARK    1  A    between atoms: C_1  and  C_2 
REMARK    2  A    between atoms: C_2  and  C_4 
REMARK    3  A    between atoms: C_2  and  N_16 
REMARK    4  A    between atoms: C_6  and  C_7 
REMARK       I    between atoms: C_7  and  N_16 
ROOT
HETATM    1  C           1     -18.699 -10.598  -2.180  0.00  0.00     0.274 C 
HETATM    2  H           1     -18.917 -11.740  -3.922  0.00  0.00     0.255 HD
HETATM    3  H           1     -17.645 -12.255  -2.909  0.00  0.00     0.275 HD
HETATM    4  H           1     -16.909 -12.119  -3.136  0.00  0.00     0.274 HD
HETATM    5  C           1     -17.771  -9.582  -2.830  0.00  0.00     0.062 C 
HETATM    6  C           1     -18.195  -9.357  -4.276  0.00  0.00     0.004 C 
HETATM    7  H           1     -16.322 -10.518  -3.059  0.00  0.00     0.254 HD
HETATM    8  C           1     -18.119 -10.673  -5.038  0.00  0.00     0.047 C 
HETATM    9  H           1     -15.291 -11.782  -3.559  0.00  0.00     0.274 HD
HETATM   10  C           1     -16.690 -11.198  -5.005  0.00  0.00     0.229 C 
HETATM   11  H           1     -19.263 -12.592  -2.486  0.00  0.00     0.275 HD
HETATM   12  N           1     -16.272 -11.421  -3.582  0.00  0.00    -0.080 N 
HETATM   13  N           1     -18.625 -11.895  -2.932  0.00  0.00    -0.067 N 
ENDROOT
BRANCH   1  14
HETATM   14  C           1     -20.117 -10.080  -2.213  0.00  0.00     0.249 C 
HETATM   15  N           1     -20.451  -8.959  -1.503  0.00  0.00    -0.344 N 
HETATM   16  H           1     -19.749  -8.476  -0.957  0.00  0.00     0.163 HD
HETATM   17  O           1     -20.955 -10.655  -2.865  0.00  0.00    -0.271 OA
BRANCH  15  18
HETATM   18  C           1     -21.813  -8.460  -1.534  0.00  0.00     0.189 C 
BRANCH  18  19
HETATM   19  C           1     -21.809  -7.015  -1.968  0.00  0.00     0.197 C 
HETATM   20  O           1     -21.129  -6.660  -2.954  0.00  0.00    -0.646 OA
HETATM   21  O           1     -22.487  -6.172  -1.340  0.00  0.00    -0.646 OA
ENDBRANCH  18  19
BRANCH  18  22
HETATM   22  C           1     -22.427  -8.573  -0.145  0.00  0.00     0.010 C 
HETATM   23  C           1     -21.318  -8.614   0.897  0.00  0.00     0.012 C 
HETATM   24  C           1     -23.254  -9.849  -0.059  0.00  0.00     0.012 C 
ENDBRANCH  18  22
ENDBRANCH  15  18
ENDBRANCH   1  14
TORSDOF 4
ENDMDL
MODEL 7
REMARK VINA RESULT:      -5.3     19.131     20.146
REMARK  4 active torsions:
REMARK  status: ('A' for Active; 'I' for Inactive)
REMARK    1  A    between atoms: C_1  and  C_2 
REMARK    2  A    between atoms: C_2  and  C_4 
REMARK    3  A    between atoms: C_2  and  N_16 
REMARK    4  A    between atoms: C_6  and  C_7 
REMARK       I    between atoms: C_7  and  N_16 
ROOT
HETATM    1  C           1     -19.542  -8.932  -3.690  0.00  0.00     0.274 C 
HETATM    2  H           1     -18.092 -10.439  -3.792  0.00  0.00     0.255 HD
HETATM    3  H           1     -17.712  -9.047  -4.702  0.00  0.00     0.275 HD
HETATM    4  H           1     -17.754  -9.089  -5.482  0.00  0.00     0.274 HD
HETATM    5  C           1     -20.350  -9.477  -4.859  0.00  0.00     0.062 C 
HETATM    6  C           1     -20.308 -10.999  -4.841  0.00  0.00     0.004 C 
HETATM    7  H           1     -19.300  -9.140  -6.205  0.00  0.00     0.254 HD
HETATM    8  C           1     -18.864 -11.469  -4.959  0.00  0.00     0.047 C 
HETATM    9  H           1     -17.901  -9.114  -7.182  0.00  0.00     0.274 HD
HETATM   10  C           1     -18.270 -10.961  -6.266  0.00  0.00     0.229 C 
HETATM   11  H           1     -17.566  -9.021  -3.003  0.00  0.00     0.275 HD
HETATM   12  N           1     -18.310  -9.462  -6.285  0.00  0.00    -0.080 N 
HETATM   13  N           1     -18.120  -9.395  -3.805  0.00  0.00    -0.067 N 
ENDROOT
BRANCH   1  14
HETATM   14  C           1     -20.130  -9.434  -2.393  0.00  0.00     0.249 C 
HETATM   15  N           1     -21.402  -9.079  -2.036  0.00  0.00    -0.344 N 
HETATM   16  H           1     -21.950  -8.480  -2.640  0.00  0.00     0.163 HD
HETATM   17  O           1     -19.476 -10.150  -1.671  0.00  0.00    -0.271 OA
BRANCH  15  18
HETATM   18  C           1     -21.967  -9.562  -0.790  0.00  0.00     0.189 C 
BRANCH  18  19
HETATM   19  C           1     -23.128 -10.478  -1.087  0.00  0.00     0.197 C 
HETATM   20  O           1     -24.014 -10.664  -0.227  0.00  0.00    -0.646 OA
HETATM   21  O           1     -23.203 -11.052  -2.196  0.00  0.00    -0.646 OA
ENDBRANCH  18  19
BRANCH  18  22
HETATM   22  C           1     -22.451  -8.381   0.040  0.00  0.00     0.010 C 
HETATM   23  C           1     -22.399  -7.113  -0.804  0.00  0.00     0.012 C 
HETATM   24  C           1     -21.554  -8.216   1.259  0.00  0.00     0.012 C 
ENDBRANCH  18  22
ENDBRANCH  15  18
ENDBRANCH   1  14
TORSDOF 4
ENDMDL
MODEL 8
REMARK VINA RESULT:      -5.2     17.085     18.826
REMARK  4 active torsions:
REMARK  status: ('A' for Active; 'I' for Inactive)
REMARK    1  A    between atoms: C_1  and  C_2 
REMARK    2  A    between atoms: C_2  and  C_4 
REMARK    3  A    between atoms: C_2  and  N_16 
REMARK    4  A    between atoms: C_6  and  C_7 
REMARK       I    between atoms: C_7  and  N_16 
ROOT
HETATM    1  C           1     -21.843  -6.592  -3.451  0.00  0.00     0.274 C 
HETATM    2  H           1     -19.988  -6.124  -4.303  0.00  0.00     0.255 HD
HETATM    3  H           1     -21.180  -4.926  -4.535  0.00  0.00     0.275 HD
HETATM    4  H           1     -21.486  -4.838  -5.248  0.00  0.00     0.274 HD
HETATM    5  C           1     -22.346  -7.331  -4.683  0.00  0.00     0.062 C 
HETATM    6  C           1     -21.190  -8.076  -5.337  0.00  0.00     0.004 C 
HETATM    7  H           1     -22.573  -6.028  -5.814  0.00  0.00     0.254 HD
HETATM    8  C           1     -20.112  -7.081  -5.747  0.00  0.00     0.047 C 
HETATM    9  H           1     -22.232  -4.658  -6.773  0.00  0.00     0.274 HD
HETATM   10  C           1     -20.694  -6.081  -6.737  0.00  0.00     0.229 C 
HETATM   11  H           1     -20.436  -5.105  -3.010  0.00  0.00     0.275 HD
HETATM   12  N           1     -21.833  -5.346  -6.094  0.00  0.00    -0.080 N 
HETATM   13  N           1     -20.781  -5.612  -3.855  0.00  0.00    -0.067 N 
ENDROOT
BRANCH   1  14
HETATM   14  C           1     -21.265  -7.582  -2.470  0.00  0.00     0.249 C 
HETATM   15  N           1     -22.087  -8.469  -1.829  0.00  0.00    -0.344 N 
HETATM   16  H           1     -23.082  -8.463  -2.013  0.00  0.00     0.163 HD
HETATM   17  O           1     -20.077  -7.591  -2.250  0.00  0.00    -0.271 OA
BRANCH  15  18
HETATM   18  C           1     -21.531  -9.421  -0.886  0.00  0.00     0.189 C 
BRANCH  18  19
HETATM   19  C           1     -21.886 -10.822  -1.319  0.00  0.00     0.197 C 
HETATM   20  O           1     -21.192 -11.789  -0.938  0.00  0.00    -0.646 OA
HETATM   21  O           1     -22.876 -11.015  -2.058  0.00  0.00    -0.646 OA
ENDBRANCH  18  19
BRANCH  18  22
HETATM   22  C           1     -22.104  -9.156   0.500  0.00  0.00     0.010 C 
HETATM   23  C           1     -23.186  -8.088   0.405  0.00  0.00     0.012 C 
HETATM   24  C           1     -20.994  -8.674   1.424  0.00  0.00     0.012 C 
ENDBRANCH  18  22
ENDBRANCH  15  18
ENDBRANCH   1  14
TORSDOF 4
ENDMDL
MODEL 9
REMARK VINA RESULT:      -5.2     18.661     20.467
REMARK  4 active torsions:
REMARK  status: ('A' for Active; 'I' for Inactive)
REMARK    1  A    between atoms: C_1  and  C_2 
REMARK    2  A    between atoms: C_2  and  C_4 
REMARK    3  A    between atoms: C_2  and  N_16 
REMARK    4  A    between atoms: C_6  and  C_7 
REMARK       I    between atoms: C_7  and  N_16 
ROOT
HETATM    1  C           1     -22.024 -12.362  -2.045  0.00  0.00     0.274 C 
HETATM    2  H           1     -21.672 -11.695  -0.091  0.00  0.00     0.255 HD
HETATM    3  H           1     -21.207 -13.313  -0.366  0.00  0.00     0.275 HD
HETATM    4  H           1     -21.640 -13.884  -0.053  0.00  0.00     0.274 HD
HETATM    5  C           1     -23.446 -12.819  -1.750  0.00  0.00     0.062 C 
HETATM    6  C           1     -24.092 -11.865  -0.754  0.00  0.00     0.004 C 
HETATM    7  H           1     -23.171 -14.207  -0.736  0.00  0.00     0.254 HD
HETATM    8  C           1     -23.285 -11.854   0.537  0.00  0.00     0.047 C 
HETATM    9  H           1     -22.594 -15.161   0.555  0.00  0.00     0.274 HD
HETATM   10  C           1     -23.253 -13.257   1.128  0.00  0.00     0.229 C 
HETATM   11  H           1     -20.254 -12.036  -0.975  0.00  0.00     0.275 HD
HETATM   12  N           1     -22.616 -14.198   0.149  0.00  0.00    -0.080 N 
HETATM   13  N           1     -21.229 -12.350  -0.772  0.00  0.00    -0.067 N 
ENDROOT
BRANCH   1  14
HETATM   14  C           1     -22.054 -10.971  -2.630  0.00  0.00     0.249 C 
HETATM   15  N           1     -21.439  -9.939  -1.975  0.00  0.00    -0.344 N 
HETATM   16  H           1     -20.963 -10.108  -1.098  0.00  0.00     0.163 HD
HETATM   17  O           1     -22.622 -10.769  -3.678  0.00  0.00    -0.271 OA
BRANCH  15  18
HETATM   18  C           1     -21.467  -8.602  -2.538  0.00  0.00     0.189 C 
BRANCH  18  19
HETATM   19  C           1     -20.226  -8.381  -3.367  0.00  0.00     0.197 C 
HETATM   20  O           1     -20.300  -7.761  -4.449  0.00  0.00    -0.646 OA
HETATM   21  O           1     -19.124  -8.817  -2.971  0.00  0.00    -0.646 OA
ENDBRANCH  18  19
BRANCH  18  22
HETATM   22  C           1     -21.516  -7.578  -1.412  0.00  0.00     0.010 C 
HETATM   23  C           1     -22.311  -8.148  -0.244  0.00  0.00     0.012 C 
HETATM   24  C           1     -22.190  -6.307  -1.912  0.00  0.00     0.012 C 
ENDBRANCH  18  22
ENDBRANCH  15  18
ENDBRANCH   1  14
TORSDOF 4
ENDMDL
