MODEL 1
REMARK VINA RESULT:      -6.1      0.000      0.000
REMARK  6 active torsions:
REMARK  status: ('A' for Active; 'I' for Inactive)
REMARK    1  A    between atoms: N_4  and  C_6 
REMARK       I    between atoms: N_4  and  C_18 
REMARK    2  A    between atoms: C_6  and  C_7 
REMARK    3  A    between atoms: N_12  and  C_17 
REMARK    4  A    between atoms: C_15  and  C_16 
REMARK    5  A    between atoms: C_16  and  C_17 
REMARK    6  A    between atoms: C_17  and  C_18 
ROOT
HETATM    1  C           1     -34.400  -1.670 -11.988  0.00  0.00     0.284 C 
ENDROOT
BRANCH   1   2
HETATM    2  N           1     -34.896  -1.450 -10.589  0.00  0.00    -0.066 N 
HETATM    3  H           1     -35.283  -0.482 -10.506  0.00  0.00     0.275 HD
HETATM    4  H           1     -34.106  -1.568  -9.916  0.00  0.00     0.275 HD
HETATM    5  H           1     -35.645  -2.145 -10.373  0.00  0.00     0.275 HD
ENDBRANCH   1   2
BRANCH   1   6
HETATM    6  C           1     -34.204  -3.161 -12.227  0.00  0.00     0.155 C 
BRANCH   6   7
HETATM    7  C           1     -34.752  -3.935 -11.054  0.00  0.00     0.175 C 
HETATM    8  O           1     -35.988  -4.015 -10.880  0.00  0.00    -0.648 OA
HETATM    9  O           1     -33.972  -4.497 -10.255  0.00  0.00    -0.648 OA
ENDBRANCH   6   7
ENDBRANCH   1   6
BRANCH   1  10
HETATM   10  C           1     -35.410  -1.129 -12.970  0.00  0.00     0.249 C 
HETATM   11  N           1     -34.989  -0.524 -14.123  0.00  0.00    -0.345 N 
HETATM   12  H           1     -33.999  -0.438 -14.318  0.00  0.00     0.163 HD
HETATM   13  O           1     -36.592  -1.232 -12.738  0.00  0.00    -0.271 OA
BRANCH  11  14
HETATM   14  C           1     -35.960  -0.006 -15.066  0.00  0.00     0.181 C 
HETATM   15  C           1     -35.626   1.444 -15.392  0.00  0.00     0.043 C 
BRANCH  14  16
HETATM   16  C           1     -35.920  -0.828 -16.331  0.00  0.00     0.196 C 
HETATM   17  O           1     -36.874  -0.784 -17.137  0.00  0.00    -0.646 OA
HETATM   18  O           1     -34.931  -1.554 -16.573  0.00  0.00    -0.646 OA
ENDBRANCH  14  16
ENDBRANCH  11  14
ENDBRANCH   1  10
TORSDOF 6
ENDMDL
MODEL 2
REMARK VINA RESULT:      -5.9     11.835     14.017
REMARK  6 active torsions:
REMARK  status: ('A' for Active; 'I' for Inactive)
REMARK    1  A    between atoms: N_4  and  C_6 
REMARK       I    between atoms: N_4  and  C_18 
REMARK    2  A    between atoms: C_6  and  C_7 
REMARK    3  A    between atoms: N_12  and  C_17 
REMARK    4  A    between atoms: C_15  and  C_16 
REMARK    5  A    between atoms: C_16  and  C_17 
REMARK    6  A    between atoms: C_17  and  C_18 
ROOT
HETATM    1  C           1     -23.791  -3.879 -12.458  0.00  0.00     0.284 C 
ENDROOT
BRANCH   1   2
HETATM    2  N           1     -25.005  -3.076 -12.096  0.00  0.00    -0.066 N 
HETATM    3  H           1     -25.831  -3.711 -12.017  0.00  0.00     0.275 HD
HETATM    4  H           1     -25.185  -2.361 -12.837  0.00  0.00     0.275 HD
HETATM    5  H           1     -24.845  -2.597 -11.182  0.00  0.00     0.275 HD
ENDBRANCH   1   2
BRANCH   1   6
HETATM    6  C           1     -22.722  -2.954 -13.024  0.00  0.00     0.155 C 
BRANCH   6   7
HETATM    7  C           1     -23.137  -2.487 -14.398  0.00  0.00     0.175 C 
HETATM    8  O           1     -22.521  -2.890 -15.409  0.00  0.00    -0.648 OA
HETATM    9  O           1     -24.096  -1.697 -14.526  0.00  0.00    -0.648 OA
ENDBRANCH   6   7
ENDBRANCH   1   6
BRANCH   1  10
HETATM   10  C           1     -23.260  -4.570 -11.226  0.00  0.00     0.249 C 
HETATM   11  N           1     -22.212  -4.026 -10.534  0.00  0.00    -0.345 N 
HETATM   12  H           1     -21.791  -3.161 -10.849  0.00  0.00     0.163 HD
HETATM   13  O           1     -23.763  -5.602 -10.849  0.00  0.00    -0.271 OA
BRANCH  11  14
HETATM   14  C           1     -21.703  -4.689  -9.350  0.00  0.00     0.181 C 
HETATM   15  C           1     -20.183  -4.588  -9.326  0.00  0.00     0.043 C 
BRANCH  14  16
HETATM   16  C           1     -22.272  -4.026  -8.120  0.00  0.00     0.196 C 
HETATM   17  O           1     -21.536  -3.331  -7.387  0.00  0.00    -0.646 OA
HETATM   18  O           1     -23.480  -4.172  -7.833  0.00  0.00    -0.646 OA
ENDBRANCH  14  16
ENDBRANCH  11  14
ENDBRANCH   1  10
TORSDOF 6
ENDMDL
MODEL 3
REMARK VINA RESULT:      -5.8     12.965     15.312
REMARK  6 active torsions:
REMARK  status: ('A' for Active; 'I' for Inactive)
REMARK    1  A    between atoms: N_4  and  C_6 
REMARK       I    between atoms: N_4  and  C_18 
REMARK    2  A    between atoms: C_6  and  C_7 
REMARK    3  A    between atoms: N_12  and  C_17 
REMARK    4  A    between atoms: C_15  and  C_16 
REMARK    5  A    between atoms: C_16  and  C_17 
REMARK    6  A    between atoms: C_17  and  C_18 
ROOT
HETATM    1  C           1     -22.008  -3.688 -11.069  0.00  0.00     0.284 C 
ENDROOT
BRANCH   1   2
HETATM    2  N           1     -21.609  -3.734 -12.515  0.00  0.00    -0.066 N 
HETATM    3  H           1     -20.872  -3.015 -12.695  0.00  0.00     0.275 HD
HETATM    4  H           1     -22.442  -3.537 -13.114  0.00  0.00     0.275 HD
HETATM    5  H           1     -21.233  -4.682 -12.742  0.00  0.00     0.275 HD
ENDBRANCH   1   2
BRANCH   1   6
HETATM    6  C           1     -23.358  -4.370 -10.894  0.00  0.00     0.155 C 
BRANCH   6   7
HETATM    7  C           1     -24.462  -3.370 -11.131  0.00  0.00     0.175 C 
HETATM    8  O           1     -25.299  -3.137 -10.232  0.00  0.00    -0.648 OA
HETATM    9  O           1     -24.540  -2.772 -12.226  0.00  0.00    -0.648 OA
ENDBRANCH   6   7
ENDBRANCH   1   6
BRANCH   1  10
HETATM   10  C           1     -20.969  -4.401 -10.239  0.00  0.00     0.249 C 
HETATM   11  N           1     -21.169  -4.580  -8.897  0.00  0.00    -0.345 N 
HETATM   12  H           1     -22.014  -4.232  -8.460  0.00  0.00     0.163 HD
HETATM   13  O           1     -19.961  -4.817 -10.760  0.00  0.00    -0.271 OA
BRANCH  11  14
HETATM   14  C           1     -20.172  -5.266  -8.100  0.00  0.00     0.181 C 
HETATM   15  C           1     -19.158  -4.256  -7.577  0.00  0.00     0.043 C 
BRANCH  14  16
HETATM   16  C           1     -20.846  -5.952  -6.936  0.00  0.00     0.196 C 
HETATM   17  O           1     -20.400  -7.039  -6.509  0.00  0.00    -0.646 OA
HETATM   18  O           1     -21.848  -5.434  -6.400  0.00  0.00    -0.646 OA
ENDBRANCH  14  16
ENDBRANCH  11  14
ENDBRANCH   1  10
TORSDOF 6
ENDMDL
MODEL 4
REMARK VINA RESULT:      -5.8      1.956      2.294
REMARK  6 active torsions:
REMARK  status: ('A' for Active; 'I' for Inactive)
REMARK    1  A    between atoms: N_4  and  C_6 
REMARK       I    between atoms: N_4  and  C_18 
REMARK    2  A    between atoms: C_6  and  C_7 
REMARK    3  A    between atoms: N_12  and  C_17 
REMARK    4  A    between atoms: C_15  and  C_16 
REMARK    5  A    between atoms: C_16  and  C_17 
REMARK    6  A    between atoms: C_17  and  C_18 
ROOT
HETATM    1  C           1     -34.733  -2.488 -10.637  0.00  0.00     0.284 C 
ENDROOT
BRANCH   1   2
HETATM    2  N           1     -35.558  -3.677 -11.031  0.00  0.00    -0.066 N 
HETATM    3  H           1     -34.927  -4.476 -11.266  0.00  0.00     0.275 HD
HETATM    4  H           1     -36.141  -3.438 -11.865  0.00  0.00     0.275 HD
HETATM    5  H           1     -36.181  -3.947 -10.237  0.00  0.00     0.275 HD
ENDBRANCH   1   2
BRANCH   1   6
HETATM    6  C           1     -33.308  -2.669 -11.144  0.00  0.00     0.155 C 
BRANCH   6   7
HETATM    7  C           1     -33.254  -3.851 -12.080  0.00  0.00     0.175 C 
HETATM    8  O           1     -33.638  -3.730 -13.264  0.00  0.00    -0.648 OA
HETATM    9  O           1     -32.826  -4.953 -11.673  0.00  0.00    -0.648 OA
ENDBRANCH   6   7
ENDBRANCH   1   6
BRANCH   1  10
HETATM   10  C           1     -35.329  -1.240 -11.242  0.00  0.00     0.249 C 
HETATM   11  N           1     -35.139  -0.964 -12.568  0.00  0.00    -0.345 N 
HETATM   12  H           1     -34.598  -1.596 -13.145  0.00  0.00     0.163 HD
HETATM   13  O           1     -35.976  -0.486 -10.554  0.00  0.00    -0.271 OA
BRANCH  11  14
HETATM   14  C           1     -35.712   0.234 -13.149  0.00  0.00     0.181 C 
HETATM   15  C           1     -34.615   1.045 -13.824  0.00  0.00     0.043 C 
BRANCH  14  16
HETATM   16  C           1     -36.754  -0.153 -14.171  0.00  0.00     0.196 C 
HETATM   17  O           1     -36.574   0.114 -15.379  0.00  0.00    -0.646 OA
HETATM   18  O           1     -37.796  -0.739 -13.808  0.00  0.00    -0.646 OA
ENDBRANCH  14  16
ENDBRANCH  11  14
ENDBRANCH   1  10
TORSDOF 6
ENDMDL
MODEL 5
REMARK VINA RESULT:      -5.6     12.031     14.473
REMARK  6 active torsions:
REMARK  status: ('A' for Active; 'I' for Inactive)
REMARK    1  A    between atoms: N_4  and  C_6 
REMARK       I    between atoms: N_4  and  C_18 
REMARK    2  A    between atoms: C_6  and  C_7 
REMARK    3  A    between atoms: N_12  and  C_17 
REMARK    4  A    between atoms: C_15  and  C_16 
REMARK    5  A    between atoms: C_16  and  C_17 
REMARK    6  A    between atoms: C_17  and  C_18 
ROOT
HETATM    1  C           1     -23.670  -4.268 -10.698  0.00  0.00     0.284 C 
ENDROOT
BRANCH   1   2
HETATM    2  N           1     -24.860  -4.100  -9.799  0.00  0.00    -0.066 N 
HETATM    3  H           1     -24.586  -3.536  -8.963  0.00  0.00     0.275 HD
HETATM    4  H           1     -25.199  -5.039  -9.490  0.00  0.00     0.275 HD
HETATM    5  H           1     -25.621  -3.608 -10.318  0.00  0.00     0.275 HD
ENDBRANCH   1   2
BRANCH   1   6
HETATM    6  C           1     -23.501  -3.019 -11.553  0.00  0.00     0.155 C 
BRANCH   6   7
HETATM    7  C           1     -24.400  -3.110 -12.761  0.00  0.00     0.175 C 
HETATM    8  O           1     -25.628  -2.909 -12.644  0.00  0.00    -0.648 OA
HETATM    9  O           1     -23.917  -3.388 -13.880  0.00  0.00    -0.648 OA
ENDBRANCH   6   7
ENDBRANCH   1   6
BRANCH   1  10
HETATM   10  C           1     -22.433  -4.477  -9.860  0.00  0.00     0.249 C 
HETATM   11  N           1     -22.546  -4.683  -8.512  0.00  0.00    -0.345 N 
HETATM   12  H           1     -23.459  -4.693  -8.075  0.00  0.00     0.163 HD
HETATM   13  O           1     -21.342  -4.466 -10.380  0.00  0.00    -0.271 OA
BRANCH  11  14
HETATM   14  C           1     -21.358  -4.884  -7.707  0.00  0.00     0.181 C 
HETATM   15  C           1     -20.951  -3.565  -7.063  0.00  0.00     0.043 C 
BRANCH  14  16
HETATM   16  C           1     -21.648  -5.902  -6.630  0.00  0.00     0.196 C 
HETATM   17  O           1     -22.475  -5.642  -5.730  0.00  0.00    -0.646 OA
HETATM   18  O           1     -21.060  -7.005  -6.639  0.00  0.00    -0.646 OA
ENDBRANCH  14  16
ENDBRANCH  11  14
ENDBRANCH   1  10
TORSDOF 6
ENDMDL
MODEL 6
REMARK VINA RESULT:      -5.4     13.030     14.598
REMARK  6 active torsions:
REMARK  status: ('A' for Active; 'I' for Inactive)
REMARK    1  A    between atoms: N_4  and  C_6 
REMARK       I    between atoms: N_4  and  C_18 
REMARK    2  A    between atoms: C_6  and  C_7 
REMARK    3  A    between atoms: N_12  and  C_17 
REMARK    4  A    between atoms: C_15  and  C_16 
REMARK    5  A    between atoms: C_16  and  C_17 
REMARK    6  A    between atoms: C_17  and  C_18 
ROOT
HETATM    1  C           1     -20.431  -3.669  -8.067  0.00  0.00     0.284 C 
ENDROOT
BRANCH   1   2
HETATM    2  N           1     -21.542  -3.401  -7.094  0.00  0.00    -0.066 N 
HETATM    3  H           1     -22.123  -4.263  -6.985  0.00  0.00     0.275 HD
HETATM    4  H           1     -22.139  -2.622  -7.452  0.00  0.00     0.275 HD
HETATM    5  H           1     -21.138  -3.134  -6.169  0.00  0.00     0.275 HD
ENDBRANCH   1   2
BRANCH   1   6
HETATM    6  C           1     -19.524  -4.759  -7.511  0.00  0.00     0.155 C 
BRANCH   6   7
HETATM    7  C           1     -20.310  -5.635  -6.567  0.00  0.00     0.175 C 
HETATM    8  O           1     -20.299  -5.401  -5.339  0.00  0.00    -0.648 OA
HETATM    9  O           1     -20.973  -6.597  -7.013  0.00  0.00    -0.648 OA
ENDBRANCH   6   7
ENDBRANCH   1   6
BRANCH   1  10
HETATM   10  C           1     -21.014  -4.121  -9.383  0.00  0.00     0.249 C 
HETATM   11  N           1     -22.319  -3.841  -9.686  0.00  0.00    -0.345 N 
HETATM   12  H           1     -22.895  -3.332  -9.027  0.00  0.00     0.163 HD
HETATM   13  O           1     -20.328  -4.728 -10.171  0.00  0.00    -0.271 OA
BRANCH  11  14
HETATM   14  C           1     -22.879  -4.274 -10.951  0.00  0.00     0.181 C 
HETATM   15  C           1     -23.835  -5.436 -10.712  0.00  0.00     0.043 C 
BRANCH  14  16
HETATM   16  C           1     -23.628  -3.128 -11.587  0.00  0.00     0.196 C 
HETATM   17  O           1     -24.871  -3.058 -11.480  0.00  0.00    -0.646 OA
HETATM   18  O           1     -23.004  -2.249 -12.220  0.00  0.00    -0.646 OA
ENDBRANCH  14  16
ENDBRANCH  11  14
ENDBRANCH   1  10
TORSDOF 6
ENDMDL
MODEL 7
REMARK VINA RESULT:      -5.4      1.943      2.417
REMARK  6 active torsions:
REMARK  status: ('A' for Active; 'I' for Inactive)
REMARK    1  A    between atoms: N_4  and  C_6 
REMARK       I    between atoms: N_4  and  C_18 
REMARK    2  A    between atoms: C_6  and  C_7 
REMARK    3  A    between atoms: N_12  and  C_17 
REMARK    4  A    between atoms: C_15  and  C_16 
REMARK    5  A    between atoms: C_16  and  C_17 
REMARK    6  A    between atoms: C_17  and  C_18 
ROOT
HETATM    1  C           1     -34.403  -2.675 -11.569  0.00  0.00     0.284 C 
ENDROOT
BRANCH   1   2
HETATM    2  N           1     -35.577  -3.143 -10.760  0.00  0.00    -0.066 N 
HETATM    3  H           1     -35.283  -3.939 -10.149  0.00  0.00     0.275 HD
HETATM    4  H           1     -36.339  -3.460 -11.402  0.00  0.00     0.275 HD
HETATM    5  H           1     -35.926  -2.358 -10.166  0.00  0.00     0.275 HD
ENDBRANCH   1   2
BRANCH   1   6
HETATM    6  C           1     -33.479  -3.852 -11.849  0.00  0.00     0.155 C 
BRANCH   6   7
HETATM    7  C           1     -34.214  -5.143 -11.584  0.00  0.00     0.175 C 
HETATM    8  O           1     -34.000  -5.780 -10.530  0.00  0.00    -0.648 OA
HETATM    9  O           1     -35.038  -5.576 -12.418  0.00  0.00    -0.648 OA
ENDBRANCH   6   7
ENDBRANCH   1   6
BRANCH   1  10
HETATM   10  C           1     -34.892  -2.095 -12.873  0.00  0.00     0.249 C 
HETATM   11  N           1     -35.634  -0.946 -12.877  0.00  0.00    -0.345 N 
HETATM   12  H           1     -35.858  -0.484 -12.003  0.00  0.00     0.163 HD
HETATM   13  O           1     -34.625  -2.644 -13.916  0.00  0.00    -0.271 OA
BRANCH  11  14
HETATM   14  C           1     -36.103  -0.388 -14.129  0.00  0.00     0.181 C 
HETATM   15  C           1     -37.588  -0.068 -14.018  0.00  0.00     0.043 C 
BRANCH  14  16
HETATM   16  C           1     -35.336   0.876 -14.435  0.00  0.00     0.196 C 
HETATM   17  O           1     -34.450   1.274 -13.649  0.00  0.00    -0.646 OA
HETATM   18  O           1     -35.588   1.523 -15.473  0.00  0.00    -0.646 OA
ENDBRANCH  14  16
ENDBRANCH  11  14
ENDBRANCH   1  10
TORSDOF 6
ENDMDL
MODEL 8
REMARK VINA RESULT:      -5.4     12.984     14.709
REMARK  6 active torsions:
REMARK  status: ('A' for Active; 'I' for Inactive)
REMARK    1  A    between atoms: N_4  and  C_6 
REMARK       I    between atoms: N_4  and  C_18 
REMARK    2  A    between atoms: C_6  and  C_7 
REMARK    3  A    between atoms: N_12  and  C_17 
REMARK    4  A    between atoms: C_15  and  C_16 
REMARK    5  A    between atoms: C_16  and  C_17 
REMARK    6  A    between atoms: C_17  and  C_18 
ROOT
HETATM    1  C           1     -21.272  -5.753  -6.988  0.00  0.00     0.284 C 
ENDROOT
BRANCH   1   2
HETATM    2  N           1     -19.920  -6.254  -7.403  0.00  0.00    -0.066 N 
HETATM    3  H           1     -19.933  -6.484  -8.423  0.00  0.00     0.275 HD
HETATM    4  H           1     -19.681  -7.110  -6.856  0.00  0.00     0.275 HD
HETATM    5  H           1     -19.205  -5.514  -7.222  0.00  0.00     0.275 HD
ENDBRANCH   1   2
BRANCH   1   6
HETATM    6  C           1     -21.227  -5.325  -5.527  0.00  0.00     0.155 C 
BRANCH   6   7
HETATM    7  C           1     -21.785  -6.428  -4.662  0.00  0.00     0.175 C 
HETATM    8  O           1     -22.236  -6.165  -3.526  0.00  0.00    -0.648 OA
HETATM    9  O           1     -21.797  -7.606  -5.080  0.00  0.00    -0.648 OA
ENDBRANCH   6   7
ENDBRANCH   1   6
BRANCH   1  10
HETATM   10  C           1     -21.658  -4.575  -7.848  0.00  0.00     0.249 C 
HETATM   11  N           1     -22.238  -4.779  -9.069  0.00  0.00    -0.345 N 
HETATM   12  H           1     -22.409  -5.722  -9.398  0.00  0.00     0.163 HD
HETATM   13  O           1     -21.454  -3.450  -7.456  0.00  0.00    -0.271 OA
BRANCH  11  14
HETATM   14  C           1     -22.609  -3.647  -9.895  0.00  0.00     0.181 C 
HETATM   15  C           1     -21.708  -3.598 -11.122  0.00  0.00     0.043 C 
BRANCH  14  16
HETATM   16  C           1     -24.047  -3.794 -10.331  0.00  0.00     0.196 C 
HETATM   17  O           1     -24.739  -4.739  -9.896  0.00  0.00    -0.646 OA
HETATM   18  O           1     -24.544  -2.969 -11.128  0.00  0.00    -0.646 OA
ENDBRANCH  14  16
ENDBRANCH  11  14
ENDBRANCH   1  10
TORSDOF 6
ENDMDL
MODEL 9
REMARK VINA RESULT:      -5.3     12.799     15.195
REMARK  6 active torsions:
REMARK  status: ('A' for Active; 'I' for Inactive)
REMARK    1  A    between atoms: N_4  and  C_6 
REMARK       I    between atoms: N_4  and  C_18 
REMARK    2  A    between atoms: C_6  and  C_7 
REMARK    3  A    between atoms: N_12  and  C_17 
REMARK    4  A    between atoms: C_15  and  C_16 
REMARK    5  A    between atoms: C_16  and  C_17 
REMARK    6  A    between atoms: C_17  and  C_18 
ROOT
HETATM    1  C           1     -23.727  -4.311  -9.094  0.00  0.00     0.284 C 
ENDROOT
BRANCH   1   2
HETATM    2  N           1     -24.606  -3.099  -8.985  0.00  0.00    -0.066 N 
HETATM    3  H           1     -24.919  -2.985  -7.995  0.00  0.00     0.275 HD
HETATM    4  H           1     -25.441  -3.217  -9.602  0.00  0.00     0.275 HD
HETATM    5  H           1     -24.071  -2.253  -9.282  0.00  0.00     0.275 HD
ENDBRANCH   1   2
BRANCH   1   6
HETATM    6  C           1     -23.340  -4.525 -10.552  0.00  0.00     0.155 C 
BRANCH   6   7
HETATM    7  C           1     -23.734  -3.315 -11.361  0.00  0.00     0.175 C 
HETATM    8  O           1     -22.886  -2.435 -11.625  0.00  0.00    -0.648 OA
HETATM    9  O           1     -24.910  -3.190 -11.767  0.00  0.00    -0.648 OA
ENDBRANCH   6   7
ENDBRANCH   1   6
BRANCH   1  10
HETATM   10  C           1     -22.483  -4.104  -8.266  0.00  0.00     0.249 C 
HETATM   11  N           1     -22.197  -4.956  -7.235  0.00  0.00    -0.345 N 
HETATM   12  H           1     -22.820  -5.726  -7.026  0.00  0.00     0.163 HD
HETATM   13  O           1     -21.738  -3.185  -8.515  0.00  0.00    -0.271 OA
BRANCH  11  14
HETATM   14  C           1     -21.002  -4.757  -6.440  0.00  0.00     0.181 C 
HETATM   15  C           1     -21.142  -5.501  -5.118  0.00  0.00     0.043 C 
BRANCH  14  16
HETATM   16  C           1     -19.805  -5.287  -7.192  0.00  0.00     0.196 C 
HETATM   17  O           1     -18.876  -4.514  -7.513  0.00  0.00    -0.646 OA
HETATM   18  O           1     -19.742  -6.499  -7.492  0.00  0.00    -0.646 OA
ENDBRANCH  14  16
ENDBRANCH  11  14
ENDBRANCH   1  10
TORSDOF 6
ENDMDL
