MODEL 1
REMARK VINA RESULT:      -6.2      0.000      0.000
REMARK  8 active torsions:
REMARK  status: ('A' for Active; 'I' for Inactive)
REMARK    1  A    between atoms: N_2  and  C_17 
REMARK       I    between atoms: N_2  and  C_14 
REMARK       I    between atoms: N_4  and  C_8 
REMARK    2  A    between atoms: C_7  and  C_13 
REMARK    3  A    between atoms: C_8  and  C_21 
REMARK    4  A    between atoms: C_13  and  C_14 
REMARK    5  A    between atoms: C_13  and  N_16 
REMARK    6  A    between atoms: C_17  and  C_22 
REMARK    7  A    between atoms: C_17  and  C_20 
REMARK    8  A    between atoms: C_21  and  C_22 
ROOT
HETATM    1  N           1     -22.522  -4.544  -8.413  0.00  0.00    -0.345 N 
HETATM    2  O           1     -21.580  -2.874  -7.269  0.00  0.00    -0.271 OA
HETATM    3  H           1     -22.730  -5.534  -8.471  0.00  0.00     0.163 HD
HETATM    4  C           1     -21.829  -4.054  -7.339  0.00  0.00     0.249 C 
ENDROOT
BRANCH   1   5
HETATM    5  C           1     -22.958  -3.648  -9.465  0.00  0.00     0.186 C 
BRANCH   5   6
HETATM    6  C           1     -22.288  -4.041 -10.776  0.00  0.00     0.045 C 
BRANCH   6   7
HETATM    7  C           1     -22.262  -2.841 -11.713  0.00  0.00     0.105 C 
BRANCH   7   8
HETATM    8  C           1     -23.339  -2.994 -12.758  0.00  0.00     0.215 C 
HETATM    9  N           1     -23.748  -1.908 -13.485  0.00  0.00    -0.370 N 
HETATM   10  H           1     -23.327  -1.003 -13.321  0.00  0.00     0.159 HD
HETATM   11  H           1     -24.470  -2.011 -14.185  0.00  0.00     0.159 HD
HETATM   12  O           1     -23.841  -4.075 -12.953  0.00  0.00    -0.274 OA
ENDBRANCH   7   8
ENDBRANCH   6   7
ENDBRANCH   5   6
BRANCH   5  13
HETATM   13  C           1     -24.456  -3.742  -9.618  0.00  0.00     0.196 C 
HETATM   14  O           1     -25.160  -2.714  -9.508  0.00  0.00    -0.646 OA
HETATM   15  O           1     -24.994  -4.846  -9.851  0.00  0.00    -0.646 OA
ENDBRANCH   5  13
ENDBRANCH   1   5
BRANCH   4  16
HETATM   16  C           1     -21.375  -4.988  -6.243  0.00  0.00     0.278 C 
BRANCH  16  17
HETATM   17  C           1     -20.358  -5.973  -6.805  0.00  0.00     0.017 C 
HETATM   18  C           1     -19.079  -5.231  -7.169  0.00  0.00     0.012 C 
HETATM   19  C           1     -20.048  -7.034  -5.756  0.00  0.00     0.012 C 
ENDBRANCH  16  17
BRANCH  16  20
HETATM   20  N           1     -22.557  -5.741  -5.709  0.00  0.00    -0.066 N 
HETATM   21  H           1     -22.956  -5.226  -4.892  0.00  0.00     0.275 HD
HETATM   22  H           1     -22.254  -6.694  -5.406  0.00  0.00     0.275 HD
HETATM   23  H           1     -23.282  -5.827  -6.455  0.00  0.00     0.275 HD
ENDBRANCH  16  20
ENDBRANCH   4  16
TORSDOF 8
ENDMDL
MODEL 2
REMARK VINA RESULT:      -6.2     10.314     11.972
REMARK  8 active torsions:
REMARK  status: ('A' for Active; 'I' for Inactive)
REMARK    1  A    between atoms: N_2  and  C_17 
REMARK       I    between atoms: N_2  and  C_14 
REMARK       I    between atoms: N_4  and  C_8 
REMARK    2  A    between atoms: C_7  and  C_13 
REMARK    3  A    between atoms: C_8  and  C_21 
REMARK    4  A    between atoms: C_13  and  C_14 
REMARK    5  A    between atoms: C_13  and  N_16 
REMARK    6  A    between atoms: C_17  and  C_22 
REMARK    7  A    between atoms: C_17  and  C_20 
REMARK    8  A    between atoms: C_21  and  C_22 
ROOT
HETATM    1  N           1     -27.995  -6.917 -18.654  0.00  0.00    -0.345 N 
HETATM    2  O           1     -27.052  -6.107 -16.799  0.00  0.00    -0.271 OA
HETATM    3  H           1     -27.881  -7.208 -19.617  0.00  0.00     0.163 HD
HETATM    4  C           1     -26.917  -6.455 -17.948  0.00  0.00     0.249 C 
ENDROOT
BRANCH   1   5
HETATM    5  C           1     -29.298  -6.990 -18.023  0.00  0.00     0.186 C 
BRANCH   5   6
HETATM    6  C           1     -29.956  -5.617 -18.059  0.00  0.00     0.045 C 
BRANCH   6   7
HETATM    7  C           1     -30.715  -5.383 -16.759  0.00  0.00     0.105 C 
BRANCH   7   8
HETATM    8  C           1     -31.737  -4.293 -16.963  0.00  0.00     0.215 C 
HETATM    9  N           1     -33.014  -4.456 -16.496  0.00  0.00    -0.370 N 
HETATM   10  H           1     -33.272  -5.308 -16.015  0.00  0.00     0.159 HD
HETATM   11  H           1     -33.700  -3.725 -16.633  0.00  0.00     0.159 HD
HETATM   12  O           1     -31.430  -3.276 -17.537  0.00  0.00    -0.274 OA
ENDBRANCH   7   8
ENDBRANCH   6   7
ENDBRANCH   5   6
BRANCH   5  13
HETATM   13  C           1     -30.161  -7.981 -18.764  0.00  0.00     0.196 C 
HETATM   14  O           1     -31.403  -7.842 -18.775  0.00  0.00    -0.646 OA
HETATM   15  O           1     -29.635  -8.943 -19.365  0.00  0.00    -0.646 OA
ENDBRANCH   5  13
ENDBRANCH   1   5
BRANCH   4  16
HETATM   16  C           1     -25.560  -6.379 -18.605  0.00  0.00     0.278 C 
BRANCH  16  17
HETATM   17  C           1     -25.642  -6.968 -20.008  0.00  0.00     0.017 C 
HETATM   18  C           1     -25.665  -5.842 -21.032  0.00  0.00     0.012 C 
HETATM   19  C           1     -24.428  -7.855 -20.256  0.00  0.00     0.012 C 
ENDBRANCH  16  17
BRANCH  16  20
HETATM   20  N           1     -24.569  -7.158 -17.793  0.00  0.00    -0.066 N 
HETATM   21  H           1     -25.078  -7.782 -17.128  0.00  0.00     0.275 HD
HETATM   22  H           1     -23.962  -6.498 -17.257  0.00  0.00     0.275 HD
HETATM   23  H           1     -23.976  -7.737 -18.430  0.00  0.00     0.275 HD
ENDBRANCH  16  20
ENDBRANCH   4  16
TORSDOF 8
ENDMDL
MODEL 3
REMARK VINA RESULT:      -6.1      9.442     11.657
REMARK  8 active torsions:
REMARK  status: ('A' for Active; 'I' for Inactive)
REMARK    1  A    between atoms: N_2  and  C_17 
REMARK       I    between atoms: N_2  and  C_14 
REMARK       I    between atoms: N_4  and  C_8 
REMARK    2  A    between atoms: C_7  and  C_13 
REMARK    3  A    between atoms: C_8  and  C_21 
REMARK    4  A    between atoms: C_13  and  C_14 
REMARK    5  A    between atoms: C_13  and  N_16 
REMARK    6  A    between atoms: C_17  and  C_22 
REMARK    7  A    between atoms: C_17  and  C_20 
REMARK    8  A    between atoms: C_21  and  C_22 
ROOT
HETATM    1  N           1     -27.496  -7.242 -19.184  0.00  0.00    -0.345 N 
HETATM    2  O           1     -28.488  -5.244 -19.073  0.00  0.00    -0.271 OA
HETATM    3  H           1     -27.405  -8.176 -18.805  0.00  0.00     0.163 HD
HETATM    4  C           1     -28.380  -6.360 -18.622  0.00  0.00     0.249 C 
ENDROOT
BRANCH   1   5
HETATM    5  C           1     -26.691  -6.837 -20.319  0.00  0.00     0.186 C 
BRANCH   5   6
HETATM    6  C           1     -25.352  -6.302 -19.827  0.00  0.00     0.045 C 
BRANCH   6   7
HETATM    7  C           1     -24.606  -7.403 -19.086  0.00  0.00     0.105 C 
BRANCH   7   8
HETATM    8  C           1     -24.662  -7.139 -17.602  0.00  0.00     0.215 C 
HETATM    9  N           1     -23.997  -7.962 -16.734  0.00  0.00    -0.370 N 
HETATM   10  H           1     -23.467  -8.748 -17.088  0.00  0.00     0.159 HD
HETATM   11  H           1     -24.035  -7.784 -15.739  0.00  0.00     0.159 HD
HETATM   12  O           1     -25.295  -6.200 -17.180  0.00  0.00    -0.274 OA
ENDBRANCH   7   8
ENDBRANCH   6   7
ENDBRANCH   5   6
BRANCH   5  13
HETATM   13  C           1     -26.458  -8.025 -21.219  0.00  0.00     0.196 C 
HETATM   14  O           1     -27.364  -8.870 -21.385  0.00  0.00    -0.646 OA
HETATM   15  O           1     -25.359  -8.166 -21.799  0.00  0.00    -0.646 OA
ENDBRANCH   5  13
ENDBRANCH   1   5
BRANCH   4  16
HETATM   16  C           1     -29.218  -6.781 -17.440  0.00  0.00     0.278 C 
BRANCH  16  17
HETATM   17  C           1     -28.539  -6.334 -16.151  0.00  0.00     0.017 C 
HETATM   18  C           1     -29.579  -5.746 -15.206  0.00  0.00     0.012 C 
HETATM   19  C           1     -27.871  -7.532 -15.488  0.00  0.00     0.012 C 
ENDBRANCH  16  17
BRANCH  16  20
HETATM   20  N           1     -29.361  -8.274 -17.436  0.00  0.00    -0.066 N 
HETATM   21  H           1     -28.564  -8.698 -16.910  0.00  0.00     0.275 HD
HETATM   22  H           1     -29.356  -8.627 -18.420  0.00  0.00     0.275 HD
HETATM   23  H           1     -30.261  -8.536 -16.976  0.00  0.00     0.275 HD
ENDBRANCH  16  20
ENDBRANCH   4  16
TORSDOF 8
ENDMDL
MODEL 4
REMARK VINA RESULT:      -6.1      1.891      2.429
REMARK  8 active torsions:
REMARK  status: ('A' for Active; 'I' for Inactive)
REMARK    1  A    between atoms: N_2  and  C_17 
REMARK       I    between atoms: N_2  and  C_14 
REMARK       I    between atoms: N_4  and  C_8 
REMARK    2  A    between atoms: C_7  and  C_13 
REMARK    3  A    between atoms: C_8  and  C_21 
REMARK    4  A    between atoms: C_13  and  C_14 
REMARK    5  A    between atoms: C_13  and  N_16 
REMARK    6  A    between atoms: C_17  and  C_22 
REMARK    7  A    between atoms: C_17  and  C_20 
REMARK    8  A    between atoms: C_21  and  C_22 
ROOT
HETATM    1  N           1     -22.644  -4.694  -9.151  0.00  0.00    -0.345 N 
HETATM    2  O           1     -22.024  -3.493  -7.374  0.00  0.00    -0.271 OA
HETATM    3  H           1     -22.627  -5.585  -9.632  0.00  0.00     0.163 HD
HETATM    4  C           1     -22.005  -4.555  -7.949  0.00  0.00     0.249 C 
ENDROOT
BRANCH   1   5
HETATM    5  C           1     -23.344  -3.567  -9.735  0.00  0.00     0.186 C 
BRANCH   5   6
HETATM    6  C           1     -22.863  -3.357 -11.165  0.00  0.00     0.045 C 
BRANCH   6   7
HETATM    7  C           1     -21.899  -4.472 -11.547  0.00  0.00     0.105 C 
BRANCH   7   8
HETATM    8  C           1     -20.488  -4.050 -11.223  0.00  0.00     0.215 C 
HETATM    9  N           1     -20.081  -2.768 -11.476  0.00  0.00    -0.370 N 
HETATM   10  H           1     -20.728  -2.103 -11.880  0.00  0.00     0.159 HD
HETATM   11  H           1     -19.134  -2.485 -11.258  0.00  0.00     0.159 HD
HETATM   12  O           1     -19.715  -4.844 -10.740  0.00  0.00    -0.274 OA
ENDBRANCH   7   8
ENDBRANCH   6   7
ENDBRANCH   5   6
BRANCH   5  13
HETATM   13  C           1     -24.827  -3.842  -9.737  0.00  0.00     0.196 C 
HETATM   14  O           1     -25.244  -5.020  -9.689  0.00  0.00    -0.646 OA
HETATM   15  O           1     -25.640  -2.894  -9.789  0.00  0.00    -0.646 OA
ENDBRANCH   5  13
ENDBRANCH   1   5
BRANCH   4  16
HETATM   16  C           1     -21.276  -5.729  -7.341  0.00  0.00     0.278 C 
BRANCH  16  17
HETATM   17  C           1     -21.291  -5.605  -5.823  0.00  0.00     0.017 C 
HETATM   18  C           1     -21.329  -6.994  -5.199  0.00  0.00     0.012 C 
HETATM   19  C           1     -20.035  -4.876  -5.361  0.00  0.00     0.012 C 
ENDBRANCH  16  17
BRANCH  16  20
HETATM   20  N           1     -19.857  -5.742  -7.827  0.00  0.00    -0.066 N 
HETATM   21  H           1     -19.224  -6.012  -7.041  0.00  0.00     0.275 HD
HETATM   22  H           1     -19.599  -4.789  -8.171  0.00  0.00     0.275 HD
HETATM   23  H           1     -19.762  -6.431  -8.605  0.00  0.00     0.275 HD
ENDBRANCH  16  20
ENDBRANCH   4  16
TORSDOF 8
ENDMDL
MODEL 5
REMARK VINA RESULT:      -6.0      8.747     11.810
REMARK  8 active torsions:
REMARK  status: ('A' for Active; 'I' for Inactive)
REMARK    1  A    between atoms: N_2  and  C_17 
REMARK       I    between atoms: N_2  and  C_14 
REMARK       I    between atoms: N_4  and  C_8 
REMARK    2  A    between atoms: C_7  and  C_13 
REMARK    3  A    between atoms: C_8  and  C_21 
REMARK    4  A    between atoms: C_13  and  C_14 
REMARK    5  A    between atoms: C_13  and  N_16 
REMARK    6  A    between atoms: C_17  and  C_22 
REMARK    7  A    between atoms: C_17  and  C_20 
REMARK    8  A    between atoms: C_21  and  C_22 
ROOT
HETATM    1  N           1     -26.443  -6.640 -18.128  0.00  0.00    -0.345 N 
HETATM    2  O           1     -28.035  -5.374 -19.051  0.00  0.00    -0.271 OA
HETATM    3  H           1     -25.651  -7.255 -18.265  0.00  0.00     0.163 HD
HETATM    4  C           1     -27.089  -6.108 -19.212  0.00  0.00     0.249 C 
ENDROOT
BRANCH   1   5
HETATM    5  C           1     -26.894  -6.322 -16.788  0.00  0.00     0.186 C 
BRANCH   5   6
HETATM    6  C           1     -27.976  -7.310 -16.370  0.00  0.00     0.045 C 
BRANCH   6   7
HETATM    7  C           1     -29.324  -6.602 -16.334  0.00  0.00     0.105 C 
BRANCH   7   8
HETATM    8  C           1     -30.240  -7.210 -17.367  0.00  0.00     0.215 C 
HETATM    9  N           1     -29.754  -8.131 -18.256  0.00  0.00    -0.370 N 
HETATM   10  H           1     -28.780  -8.403 -18.220  0.00  0.00     0.159 HD
HETATM   11  H           1     -30.368  -8.539 -18.949  0.00  0.00     0.159 HD
HETATM   12  O           1     -31.402  -6.885 -17.410  0.00  0.00    -0.274 OA
ENDBRANCH   7   8
ENDBRANCH   6   7
ENDBRANCH   5   6
BRANCH   5  13
HETATM   13  C           1     -25.731  -6.415 -15.831  0.00  0.00     0.196 C 
HETATM   14  O           1     -24.975  -5.432 -15.671  0.00  0.00    -0.646 OA
HETATM   15  O           1     -25.522  -7.474 -15.200  0.00  0.00    -0.646 OA
ENDBRANCH   5  13
ENDBRANCH   1   5
BRANCH   4  16
HETATM   16  C           1     -26.620  -6.439 -20.608  0.00  0.00     0.278 C 
BRANCH  16  17
HETATM   17  C           1     -26.246  -7.914 -20.682  0.00  0.00     0.017 C 
HETATM   18  C           1     -27.412  -8.706 -21.258  0.00  0.00     0.012 C 
HETATM   19  C           1     -25.026  -8.083 -21.579  0.00  0.00     0.012 C 
ENDBRANCH  16  17
BRANCH  16  20
HETATM   20  N           1     -25.420  -5.602 -20.942  0.00  0.00    -0.066 N 
HETATM   21  H           1     -25.731  -4.720 -21.406  0.00  0.00     0.275 HD
HETATM   22  H           1     -24.794  -6.134 -21.588  0.00  0.00     0.275 HD
HETATM   23  H           1     -24.901  -5.372 -20.065  0.00  0.00     0.275 HD
ENDBRANCH  16  20
ENDBRANCH   4  16
TORSDOF 8
ENDMDL
MODEL 6
REMARK VINA RESULT:      -5.9      2.572      6.822
REMARK  8 active torsions:
REMARK  status: ('A' for Active; 'I' for Inactive)
REMARK    1  A    between atoms: N_2  and  C_17 
REMARK       I    between atoms: N_2  and  C_14 
REMARK       I    between atoms: N_4  and  C_8 
REMARK    2  A    between atoms: C_7  and  C_13 
REMARK    3  A    between atoms: C_8  and  C_21 
REMARK    4  A    between atoms: C_13  and  C_14 
REMARK    5  A    between atoms: C_13  and  N_16 
REMARK    6  A    between atoms: C_17  and  C_22 
REMARK    7  A    between atoms: C_17  and  C_20 
REMARK    8  A    between atoms: C_21  and  C_22 
ROOT
HETATM    1  N           1     -22.114  -5.241  -7.566  0.00  0.00    -0.345 N 
HETATM    2  O           1     -21.838  -3.058  -7.945  0.00  0.00    -0.271 OA
HETATM    3  H           1     -22.567  -6.107  -7.832  0.00  0.00     0.163 HD
HETATM    4  C           1     -22.377  -4.091  -8.261  0.00  0.00     0.249 C 
ENDROOT
BRANCH   1   5
HETATM    5  C           1     -21.189  -5.218  -6.451  0.00  0.00     0.186 C 
BRANCH   5   6
HETATM    6  C           1     -21.661  -6.192  -5.379  0.00  0.00     0.045 C 
BRANCH   6   7
HETATM    7  C           1     -21.041  -5.816  -4.041  0.00  0.00     0.105 C 
BRANCH   7   8
HETATM    8  C           1     -21.740  -6.563  -2.933  0.00  0.00     0.215 C 
HETATM    9  N           1     -21.546  -7.911  -2.787  0.00  0.00    -0.370 N 
HETATM   10  H           1     -20.933  -8.405  -3.422  0.00  0.00     0.159 HD
HETATM   11  H           1     -22.016  -8.412  -2.044  0.00  0.00     0.159 HD
HETATM   12  O           1     -22.472  -5.973  -2.175  0.00  0.00    -0.274 OA
ENDBRANCH   7   8
ENDBRANCH   6   7
ENDBRANCH   5   6
BRANCH   5  13
HETATM   13  C           1     -19.816  -5.622  -6.928  0.00  0.00     0.196 C 
HETATM   14  O           1     -19.526  -6.833  -7.044  0.00  0.00    -0.646 OA
HETATM   15  O           1     -18.967  -4.748  -7.208  0.00  0.00    -0.646 OA
ENDBRANCH   5  13
ENDBRANCH   1   5
BRANCH   4  16
HETATM   16  C           1     -23.341  -4.115  -9.423  0.00  0.00     0.278 C 
BRANCH  16  17
HETATM   17  C           1     -22.703  -3.435 -10.627  0.00  0.00     0.017 C 
HETATM   18  C           1     -21.703  -4.381 -11.275  0.00  0.00     0.012 C 
HETATM   19  C           1     -23.785  -3.071 -11.636  0.00  0.00     0.012 C 
ENDBRANCH  16  17
BRANCH  16  20
HETATM   20  N           1     -24.596  -3.386  -9.044  0.00  0.00    -0.066 N 
HETATM   21  H           1     -25.414  -4.029  -9.143  0.00  0.00     0.275 HD
HETATM   22  H           1     -24.723  -2.562  -9.674  0.00  0.00     0.275 HD
HETATM   23  H           1     -24.525  -3.061  -8.054  0.00  0.00     0.275 HD
ENDBRANCH  16  20
ENDBRANCH   4  16
TORSDOF 8
ENDMDL
MODEL 7
REMARK VINA RESULT:      -5.8      3.606      7.466
REMARK  8 active torsions:
REMARK  status: ('A' for Active; 'I' for Inactive)
REMARK    1  A    between atoms: N_2  and  C_17 
REMARK       I    between atoms: N_2  and  C_14 
REMARK       I    between atoms: N_4  and  C_8 
REMARK    2  A    between atoms: C_7  and  C_13 
REMARK    3  A    between atoms: C_8  and  C_21 
REMARK    4  A    between atoms: C_13  and  C_14 
REMARK    5  A    between atoms: C_13  and  N_16 
REMARK    6  A    between atoms: C_17  and  C_22 
REMARK    7  A    between atoms: C_17  and  C_20 
REMARK    8  A    between atoms: C_21  and  C_22 
ROOT
HETATM    1  N           1     -21.578  -6.297  -6.370  0.00  0.00    -0.345 N 
HETATM    2  O           1     -21.069  -4.123  -6.319  0.00  0.00    -0.271 OA
HETATM    3  H           1     -22.017  -7.063  -6.864  0.00  0.00     0.163 HD
HETATM    4  C           1     -21.593  -5.038  -6.908  0.00  0.00     0.249 C 
ENDROOT
BRANCH   1   5
HETATM    5  C           1     -20.933  -6.531  -5.093  0.00  0.00     0.186 C 
BRANCH   5   6
HETATM    6  C           1     -21.993  -6.762  -4.024  0.00  0.00     0.045 C 
BRANCH   6   7
HETATM    7  C           1     -21.578  -6.063  -2.736  0.00  0.00     0.105 C 
BRANCH   7   8
HETATM    8  C           1     -21.779  -6.997  -1.569  0.00  0.00     0.215 C 
HETATM    9  N           1     -20.910  -8.034  -1.364  0.00  0.00    -0.370 N 
HETATM   10  H           1     -20.132  -8.174  -1.995  0.00  0.00     0.159 HD
HETATM   11  H           1     -21.045  -8.660  -0.581  0.00  0.00     0.159 HD
HETATM   12  O           1     -22.708  -6.830  -0.815  0.00  0.00    -0.274 OA
ENDBRANCH   7   8
ENDBRANCH   6   7
ENDBRANCH   5   6
BRANCH   5  13
HETATM   13  C           1     -20.046  -7.747  -5.193  0.00  0.00     0.196 C 
HETATM   14  O           1     -20.033  -8.588  -4.268  0.00  0.00    -0.646 OA
HETATM   15  O           1     -19.323  -7.914  -6.199  0.00  0.00    -0.646 OA
ENDBRANCH   5  13
ENDBRANCH   1   5
BRANCH   4  16
HETATM   16  C           1     -22.265  -4.795  -8.238  0.00  0.00     0.278 C 
BRANCH  16  17
HETATM   17  C           1     -21.352  -3.954  -9.122  0.00  0.00     0.017 C 
HETATM   18  C           1     -20.115  -4.762  -9.490  0.00  0.00     0.012 C 
HETATM   19  C           1     -22.097  -3.561 -10.391  0.00  0.00     0.012 C 
ENDBRANCH  16  17
BRANCH  16  20
HETATM   20  N           1     -23.557  -4.065  -8.018  0.00  0.00    -0.066 N 
HETATM   21  H           1     -23.426  -3.345  -7.273  0.00  0.00     0.275 HD
HETATM   22  H           1     -24.294  -4.744  -7.722  0.00  0.00     0.275 HD
HETATM   23  H           1     -23.848  -3.599  -8.906  0.00  0.00     0.275 HD
ENDBRANCH  16  20
ENDBRANCH   4  16
TORSDOF 8
ENDMDL
MODEL 8
REMARK VINA RESULT:      -5.8      2.702      4.451
REMARK  8 active torsions:
REMARK  status: ('A' for Active; 'I' for Inactive)
REMARK    1  A    between atoms: N_2  and  C_17 
REMARK       I    between atoms: N_2  and  C_14 
REMARK       I    between atoms: N_4  and  C_8 
REMARK    2  A    between atoms: C_7  and  C_13 
REMARK    3  A    between atoms: C_8  and  C_21 
REMARK    4  A    between atoms: C_13  and  C_14 
REMARK    5  A    between atoms: C_13  and  N_16 
REMARK    6  A    between atoms: C_17  and  C_22 
REMARK    7  A    between atoms: C_17  and  C_20 
REMARK    8  A    between atoms: C_21  and  C_22 
ROOT
HETATM    1  N           1     -21.771  -5.895  -5.736  0.00  0.00    -0.345 N 
HETATM    2  O           1     -20.784  -7.862  -6.117  0.00  0.00    -0.271 OA
HETATM    3  H           1     -22.326  -5.321  -5.114  0.00  0.00     0.163 HD
HETATM    4  C           1     -21.447  -7.176  -5.376  0.00  0.00     0.249 C 
ENDROOT
BRANCH   1   5
HETATM    5  C           1     -21.319  -5.363  -7.005  0.00  0.00     0.186 C 
BRANCH   5   6
HETATM    6  C           1     -22.306  -4.311  -7.495  0.00  0.00     0.045 C 
BRANCH   6   7
HETATM    7  C           1     -22.313  -4.290  -9.018  0.00  0.00     0.105 C 
BRANCH   7   8
HETATM    8  C           1     -23.737  -4.276  -9.515  0.00  0.00     0.215 C 
HETATM    9  N           1     -24.604  -3.309  -9.083  0.00  0.00    -0.370 N 
HETATM   10  H           1     -24.289  -2.603  -8.430  0.00  0.00     0.159 HD
HETATM   11  H           1     -25.559  -3.300  -9.416  0.00  0.00     0.159 HD
HETATM   12  O           1     -24.113  -5.119 -10.294  0.00  0.00    -0.274 OA
ENDBRANCH   7   8
ENDBRANCH   6   7
ENDBRANCH   5   6
BRANCH   5  13
HETATM   13  C           1     -19.959  -4.734  -6.831  0.00  0.00     0.196 C 
HETATM   14  O           1     -19.533  -4.473  -5.685  0.00  0.00    -0.646 OA
HETATM   15  O           1     -19.257  -4.471  -7.832  0.00  0.00    -0.646 OA
ENDBRANCH   5  13
ENDBRANCH   1   5
BRANCH   4  16
HETATM   16  C           1     -21.918  -7.730  -4.053  0.00  0.00     0.278 C 
BRANCH  16  17
HETATM   17  C           1     -21.172  -7.040  -2.918  0.00  0.00     0.017 C 
HETATM   18  C           1     -22.151  -6.219  -2.090  0.00  0.00     0.012 C 
HETATM   19  C           1     -20.514  -8.090  -2.032  0.00  0.00     0.012 C 
ENDBRANCH  16  17
BRANCH  16  20
HETATM   20  N           1     -21.646  -9.205  -4.005  0.00  0.00    -0.066 N 
HETATM   21  H           1     -21.979  -9.648  -4.890  0.00  0.00     0.275 HD
HETATM   22  H           1     -22.151  -9.625  -3.193  0.00  0.00     0.275 HD
HETATM   23  H           1     -20.620  -9.366  -3.898  0.00  0.00     0.275 HD
ENDBRANCH  16  20
ENDBRANCH   4  16
TORSDOF 8
ENDMDL
MODEL 9
REMARK VINA RESULT:      -5.7      5.139      7.831
REMARK  8 active torsions:
REMARK  status: ('A' for Active; 'I' for Inactive)
REMARK    1  A    between atoms: N_2  and  C_17 
REMARK       I    between atoms: N_2  and  C_14 
REMARK       I    between atoms: N_4  and  C_8 
REMARK    2  A    between atoms: C_7  and  C_13 
REMARK    3  A    between atoms: C_8  and  C_21 
REMARK    4  A    between atoms: C_13  and  C_14 
REMARK    5  A    between atoms: C_13  and  N_16 
REMARK    6  A    between atoms: C_17  and  C_22 
REMARK    7  A    between atoms: C_17  and  C_20 
REMARK    8  A    between atoms: C_21  and  C_22 
ROOT
HETATM    1  N           1     -20.735  -7.981  -3.244  0.00  0.00    -0.345 N 
HETATM    2  O           1     -21.773  -9.675  -2.226  0.00  0.00    -0.271 OA
HETATM    3  H           1     -20.360  -7.042  -3.180  0.00  0.00     0.163 HD
HETATM    4  C           1     -21.325  -8.556  -2.151  0.00  0.00     0.249 C 
ENDROOT
BRANCH   1   5
HETATM    5  C           1     -20.647  -8.715  -4.490  0.00  0.00     0.186 C 
BRANCH   5   6
HETATM    6  C           1     -21.312  -7.911  -5.600  0.00  0.00     0.045 C 
BRANCH   6   7
HETATM    7  C           1     -21.351  -6.439  -5.210  0.00  0.00     0.105 C 
BRANCH   7   8
HETATM    8  C           1     -20.404  -5.660  -6.088  0.00  0.00     0.215 C 
HETATM    9  N           1     -19.888  -6.235  -7.218  0.00  0.00    -0.370 N 
HETATM   10  H           1     -20.142  -7.183  -7.464  0.00  0.00     0.159 HD
HETATM   11  H           1     -19.252  -5.712  -7.806  0.00  0.00     0.159 HD
HETATM   12  O           1     -20.101  -4.528  -5.794  0.00  0.00    -0.274 OA
ENDBRANCH   7   8
ENDBRANCH   6   7
ENDBRANCH   5   6
BRANCH   5  13
HETATM   13  C           1     -19.197  -8.946  -4.836  0.00  0.00     0.196 C 
HETATM   14  O           1     -18.372  -9.202  -3.932  0.00  0.00    -0.646 OA
HETATM   15  O           1     -18.819  -8.882  -6.026  0.00  0.00    -0.646 OA
ENDBRANCH   5  13
ENDBRANCH   1   5
BRANCH   4  16
HETATM   16  C           1     -21.417  -7.791  -0.852  0.00  0.00     0.278 C 
BRANCH  16  17
HETATM   17  C           1     -21.988  -8.697   0.231  0.00  0.00     0.017 C 
HETATM   18  C           1     -21.039  -8.727   1.421  0.00  0.00     0.012 C 
HETATM   19  C           1     -23.343  -8.162   0.677  0.00  0.00     0.012 C 
ENDBRANCH  16  17
BRANCH  16  20
HETATM   20  N           1     -22.315  -6.604  -1.035  0.00  0.00    -0.066 N 
HETATM   21  H           1     -22.921  -6.494  -0.191  0.00  0.00     0.275 HD
HETATM   22  H           1     -22.915  -6.747  -1.878  0.00  0.00     0.275 HD
HETATM   23  H           1     -21.735  -5.745  -1.162  0.00  0.00     0.275 HD
ENDBRANCH  16  20
ENDBRANCH   4  16
TORSDOF 8
ENDMDL
