MODEL 1
REMARK VINA RESULT:      -5.8      0.000      0.000
REMARK  7 active torsions:
REMARK  status: ('A' for Active; 'I' for Inactive)
REMARK    1  A    between atoms: N_2  and  C_15 
REMARK       I    between atoms: N_2  and  C_3 
REMARK    2  A    between atoms: C_3  and  C_17 
REMARK    3  A    between atoms: N_7  and  C_17 
REMARK    4  A    between atoms: Se_12  and  C_13 
REMARK    5  A    between atoms: C_13  and  C_14 
REMARK    6  A    between atoms: C_14  and  C_15 
REMARK    7  A    between atoms: C_15  and  C_16 
ROOT
HETATM    1  N           1     -23.481  -2.198 -12.926  0.00  0.00    -0.345 N 
HETATM    2  C           1     -23.460  -2.122 -14.292  0.00  0.00     0.243 C 
HETATM    3  O           1     -23.005  -3.034 -14.941  0.00  0.00    -0.272 OA
HETATM    4  H           1     -23.862  -1.434 -12.383  0.00  0.00     0.163 HD
ENDROOT
BRANCH   1   5
HETATM    5  C           1     -22.959  -3.374 -12.257  0.00  0.00     0.185 C 
BRANCH   5   6
HETATM    6  C           1     -21.733  -2.988 -11.439  0.00  0.00     0.036 C 
BRANCH   6   7
HETATM    7  C           1     -20.902  -4.232 -11.152  0.00  0.00     0.003 C 
BRANCH   7   8
HETATM    8 Se           1     -20.198  -4.141  -9.337  0.00  0.00     0.000 Se
HETATM    9  C           1     -21.946  -3.952  -8.494  0.00  0.00     0.000 C 
ENDBRANCH   7   8
ENDBRANCH   6   7
ENDBRANCH   5   6
BRANCH   5  10
HETATM   10  C           1     -24.016  -3.942 -11.342  0.00  0.00     0.196 C 
HETATM   11  O           1     -24.915  -3.201 -10.890  0.00  0.00    -0.646 OA
HETATM   12  O           1     -23.991  -5.154 -11.036  0.00  0.00    -0.646 OA
ENDBRANCH   5  10
ENDBRANCH   1   5
BRANCH   2  13
HETATM   13  C           1     -24.004  -0.899 -14.989  0.00  0.00     0.332 C 
BRANCH  13  14
HETATM   14  N           1     -23.034  -0.448 -16.040  0.00  0.00    -0.071 N 
HETATM   15  H           1     -23.168  -1.020 -16.904  0.00  0.00     0.274 HD
HETATM   16  H           1     -22.058  -0.570 -15.688  0.00  0.00     0.274 HD
HETATM   17  H           1     -23.201   0.559 -16.261  0.00  0.00     0.274 HD
ENDBRANCH  13  14
ENDBRANCH   2  13
TORSDOF 7
ENDMDL
MODEL 2
REMARK VINA RESULT:      -5.5     11.693     12.523
REMARK  7 active torsions:
REMARK  status: ('A' for Active; 'I' for Inactive)
REMARK    1  A    between atoms: N_2  and  C_15 
REMARK       I    between atoms: N_2  and  C_3 
REMARK    2  A    between atoms: C_3  and  C_17 
REMARK    3  A    between atoms: N_7  and  C_17 
REMARK    4  A    between atoms: Se_12  and  C_13 
REMARK    5  A    between atoms: C_13  and  C_14 
REMARK    6  A    between atoms: C_14  and  C_15 
REMARK    7  A    between atoms: C_15  and  C_16 
ROOT
HETATM    1  N           1     -34.699  -0.485 -12.182  0.00  0.00    -0.345 N 
HETATM    2  C           1     -35.167  -0.302 -13.455  0.00  0.00     0.243 C 
HETATM    3  O           1     -35.931  -1.103 -13.939  0.00  0.00    -0.272 OA
HETATM    4  H           1     -34.060   0.187 -11.776  0.00  0.00     0.163 HD
ENDROOT
BRANCH   1   5
HETATM    5  C           1     -35.120  -1.640 -11.414  0.00  0.00     0.185 C 
BRANCH   5   6
HETATM    6  C           1     -33.947  -2.157 -10.591  0.00  0.00     0.036 C 
BRANCH   6   7
HETATM    7  C           1     -33.188  -3.207 -11.392  0.00  0.00     0.003 C 
BRANCH   7   8
HETATM    8 Se           1     -34.454  -4.453 -12.195  0.00  0.00     0.000 Se
HETATM    9  C           1     -34.209  -5.830 -10.838  0.00  0.00     0.000 C 
ENDBRANCH   7   8
ENDBRANCH   6   7
ENDBRANCH   5   6
BRANCH   5  10
HETATM   10  C           1     -36.247  -1.246 -10.491  0.00  0.00     0.196 C 
HETATM   11  O           1     -37.431  -1.495 -10.808  0.00  0.00    -0.646 OA
HETATM   12  O           1     -35.997  -0.670  -9.410  0.00  0.00    -0.646 OA
ENDBRANCH   5  10
ENDBRANCH   1   5
BRANCH   2  13
HETATM   13  C           1     -34.729   0.901 -14.255  0.00  0.00     0.332 C 
BRANCH  13  14
HETATM   14  N           1     -35.857   1.359 -15.130  0.00  0.00    -0.071 N 
HETATM   15  H           1     -35.715   2.363 -15.384  0.00  0.00     0.274 HD
HETATM   16  H           1     -36.761   1.254 -14.615  0.00  0.00     0.274 HD
HETATM   17  H           1     -35.883   0.781 -15.999  0.00  0.00     0.274 HD
ENDBRANCH  13  14
ENDBRANCH   2  13
TORSDOF 7
ENDMDL
MODEL 3
REMARK VINA RESULT:      -5.3      3.667      5.861
REMARK  7 active torsions:
REMARK  status: ('A' for Active; 'I' for Inactive)
REMARK    1  A    between atoms: N_2  and  C_15 
REMARK       I    between atoms: N_2  and  C_3 
REMARK    2  A    between atoms: C_3  and  C_17 
REMARK    3  A    between atoms: N_7  and  C_17 
REMARK    4  A    between atoms: Se_12  and  C_13 
REMARK    5  A    between atoms: C_13  and  C_14 
REMARK    6  A    between atoms: C_14  and  C_15 
REMARK    7  A    between atoms: C_15  and  C_16 
ROOT
HETATM    1  N           1     -22.067  -4.755  -8.807  0.00  0.00    -0.345 N 
HETATM    2  C           1     -21.596  -4.367  -7.582  0.00  0.00     0.243 C 
HETATM    3  O           1     -21.650  -3.205  -7.255  0.00  0.00    -0.272 OA
HETATM    4  H           1     -22.023  -5.728  -9.081  0.00  0.00     0.163 HD
ENDROOT
BRANCH   1   5
HETATM    5  C           1     -22.630  -3.772  -9.712  0.00  0.00     0.185 C 
BRANCH   5   6
HETATM    6  C           1     -22.125  -4.037 -11.125  0.00  0.00     0.036 C 
BRANCH   6   7
HETATM    7  C           1     -22.244  -2.764 -11.953  0.00  0.00     0.003 C 
BRANCH   7   8
HETATM    8 Se           1     -23.802  -2.888 -13.116  0.00  0.00     0.000 Se
HETATM    9  C           1     -22.791  -2.665 -14.767  0.00  0.00     0.000 C 
ENDBRANCH   7   8
ENDBRANCH   6   7
ENDBRANCH   5   6
BRANCH   5  10
HETATM   10  C           1     -24.135  -3.873  -9.689  0.00  0.00     0.196 C 
HETATM   11  O           1     -24.827  -2.855  -9.469  0.00  0.00    -0.646 OA
HETATM   12  O           1     -24.691  -4.975  -9.890  0.00  0.00    -0.646 OA
ENDBRANCH   5  10
ENDBRANCH   1   5
BRANCH   2  13
HETATM   13  C           1     -21.010  -5.390  -6.639  0.00  0.00     0.332 C 
BRANCH  13  14
HETATM   14  N           1     -20.007  -6.229  -7.372  0.00  0.00    -0.071 N 
HETATM   15  H           1     -20.489  -7.048  -7.807  0.00  0.00     0.274 HD
HETATM   16  H           1     -19.281  -6.568  -6.700  0.00  0.00     0.274 HD
HETATM   17  H           1     -19.550  -5.658  -8.117  0.00  0.00     0.274 HD
ENDBRANCH  13  14
ENDBRANCH   2  13
TORSDOF 7
ENDMDL
MODEL 4
REMARK VINA RESULT:      -5.1      1.677      1.906
REMARK  7 active torsions:
REMARK  status: ('A' for Active; 'I' for Inactive)
REMARK    1  A    between atoms: N_2  and  C_15 
REMARK       I    between atoms: N_2  and  C_3 
REMARK    2  A    between atoms: C_3  and  C_17 
REMARK    3  A    between atoms: N_7  and  C_17 
REMARK    4  A    between atoms: Se_12  and  C_13 
REMARK    5  A    between atoms: C_13  and  C_14 
REMARK    6  A    between atoms: C_14  and  C_15 
REMARK    7  A    between atoms: C_15  and  C_16 
ROOT
HETATM    1  N           1     -23.052  -2.967 -11.528  0.00  0.00    -0.345 N 
HETATM    2  C           1     -23.504  -3.294 -12.777  0.00  0.00     0.243 C 
HETATM    3  O           1     -24.001  -4.377 -12.977  0.00  0.00    -0.272 OA
HETATM    4  H           1     -22.637  -2.060 -11.361  0.00  0.00     0.163 HD
ENDROOT
BRANCH   1   5
HETATM    5  C           1     -23.169  -3.922 -10.442  0.00  0.00     0.185 C 
BRANCH   5   6
HETATM    6  C           1     -22.139  -3.596  -9.368  0.00  0.00     0.036 C 
BRANCH   6   7
HETATM    7  C           1     -20.805  -4.232  -9.734  0.00  0.00     0.003 C 
BRANCH   7   8
HETATM    8 Se           1     -19.711  -4.419  -8.132  0.00  0.00     0.000 Se
HETATM    9  C           1     -21.143  -3.937  -6.901  0.00  0.00     0.000 C 
ENDBRANCH   7   8
ENDBRANCH   6   7
ENDBRANCH   5   6
BRANCH   5  10
HETATM   10  C           1     -24.555  -3.843  -9.851  0.00  0.00     0.196 C 
HETATM   11  O           1     -25.055  -2.731  -9.577  0.00  0.00    -0.646 OA
HETATM   12  O           1     -25.202  -4.891  -9.634  0.00  0.00    -0.646 OA
ENDBRANCH   5  10
ENDBRANCH   1   5
BRANCH   2  13
HETATM   13  C           1     -23.384  -2.301 -13.907  0.00  0.00     0.332 C 
BRANCH  13  14
HETATM   14  N           1     -22.480  -2.855 -14.968  0.00  0.00    -0.071 N 
HETATM   15  H           1     -22.787  -3.823 -15.215  0.00  0.00     0.274 HD
HETATM   16  H           1     -21.498  -2.880 -14.609  0.00  0.00     0.274 HD
HETATM   17  H           1     -22.524  -2.248 -15.817  0.00  0.00     0.274 HD
ENDBRANCH  13  14
ENDBRANCH   2  13
TORSDOF 7
ENDMDL
MODEL 5
REMARK VINA RESULT:      -5.0      7.613      8.498
REMARK  7 active torsions:
REMARK  status: ('A' for Active; 'I' for Inactive)
REMARK    1  A    between atoms: N_2  and  C_15 
REMARK       I    between atoms: N_2  and  C_3 
REMARK    2  A    between atoms: C_3  and  C_17 
REMARK    3  A    between atoms: N_7  and  C_17 
REMARK    4  A    between atoms: Se_12  and  C_13 
REMARK    5  A    between atoms: C_13  and  C_14 
REMARK    6  A    between atoms: C_14  and  C_15 
REMARK    7  A    between atoms: C_15  and  C_16 
ROOT
HETATM    1  N           1     -26.323  -6.671 -18.006  0.00  0.00    -0.345 N 
HETATM    2  C           1     -27.016  -6.229 -19.100  0.00  0.00     0.243 C 
HETATM    3  O           1     -27.954  -5.480 -18.960  0.00  0.00    -0.272 OA
HETATM    4  H           1     -25.538  -7.298 -18.123  0.00  0.00     0.163 HD
ENDROOT
BRANCH   1   5
HETATM    5  C           1     -26.715  -6.240 -16.677  0.00  0.00     0.185 C 
BRANCH   5   6
HETATM    6  C           1     -27.882  -7.089 -16.193  0.00  0.00     0.036 C 
BRANCH   6   7
HETATM    7  C           1     -28.905  -6.198 -15.500  0.00  0.00     0.003 C 
BRANCH   7   8
HETATM    8 Se           1     -30.429  -5.917 -16.681  0.00  0.00     0.000 Se
HETATM    9  C           1     -30.195  -7.591 -17.651  0.00  0.00     0.000 C 
ENDBRANCH   7   8
ENDBRANCH   6   7
ENDBRANCH   5   6
BRANCH   5  10
HETATM   10  C           1     -25.548  -6.401 -15.733  0.00  0.00     0.196 C 
HETATM   11  O           1     -25.190  -7.543 -15.372  0.00  0.00    -0.646 OA
HETATM   12  O           1     -24.941  -5.393 -15.312  0.00  0.00    -0.646 OA
ENDBRANCH   5  10
ENDBRANCH   1   5
BRANCH   2  13
HETATM   13  C           1     -26.609  -6.678 -20.482  0.00  0.00     0.332 C 
BRANCH  13  14
HETATM   14  N           1     -27.099  -8.075 -20.721  0.00  0.00    -0.071 N 
HETATM   15  H           1     -27.597  -8.116 -21.639  0.00  0.00     0.274 HD
HETATM   16  H           1     -27.756  -8.348 -19.955  0.00  0.00     0.274 HD
HETATM   17  H           1     -26.288  -8.732 -20.736  0.00  0.00     0.274 HD
ENDBRANCH  13  14
ENDBRANCH   2  13
TORSDOF 7
ENDMDL
MODEL 6
REMARK VINA RESULT:      -4.9     11.885     13.389
REMARK  7 active torsions:
REMARK  status: ('A' for Active; 'I' for Inactive)
REMARK    1  A    between atoms: N_2  and  C_15 
REMARK       I    between atoms: N_2  and  C_3 
REMARK    2  A    between atoms: C_3  and  C_17 
REMARK    3  A    between atoms: N_7  and  C_17 
REMARK    4  A    between atoms: Se_12  and  C_13 
REMARK    5  A    between atoms: C_13  and  C_14 
REMARK    6  A    between atoms: C_14  and  C_15 
REMARK    7  A    between atoms: C_15  and  C_16 
ROOT
HETATM    1  N           1     -34.849  -2.277 -11.909  0.00  0.00    -0.345 N 
HETATM    2  C           1     -33.832  -2.641 -11.069  0.00  0.00     0.243 C 
HETATM    3  O           1     -33.164  -1.793 -10.526  0.00  0.00    -0.272 OA
HETATM    4  H           1     -35.409  -2.987 -12.363  0.00  0.00     0.163 HD
ENDROOT
BRANCH   1   5
HETATM    5  C           1     -35.124  -0.874 -12.149  0.00  0.00     0.185 C 
BRANCH   5   6
HETATM    6  C           1     -35.365  -0.652 -13.636  0.00  0.00     0.036 C 
BRANCH   6   7
HETATM    7  C           1     -34.951   0.765 -14.011  0.00  0.00     0.003 C 
BRANCH   7   8
HETATM    8 Se           1     -35.890   1.312 -15.629  0.00  0.00     0.000 Se
HETATM    9  C           1     -37.476   0.238 -15.266  0.00  0.00     0.000 C 
ENDBRANCH   7   8
ENDBRANCH   6   7
ENDBRANCH   5   6
BRANCH   5  10
HETATM   10  C           1     -36.352  -0.464 -11.373  0.00  0.00     0.196 C 
HETATM   11  O           1     -37.439  -1.051 -11.567  0.00  0.00    -0.646 OA
HETATM   12  O           1     -36.283   0.463 -10.537  0.00  0.00    -0.646 OA
ENDBRANCH   5  10
ENDBRANCH   1   5
BRANCH   2  13
HETATM   13  C           1     -33.545  -4.102 -10.819  0.00  0.00     0.332 C 
BRANCH  13  14
HETATM   14  N           1     -32.751  -4.659 -11.963  0.00  0.00    -0.071 N 
HETATM   15  H           1     -32.569  -5.675 -11.797  0.00  0.00     0.274 HD
HETATM   16  H           1     -31.842  -4.149 -12.036  0.00  0.00     0.274 HD
HETATM   17  H           1     -33.288  -4.542 -12.851  0.00  0.00     0.274 HD
ENDBRANCH  13  14
ENDBRANCH   2  13
TORSDOF 7
ENDMDL
MODEL 7
REMARK VINA RESULT:      -4.7      4.569      7.094
REMARK  7 active torsions:
REMARK  status: ('A' for Active; 'I' for Inactive)
REMARK    1  A    between atoms: N_2  and  C_15 
REMARK       I    between atoms: N_2  and  C_3 
REMARK    2  A    between atoms: C_3  and  C_17 
REMARK    3  A    between atoms: N_7  and  C_17 
REMARK    4  A    between atoms: Se_12  and  C_13 
REMARK    5  A    between atoms: C_13  and  C_14 
REMARK    6  A    between atoms: C_14  and  C_15 
REMARK    7  A    between atoms: C_15  and  C_16 
ROOT
HETATM    1  N           1     -21.492  -4.648  -7.034  0.00  0.00    -0.345 N 
HETATM    2  C           1     -21.210  -5.790  -6.334  0.00  0.00     0.243 C 
HETATM    3  O           1     -21.064  -6.837  -6.919  0.00  0.00    -0.272 OA
HETATM    4  H           1     -21.613  -3.771  -6.544  0.00  0.00     0.163 HD
ENDROOT
BRANCH   1   5
HETATM    5  C           1     -21.617  -4.695  -8.478  0.00  0.00     0.185 C 
BRANCH   5   6
HETATM    6  C           1     -22.659  -3.681  -8.930  0.00  0.00     0.036 C 
BRANCH   6   7
HETATM    7  C           1     -23.819  -4.408  -9.598  0.00  0.00     0.003 C 
BRANCH   7   8
HETATM    8 Se           1     -23.448  -4.616 -11.500  0.00  0.00     0.000 Se
HETATM    9  C           1     -22.708  -2.826 -11.718  0.00  0.00     0.000 C 
ENDBRANCH   7   8
ENDBRANCH   6   7
ENDBRANCH   5   6
BRANCH   5  10
HETATM   10  C           1     -20.286  -4.363  -9.108  0.00  0.00     0.196 C 
HETATM   11  O           1     -19.430  -3.723  -8.460  0.00  0.00    -0.646 OA
HETATM   12  O           1     -20.040  -4.729 -10.278  0.00  0.00    -0.646 OA
ENDBRANCH   5  10
ENDBRANCH   1   5
BRANCH   2  13
HETATM   13  C           1     -21.080  -5.741  -4.831  0.00  0.00     0.332 C 
BRANCH  13  14
HETATM   14  N           1     -22.345  -6.243  -4.202  0.00  0.00    -0.071 N 
HETATM   15  H           1     -22.109  -6.878  -3.406  0.00  0.00     0.274 HD
HETATM   16  H           1     -22.902  -6.768  -4.914  0.00  0.00     0.274 HD
HETATM   17  H           1     -22.905  -5.435  -3.849  0.00  0.00     0.274 HD
ENDBRANCH  13  14
ENDBRANCH   2  13
TORSDOF 7
ENDMDL
MODEL 8
REMARK VINA RESULT:      -4.6     11.046     11.708
REMARK  7 active torsions:
REMARK  status: ('A' for Active; 'I' for Inactive)
REMARK    1  A    between atoms: N_2  and  C_15 
REMARK       I    between atoms: N_2  and  C_3 
REMARK    2  A    between atoms: C_3  and  C_17 
REMARK    3  A    between atoms: N_7  and  C_17 
REMARK    4  A    between atoms: Se_12  and  C_13 
REMARK    5  A    between atoms: C_13  and  C_14 
REMARK    6  A    between atoms: C_14  and  C_15 
REMARK    7  A    between atoms: C_15  and  C_16 
ROOT
HETATM    1  N           1     -33.934  -3.439 -13.775  0.00  0.00    -0.345 N 
HETATM    2  C           1     -34.366  -4.380 -14.670  0.00  0.00     0.243 C 
HETATM    3  O           1     -35.087  -5.277 -14.303  0.00  0.00    -0.272 OA
HETATM    4  H           1     -33.331  -2.687 -14.082  0.00  0.00     0.163 HD
ENDROOT
BRANCH   1   5
HETATM    5  C           1     -34.342  -3.519 -12.385  0.00  0.00     0.185 C 
BRANCH   5   6
HETATM    6  C           1     -33.142  -3.900 -11.527  0.00  0.00     0.036 C 
BRANCH   6   7
HETATM    7  C           1     -33.206  -5.386 -11.196  0.00  0.00     0.003 C 
BRANCH   7   8
HETATM    8 Se           1     -34.996  -5.838 -10.574  0.00  0.00     0.000 Se
HETATM    9  C           1     -34.560  -7.691 -10.157  0.00  0.00     0.000 C 
ENDBRANCH   7   8
ENDBRANCH   6   7
ENDBRANCH   5   6
BRANCH   5  10
HETATM   10  C           1     -34.874  -2.180 -11.940  0.00  0.00     0.196 C 
HETATM   11  O           1     -35.991  -1.786 -12.341  0.00  0.00    -0.646 OA
HETATM   12  O           1     -34.198  -1.463 -11.170  0.00  0.00    -0.646 OA
ENDBRANCH   5  10
ENDBRANCH   1   5
BRANCH   2  13
HETATM   13  C           1     -33.943  -4.296 -16.116  0.00  0.00     0.332 C 
BRANCH  13  14
HETATM   14  N           1     -32.453  -4.443 -16.211  0.00  0.00    -0.071 N 
HETATM   15  H           1     -32.039  -3.557 -16.579  0.00  0.00     0.274 HD
HETATM   16  H           1     -32.223  -5.231 -16.858  0.00  0.00     0.274 HD
HETATM   17  H           1     -32.060  -4.644 -15.265  0.00  0.00     0.274 HD
ENDBRANCH  13  14
ENDBRANCH   2  13
TORSDOF 7
ENDMDL
MODEL 9
REMARK VINA RESULT:      -4.6      8.429      9.326
REMARK  7 active torsions:
REMARK  status: ('A' for Active; 'I' for Inactive)
REMARK    1  A    between atoms: N_2  and  C_15 
REMARK       I    between atoms: N_2  and  C_3 
REMARK    2  A    between atoms: C_3  and  C_17 
REMARK    3  A    between atoms: N_7  and  C_17 
REMARK    4  A    between atoms: Se_12  and  C_13 
REMARK    5  A    between atoms: C_13  and  C_14 
REMARK    6  A    between atoms: C_14  and  C_15 
REMARK    7  A    between atoms: C_15  and  C_16 
ROOT
HETATM    1  N           1     -27.955  -6.883 -17.893  0.00  0.00    -0.345 N 
HETATM    2  C           1     -27.779  -6.156 -19.039  0.00  0.00     0.243 C 
HETATM    3  O           1     -28.478  -5.196 -19.259  0.00  0.00    -0.272 OA
HETATM    4  H           1     -27.370  -7.687 -17.709  0.00  0.00     0.163 HD
ENDROOT
BRANCH   1   5
HETATM    5  C           1     -28.981  -6.500 -16.942  0.00  0.00     0.185 C 
BRANCH   5   6
HETATM    6  C           1     -30.148  -7.474 -17.036  0.00  0.00     0.036 C 
BRANCH   6   7
HETATM    7  C           1     -31.414  -6.714 -17.411  0.00  0.00     0.003 C 
BRANCH   7   8
HETATM    8 Se           1     -31.204  -4.832 -16.952  0.00  0.00     0.000 Se
HETATM    9  C           1     -33.090  -4.552 -16.547  0.00  0.00     0.000 C 
ENDBRANCH   7   8
ENDBRANCH   6   7
ENDBRANCH   5   6
BRANCH   5  10
HETATM   10  C           1     -28.408  -6.533 -15.546  0.00  0.00     0.196 C 
HETATM   11  O           1     -28.480  -5.521 -14.816  0.00  0.00    -0.646 OA
HETATM   12  O           1     -27.861  -7.574 -15.119  0.00  0.00    -0.646 OA
ENDBRANCH   5  10
ENDBRANCH   1   5
BRANCH   2  13
HETATM   13  C           1     -26.712  -6.555 -20.029  0.00  0.00     0.332 C 
BRANCH  13  14
HETATM   14  N           1     -25.470  -6.959 -19.292  0.00  0.00    -0.071 N 
HETATM   15  H           1     -25.617  -7.894 -18.849  0.00  0.00     0.274 HD
HETATM   16  H           1     -25.260  -6.252 -18.551  0.00  0.00     0.274 HD
HETATM   17  H           1     -24.669  -7.012 -19.959  0.00  0.00     0.274 HD
ENDBRANCH  13  14
ENDBRANCH   2  13
TORSDOF 7
ENDMDL
