MODEL 1
REMARK VINA RESULT:      -6.0      0.000      0.000
REMARK  6 active torsions:
REMARK  status: ('A' for Active; 'I' for Inactive)
REMARK    1  A    between atoms: N_5  and  C_6 
REMARK    2  A    between atoms: C_6  and  C_13 
REMARK    3  A    between atoms: C_7  and  C_9 
REMARK    4  A    between atoms: C_9  and  C_17 
REMARK    5  A    between atoms: C_9  and  N_14 
REMARK       I    between atoms: C_13  and  N_14 
REMARK    6  A    between atoms: C_17  and  C_18 
ROOT
HETATM    1  C           1     -36.304  -0.648 -12.485  0.00  0.00     0.191 C 
ENDROOT
BRANCH   1   2
HETATM    2  C           1     -36.978  -0.281 -11.186  0.00  0.00     0.197 C 
HETATM    3  O           1     -36.442   0.544 -10.415  0.00  0.00    -0.646 OA
HETATM    4  O           1     -38.072  -0.802 -10.879  0.00  0.00    -0.646 OA
ENDBRANCH   1   2
BRANCH   1   5
HETATM    5  C           1     -34.793  -0.559 -12.316  0.00  0.00     0.094 C 
BRANCH   5   6
HETATM    6  C           1     -34.238  -1.924 -12.051  0.00  0.00     0.028 A 
HETATM    7  C           1     -33.626  -2.304 -10.880  0.00  0.00     0.114 A 
HETATM    8  N           1     -33.280  -3.613 -11.071  0.00  0.00    -0.360 N 
HETATM    9  C           1     -33.690  -3.967 -12.326  0.00  0.00     0.180 A 
HETATM   10  H           1     -32.790  -4.233 -10.380  0.00  0.00     0.166 HD
HETATM   11  N           1     -34.272  -2.965 -12.941  0.00  0.00    -0.354 N 
ATOM     12  HN          1     -34.667  -2.962 -13.882  1.00  0.00     0.166 HD
ENDBRANCH   5   6
ENDBRANCH   1   5
BRANCH   1  13
HETATM   13  N           1     -36.729   0.269 -13.525  0.00  0.00    -0.345 N 
HETATM   14  C           1     -36.955  -0.193 -14.793  0.00  0.00     0.243 C 
HETATM   15  O           1     -38.056  -0.582 -15.107  0.00  0.00    -0.272 OA
HETATM   16  H           1     -36.858   1.250 -13.313  0.00  0.00     0.163 HD
BRANCH  14  17
HETATM   17  C           1     -35.831  -0.217 -15.799  0.00  0.00     0.332 C 
BRANCH  17  18
HETATM   18  N           1     -36.347  -0.721 -17.114  0.00  0.00    -0.071 N 
HETATM   19  H           1     -36.507  -1.752 -17.055  0.00  0.00     0.274 HD
HETATM   20  H           1     -37.247  -0.242 -17.342  0.00  0.00     0.274 HD
HETATM   21  H           1     -35.646  -0.521 -17.863  0.00  0.00     0.274 HD
ENDBRANCH  17  18
ENDBRANCH  14  17
ENDBRANCH   1  13
TORSDOF 6
ENDMDL
MODEL 2
REMARK VINA RESULT:      -6.0      2.898      4.156
REMARK  6 active torsions:
REMARK  status: ('A' for Active; 'I' for Inactive)
REMARK    1  A    between atoms: N_5  and  C_6 
REMARK    2  A    between atoms: C_6  and  C_13 
REMARK    3  A    between atoms: C_7  and  C_9 
REMARK    4  A    between atoms: C_9  and  C_17 
REMARK    5  A    between atoms: C_9  and  N_14 
REMARK       I    between atoms: C_13  and  N_14 
REMARK    6  A    between atoms: C_17  and  C_18 
ROOT
HETATM    1  C           1     -36.362  -0.292 -11.675  0.00  0.00     0.191 C 
ENDROOT
BRANCH   1   2
HETATM    2  C           1     -35.589  -1.503 -11.213  0.00  0.00     0.197 C 
HETATM    3  O           1     -36.132  -2.628 -11.211  0.00  0.00    -0.646 OA
HETATM    4  O           1     -34.405  -1.380 -10.831  0.00  0.00    -0.646 OA
ENDBRANCH   1   2
BRANCH   1   5
HETATM    5  C           1     -37.629  -0.150 -10.840  0.00  0.00     0.094 C 
BRANCH   5   6
HETATM    6  C           1     -37.294   0.487  -9.528  0.00  0.00     0.028 A 
HETATM    7  C           1     -37.873   1.638  -9.049  0.00  0.00     0.114 A 
HETATM    8  N           1     -37.280   1.854  -7.836  0.00  0.00    -0.360 N 
HETATM    9  C           1     -36.382   0.844  -7.632  0.00  0.00     0.180 A 
HETATM   10  H           1     -37.477   2.650  -7.180  0.00  0.00     0.166 HD
HETATM   11  N           1     -36.370   0.002  -8.639  0.00  0.00    -0.354 N 
ATOM     12  HN          1     -35.795  -0.835  -8.740  1.00  0.00     0.166 HD
ENDBRANCH   5   6
ENDBRANCH   1   5
BRANCH   1  13
HETATM   13  N           1     -36.719  -0.452 -13.071  0.00  0.00    -0.345 N 
HETATM   14  C           1     -35.748  -0.408 -14.034  0.00  0.00     0.243 C 
HETATM   15  O           1     -35.188  -1.424 -14.374  0.00  0.00    -0.272 OA
HETATM   16  H           1     -37.686  -0.595 -13.333  0.00  0.00     0.163 HD
BRANCH  14  17
HETATM   17  C           1     -35.376   0.908 -14.672  0.00  0.00     0.332 C 
BRANCH  17  18
HETATM   18  N           1     -36.393   1.266 -15.713  0.00  0.00    -0.071 N 
HETATM   19  H           1     -36.579   0.436 -16.320  0.00  0.00     0.274 HD
HETATM   20  H           1     -37.280   1.561 -15.246  0.00  0.00     0.274 HD
HETATM   21  H           1     -36.030   2.051 -16.300  0.00  0.00     0.274 HD
ENDBRANCH  17  18
ENDBRANCH  14  17
ENDBRANCH   1  13
TORSDOF 6
ENDMDL
MODEL 3
REMARK VINA RESULT:      -5.9     11.648     13.214
REMARK  6 active torsions:
REMARK  status: ('A' for Active; 'I' for Inactive)
REMARK    1  A    between atoms: N_5  and  C_6 
REMARK    2  A    between atoms: C_6  and  C_13 
REMARK    3  A    between atoms: C_7  and  C_9 
REMARK    4  A    between atoms: C_9  and  C_17 
REMARK    5  A    between atoms: C_9  and  N_14 
REMARK       I    between atoms: C_13  and  N_14 
REMARK    6  A    between atoms: C_17  and  C_18 
ROOT
HETATM    1  C           1     -23.904  -3.667 -11.036  0.00  0.00     0.191 C 
ENDROOT
BRANCH   1   2
HETATM    2  C           1     -24.706  -3.546  -9.763  0.00  0.00     0.197 C 
HETATM    3  O           1     -25.875  -3.107  -9.801  0.00  0.00    -0.646 OA
HETATM    4  O           1     -24.200  -3.882  -8.671  0.00  0.00    -0.646 OA
ENDBRANCH   1   2
BRANCH   1   5
HETATM    5  C           1     -22.645  -2.817 -10.926  0.00  0.00     0.094 C 
BRANCH   5   6
HETATM    6  C           1     -21.505  -3.671 -10.464  0.00  0.00     0.028 A 
HETATM    7  C           1     -20.580  -4.256 -11.296  0.00  0.00     0.114 A 
HETATM    8  N           1     -19.733  -4.933 -10.463  0.00  0.00    -0.360 N 
HETATM    9  C           1     -20.171  -4.735  -9.183  0.00  0.00     0.180 A 
HETATM   10  H           1     -18.900  -5.501 -10.752  0.00  0.00     0.166 HD
HETATM   11  N           1     -21.241  -3.976  -9.154  0.00  0.00    -0.354 N 
ATOM     12  HN          1     -21.764  -3.675  -8.332  1.00  0.00     0.166 HD
ENDBRANCH   5   6
ENDBRANCH   1   5
BRANCH   1  13
HETATM   13  N           1     -24.703  -3.204 -12.155  0.00  0.00    -0.345 N 
HETATM   14  C           1     -24.253  -3.381 -13.435  0.00  0.00     0.243 C 
HETATM   15  O           1     -24.535  -4.388 -14.041  0.00  0.00    -0.272 OA
HETATM   16  H           1     -25.592  -2.751 -11.989  0.00  0.00     0.163 HD
BRANCH  14  17
HETATM   17  C           1     -23.405  -2.319 -14.091  0.00  0.00     0.332 C 
BRANCH  17  18
HETATM   18  N           1     -22.338  -2.971 -14.919  0.00  0.00    -0.071 N 
HETATM   19  H           1     -22.685  -3.890 -15.275  0.00  0.00     0.274 HD
HETATM   20  H           1     -22.100  -2.353 -15.728  0.00  0.00     0.274 HD
HETATM   21  H           1     -21.486  -3.123 -14.334  0.00  0.00     0.274 HD
ENDBRANCH  17  18
ENDBRANCH  14  17
ENDBRANCH   1  13
TORSDOF 6
ENDMDL
MODEL 4
REMARK VINA RESULT:      -5.9     12.151     14.069
REMARK  6 active torsions:
REMARK  status: ('A' for Active; 'I' for Inactive)
REMARK    1  A    between atoms: N_5  and  C_6 
REMARK    2  A    between atoms: C_6  and  C_13 
REMARK    3  A    between atoms: C_7  and  C_9 
REMARK    4  A    between atoms: C_9  and  C_17 
REMARK    5  A    between atoms: C_9  and  N_14 
REMARK       I    between atoms: C_13  and  N_14 
REMARK    6  A    between atoms: C_17  and  C_18 
ROOT
HETATM    1  C           1     -23.536  -4.342  -9.865  0.00  0.00     0.191 C 
ENDROOT
BRANCH   1   2
HETATM    2  C           1     -24.648  -3.400 -10.257  0.00  0.00     0.197 C 
HETATM    3  O           1     -25.286  -2.785  -9.376  0.00  0.00    -0.646 OA
HETATM    4  O           1     -24.931  -3.235 -11.463  0.00  0.00    -0.646 OA
ENDBRANCH   1   2
BRANCH   1   5
HETATM    5  C           1     -22.556  -3.618  -8.952  0.00  0.00     0.094 C 
BRANCH   5   6
HETATM    6  C           1     -22.071  -4.558  -7.893  0.00  0.00     0.028 A 
HETATM    7  C           1     -22.709  -4.782  -6.695  0.00  0.00     0.114 A 
HETATM    8  N           1     -21.931  -5.700  -6.046  0.00  0.00    -0.360 N 
HETATM    9  C           1     -20.872  -5.990  -6.860  0.00  0.00     0.180 A 
HETATM   10  H           1     -22.112  -6.107  -5.096  0.00  0.00     0.166 HD
HETATM   11  N           1     -20.932  -5.314  -7.984  0.00  0.00    -0.354 N 
ATOM     12  HN          1     -20.270  -5.345  -8.760  1.00  0.00     0.166 HD
ENDBRANCH   5   6
ENDBRANCH   1   5
BRANCH   1  13
HETATM   13  N           1     -22.844  -4.794 -11.056  0.00  0.00    -0.345 N 
HETATM   14  C           1     -21.655  -4.219 -11.415  0.00  0.00     0.243 C 
HETATM   15  O           1     -20.614  -4.676 -11.003  0.00  0.00    -0.272 OA
HETATM   16  H           1     -23.239  -5.534 -11.621  0.00  0.00     0.163 HD
BRANCH  14  17
HETATM   17  C           1     -21.642  -3.015 -12.323  0.00  0.00     0.332 C 
BRANCH  17  18
HETATM   18  N           1     -22.475  -3.296 -13.539  0.00  0.00    -0.071 N 
HETATM   19  H           1     -22.620  -4.326 -13.632  0.00  0.00     0.274 HD
HETATM   20  H           1     -23.400  -2.821 -13.444  0.00  0.00     0.274 HD
HETATM   21  H           1     -21.984  -2.936 -14.388  0.00  0.00     0.274 HD
ENDBRANCH  17  18
ENDBRANCH  14  17
ENDBRANCH   1  13
TORSDOF 6
ENDMDL
MODEL 5
REMARK VINA RESULT:      -5.8     11.788     14.175
REMARK  6 active torsions:
REMARK  status: ('A' for Active; 'I' for Inactive)
REMARK    1  A    between atoms: N_5  and  C_6 
REMARK    2  A    between atoms: C_6  and  C_13 
REMARK    3  A    between atoms: C_7  and  C_9 
REMARK    4  A    between atoms: C_9  and  C_17 
REMARK    5  A    between atoms: C_9  and  N_14 
REMARK       I    between atoms: C_13  and  N_14 
REMARK    6  A    between atoms: C_17  and  C_18 
ROOT
HETATM    1  C           1     -23.063  -3.989 -10.202  0.00  0.00     0.191 C 
ENDROOT
BRANCH   1   2
HETATM    2  C           1     -24.492  -3.852  -9.735  0.00  0.00     0.197 C 
HETATM    3  O           1     -24.939  -2.730  -9.411  0.00  0.00    -0.646 OA
HETATM    4  O           1     -25.228  -4.859  -9.671  0.00  0.00    -0.646 OA
ENDBRANCH   1   2
BRANCH   1   5
HETATM    5  C           1     -23.039  -4.646 -11.575  0.00  0.00     0.094 C 
BRANCH   5   6
HETATM    6  C           1     -23.239  -3.604 -12.631  0.00  0.00     0.028 A 
HETATM    7  C           1     -24.336  -2.779 -12.717  0.00  0.00     0.114 A 
HETATM    8  N           1     -24.104  -1.996 -13.813  0.00  0.00    -0.360 N 
HETATM    9  C           1     -22.899  -2.369 -14.338  0.00  0.00     0.180 A 
HETATM   10  H           1     -24.737  -1.245 -14.185  0.00  0.00     0.166 HD
HETATM   11  N           1     -22.353  -3.340 -13.644  0.00  0.00    -0.354 N 
ATOM     12  HN          1     -21.460  -3.800 -13.819  1.00  0.00     0.166 HD
ENDBRANCH   5   6
ENDBRANCH   1   5
BRANCH   1  13
HETATM   13  N           1     -22.325  -4.809  -9.261  0.00  0.00    -0.345 N 
HETATM   14  C           1     -21.496  -4.221  -8.345  0.00  0.00     0.243 C 
HETATM   15  O           1     -21.924  -3.898  -7.262  0.00  0.00    -0.272 OA
HETATM   16  H           1     -22.424  -5.816  -9.281  0.00  0.00     0.163 HD
BRANCH  14  17
HETATM   17  C           1     -20.047  -3.976  -8.686  0.00  0.00     0.332 C 
BRANCH  17  18
HETATM   18  N           1     -19.177  -4.482  -7.574  0.00  0.00    -0.071 N 
HETATM   19  H           1     -18.715  -5.372  -7.869  0.00  0.00     0.274 HD
HETATM   20  H           1     -18.447  -3.769  -7.351  0.00  0.00     0.274 HD
HETATM   21  H           1     -19.763  -4.658  -6.727  0.00  0.00     0.274 HD
ENDBRANCH  17  18
ENDBRANCH  14  17
ENDBRANCH   1  13
TORSDOF 6
ENDMDL
MODEL 6
REMARK VINA RESULT:      -5.7     12.635     14.763
REMARK  6 active torsions:
REMARK  status: ('A' for Active; 'I' for Inactive)
REMARK    1  A    between atoms: N_5  and  C_6 
REMARK    2  A    between atoms: C_6  and  C_13 
REMARK    3  A    between atoms: C_7  and  C_9 
REMARK    4  A    between atoms: C_9  and  C_17 
REMARK    5  A    between atoms: C_9  and  N_14 
REMARK       I    between atoms: C_13  and  N_14 
REMARK    6  A    between atoms: C_17  and  C_18 
ROOT
HETATM    1  C           1     -21.222  -4.590  -9.429  0.00  0.00     0.191 C 
ENDROOT
BRANCH   1   2
HETATM    2  C           1     -20.054  -4.829  -8.504  0.00  0.00     0.197 C 
HETATM    3  O           1     -19.899  -5.949  -7.970  0.00  0.00    -0.646 OA
HETATM    4  O           1     -19.242  -3.909  -8.271  0.00  0.00    -0.646 OA
ENDBRANCH   1   2
BRANCH   1   5
HETATM    5  C           1     -20.723  -3.967 -10.727  0.00  0.00     0.094 C 
BRANCH   5   6
HETATM    6  C           1     -21.892  -3.582 -11.578  0.00  0.00     0.028 A 
HETATM    7  C           1     -22.239  -2.288 -11.890  0.00  0.00     0.114 A 
HETATM    8  N           1     -23.352  -2.400 -12.677  0.00  0.00    -0.360 N 
HETATM    9  C           1     -23.629  -3.732 -12.808  0.00  0.00     0.180 A 
HETATM   10  H           1     -23.894  -1.609 -13.103  0.00  0.00     0.166 HD
HETATM   11  N           1     -22.763  -4.470 -12.154  0.00  0.00    -0.354 N 
ATOM     12  HN          1     -22.742  -5.488 -12.088  1.00  0.00     0.166 HD
ENDBRANCH   5   6
ENDBRANCH   1   5
BRANCH   1  13
HETATM   13  N           1     -22.164  -3.690  -8.793  0.00  0.00    -0.345 N 
HETATM   14  C           1     -23.315  -4.185  -8.240  0.00  0.00     0.243 C 
HETATM   15  O           1     -23.328  -4.532  -7.082  0.00  0.00    -0.272 OA
HETATM   16  H           1     -21.972  -2.698  -8.758  0.00  0.00     0.163 HD
BRANCH  14  17
HETATM   17  C           1     -24.566  -4.297  -9.075  0.00  0.00     0.332 C 
BRANCH  17  18
HETATM   18  N           1     -25.108  -2.927  -9.354  0.00  0.00    -0.071 N 
HETATM   19  H           1     -25.223  -2.407  -8.454  0.00  0.00     0.274 HD
HETATM   20  H           1     -24.443  -2.409  -9.972  0.00  0.00     0.274 HD
HETATM   21  H           1     -26.035  -3.008  -9.829  0.00  0.00     0.274 HD
ENDBRANCH  17  18
ENDBRANCH  14  17
ENDBRANCH   1  13
TORSDOF 6
ENDMDL
MODEL 7
REMARK VINA RESULT:      -5.7      1.786      2.418
REMARK  6 active torsions:
REMARK  status: ('A' for Active; 'I' for Inactive)
REMARK    1  A    between atoms: N_5  and  C_6 
REMARK    2  A    between atoms: C_6  and  C_13 
REMARK    3  A    between atoms: C_7  and  C_9 
REMARK    4  A    between atoms: C_9  and  C_17 
REMARK    5  A    between atoms: C_9  and  N_14 
REMARK       I    between atoms: C_13  and  N_14 
REMARK    6  A    between atoms: C_17  and  C_18 
ROOT
HETATM    1  C           1     -35.104  -2.093 -12.393  0.00  0.00     0.191 C 
ENDROOT
BRANCH   1   2
HETATM    2  C           1     -35.779  -1.738 -11.090  0.00  0.00     0.197 C 
HETATM    3  O           1     -36.881  -2.250 -10.798  0.00  0.00    -0.646 OA
HETATM    4  O           1     -35.236  -0.932 -10.305  0.00  0.00    -0.646 OA
ENDBRANCH   1   2
BRANCH   1   5
HETATM    5  C           1     -33.799  -2.823 -12.106  0.00  0.00     0.094 C 
BRANCH   5   6
HETATM    6  C           1     -34.089  -4.253 -11.769  0.00  0.00     0.028 A 
HETATM    7  C           1     -34.720  -5.140 -12.609  0.00  0.00     0.114 A 
HETATM    8  N           1     -34.774  -6.313 -11.908  0.00  0.00    -0.360 N 
HETATM    9  C           1     -34.186  -6.093 -10.694  0.00  0.00     0.180 A 
HETATM   10  H           1     -35.192  -7.217 -12.240  0.00  0.00     0.166 HD
HETATM   11  N           1     -33.763  -4.856 -10.583  0.00  0.00    -0.354 N 
ATOM     12  HN          1     -33.290  -4.433  -9.783  1.00  0.00     0.166 HD
ENDBRANCH   5   6
ENDBRANCH   1   5
BRANCH   1  13
HETATM   13  N           1     -34.826  -0.881 -13.138  0.00  0.00    -0.345 N 
HETATM   14  C           1     -35.694  -0.461 -14.110  0.00  0.00     0.243 C 
HETATM   15  O           1     -36.604   0.282 -13.827  0.00  0.00    -0.272 OA
HETATM   16  H           1     -33.991  -0.345 -12.940  0.00  0.00     0.163 HD
BRANCH  14  17
HETATM   17  C           1     -35.514  -0.926 -15.534  0.00  0.00     0.332 C 
BRANCH  17  18
HETATM   18  N           1     -36.566  -0.301 -16.401  0.00  0.00    -0.071 N 
HETATM   19  H           1     -37.489  -0.339 -15.913  0.00  0.00     0.274 HD
HETATM   20  H           1     -36.314   0.695 -16.591  0.00  0.00     0.274 HD
HETATM   21  H           1     -36.629  -0.823 -17.304  0.00  0.00     0.274 HD
ENDBRANCH  17  18
ENDBRANCH  14  17
ENDBRANCH   1  13
TORSDOF 6
ENDMDL
MODEL 8
REMARK VINA RESULT:      -5.6     12.113     14.189
REMARK  6 active torsions:
REMARK  status: ('A' for Active; 'I' for Inactive)
REMARK    1  A    between atoms: N_5  and  C_6 
REMARK    2  A    between atoms: C_6  and  C_13 
REMARK    3  A    between atoms: C_7  and  C_9 
REMARK    4  A    between atoms: C_9  and  C_17 
REMARK    5  A    between atoms: C_9  and  N_14 
REMARK       I    between atoms: C_13  and  N_14 
REMARK    6  A    between atoms: C_17  and  C_18 
ROOT
HETATM    1  C           1     -22.367  -4.234 -11.529  0.00  0.00     0.191 C 
ENDROOT
BRANCH   1   2
HETATM    2  C           1     -20.963  -3.933 -11.063  0.00  0.00     0.197 C 
HETATM    3  O           1     -20.334  -4.778 -10.391  0.00  0.00    -0.646 OA
HETATM    4  O           1     -20.431  -2.839 -11.347  0.00  0.00    -0.646 OA
ENDBRANCH   1   2
BRANCH   1   5
HETATM    5  C           1     -23.121  -2.929 -11.744  0.00  0.00     0.094 C 
BRANCH   5   6
HETATM    6  C           1     -23.133  -2.593 -13.203  0.00  0.00     0.028 A 
HETATM    7  C           1     -23.966  -1.665 -13.784  0.00  0.00     0.114 A 
HETATM    8  N           1     -23.641  -1.681 -15.112  0.00  0.00    -0.360 N 
HETATM    9  C           1     -22.644  -2.600 -15.280  0.00  0.00     0.180 A 
HETATM   10  H           1     -24.078  -1.095 -15.865  0.00  0.00     0.166 HD
HETATM   11  N           1     -22.317  -3.167 -14.142  0.00  0.00    -0.354 N 
ATOM     12  HN          1     -21.606  -3.883 -13.989  1.00  0.00     0.166 HD
ENDBRANCH   5   6
ENDBRANCH   1   5
BRANCH   1  13
HETATM   13  N           1     -23.049  -5.027 -10.525  0.00  0.00    -0.345 N 
HETATM   14  C           1     -23.875  -4.418  -9.619  0.00  0.00     0.243 C 
HETATM   15  O           1     -25.049  -4.277  -9.871  0.00  0.00    -0.272 OA
HETATM   16  H           1     -22.916  -6.029 -10.494  0.00  0.00     0.163 HD
BRANCH  14  17
HETATM   17  C           1     -23.321  -3.922  -8.306  0.00  0.00     0.332 C 
BRANCH  17  18
HETATM   18  N           1     -22.157  -4.777  -7.899  0.00  0.00    -0.071 N 
HETATM   19  H           1     -22.389  -5.285  -7.016  0.00  0.00     0.274 HD
HETATM   20  H           1     -21.952  -5.468  -8.655  0.00  0.00     0.274 HD
HETATM   21  H           1     -21.319  -4.173  -7.743  0.00  0.00     0.274 HD
ENDBRANCH  17  18
ENDBRANCH  14  17
ENDBRANCH   1  13
TORSDOF 6
ENDMDL
MODEL 9
REMARK VINA RESULT:      -5.3     12.939     14.854
REMARK  6 active torsions:
REMARK  status: ('A' for Active; 'I' for Inactive)
REMARK    1  A    between atoms: N_5  and  C_6 
REMARK    2  A    between atoms: C_6  and  C_13 
REMARK    3  A    between atoms: C_7  and  C_9 
REMARK    4  A    between atoms: C_9  and  C_17 
REMARK    5  A    between atoms: C_9  and  N_14 
REMARK       I    between atoms: C_13  and  N_14 
REMARK    6  A    between atoms: C_17  and  C_18 
ROOT
HETATM    1  C           1     -21.796  -3.699  -9.427  0.00  0.00     0.191 C 
ENDROOT
BRANCH   1   2
HETATM    2  C           1     -20.876  -3.709 -10.623  0.00  0.00     0.197 C 
HETATM    3  O           1     -20.821  -2.715 -11.378  0.00  0.00    -0.646 OA
HETATM    4  O           1     -20.169  -4.713 -10.860  0.00  0.00    -0.646 OA
ENDBRANCH   1   2
BRANCH   1   5
HETATM    5  C           1     -21.956  -5.118  -8.897  0.00  0.00     0.094 C 
BRANCH   5   6
HETATM    6  C           1     -21.249  -5.244  -7.584  0.00  0.00     0.028 A 
HETATM    7  C           1     -20.882  -4.183  -6.790  0.00  0.00     0.114 A 
HETATM    8  N           1     -20.273  -4.749  -5.704  0.00  0.00    -0.360 N 
HETATM    9  C           1     -20.295  -6.104  -5.880  0.00  0.00     0.180 A 
HETATM   10  H           1     -19.863  -4.236  -4.884  0.00  0.00     0.166 HD
HETATM   11  N           1     -20.879  -6.432  -7.008  0.00  0.00    -0.354 N 
ATOM     12  HN          1     -21.027  -7.371  -7.379  1.00  0.00     0.166 HD
ENDBRANCH   5   6
ENDBRANCH   1   5
BRANCH   1  13
HETATM   13  N           1     -23.092  -3.181  -9.820  0.00  0.00    -0.345 N 
HETATM   14  C           1     -23.950  -3.964 -10.545  0.00  0.00     0.243 C 
HETATM   15  O           1     -24.744  -4.676  -9.977  0.00  0.00    -0.272 OA
HETATM   16  H           1     -23.362  -2.242  -9.559  0.00  0.00     0.163 HD
BRANCH  14  17
HETATM   17  C           1     -23.904  -3.938 -12.053  0.00  0.00     0.332 C 
BRANCH  17  18
HETATM   18  N           1     -23.744  -2.523 -12.525  0.00  0.00    -0.071 N 
HETATM   19  H           1     -24.584  -2.243 -13.079  0.00  0.00     0.274 HD
HETATM   20  H           1     -23.644  -1.890 -11.700  0.00  0.00     0.274 HD
HETATM   21  H           1     -22.891  -2.451 -13.125  0.00  0.00     0.274 HD
ENDBRANCH  17  18
ENDBRANCH  14  17
ENDBRANCH   1  13
TORSDOF 6
ENDMDL
