MODEL 1
REMARK VINA RESULT:      -6.2      0.000      0.000
REMARK  9 active torsions:
REMARK  status: ('A' for Active; 'I' for Inactive)
REMARK    1  A    between atoms: C_1  and  C_19 
REMARK       I    between atoms: C_5  and  N_6 
REMARK    2  A    between atoms: C_5  and  C_7 
REMARK    3  A    between atoms: C_7  and  C_18 
REMARK    4  A    between atoms: N_12  and  C_15 
REMARK    5  A    between atoms: Se_13  and  C_14 
REMARK    6  A    between atoms: C_14  and  C_15 
REMARK    7  A    between atoms: C_15  and  C_16 
REMARK       I    between atoms: C_16  and  N_17 
REMARK    8  A    between atoms: N_17  and  C_19 
REMARK    9  A    between atoms: C_18  and  C_19 
ROOT
HETATM    1  H           1     -35.316  -1.992 -14.102  0.00  0.00     0.163 HD
HETATM    2  O           1     -33.926  -2.134 -11.294  0.00  0.00    -0.271 OA
HETATM    3  C           1     -34.349  -2.531 -12.354  0.00  0.00     0.249 C 
HETATM    4  N           1     -34.962  -1.660 -13.215  0.00  0.00    -0.345 N 
ENDROOT
BRANCH   4   5
HETATM    5  C           1     -35.104  -0.263 -12.855  0.00  0.00     0.186 C 
BRANCH   5   6
HETATM    6  C           1     -36.322  -0.090 -11.983  0.00  0.00     0.196 C 
HETATM    7  O           1     -36.212   0.428 -10.851  0.00  0.00    -0.646 OA
HETATM    8  O           1     -37.443  -0.464 -12.393  0.00  0.00    -0.646 OA
ENDBRANCH   5   6
BRANCH   5   9
HETATM    9  C           1     -35.258   0.574 -14.118  0.00  0.00     0.045 C 
BRANCH   9  10
HETATM   10  C           1     -35.476  -0.345 -15.313  0.00  0.00     0.105 C 
BRANCH  10  11
HETATM   11  C           1     -36.858  -0.120 -15.876  0.00  0.00     0.215 C 
HETATM   12  O           1     -37.200  -0.689 -16.886  0.00  0.00    -0.274 OA
HETATM   13  N           1     -37.724   0.730 -15.242  0.00  0.00    -0.370 N 
HETATM   14  H           1     -37.438   1.206 -14.396  0.00  0.00     0.159 HD
HETATM   15  H           1     -38.652   0.881 -15.619  0.00  0.00     0.159 HD
ENDBRANCH  10  11
ENDBRANCH   9  10
ENDBRANCH   5   9
ENDBRANCH   4   5
BRANCH   3  16
HETATM   16  C           1     -34.201  -3.985 -12.729  0.00  0.00     0.274 C 
BRANCH  16  17
HETATM   17  N           1     -33.694  -4.089 -14.136  0.00  0.00    -0.067 N 
HETATM   18  H           1     -32.951  -3.372 -14.293  0.00  0.00     0.275 HD
HETATM   19  H           1     -33.297  -5.043 -14.293  0.00  0.00     0.275 HD
HETATM   20  H           1     -34.483  -3.927 -14.803  0.00  0.00     0.275 HD
ENDBRANCH  16  17
BRANCH  16  21
HETATM   21  C           1     -33.215  -4.656 -11.783  0.00  0.00     0.045 C 
BRANCH  21  22
HETATM   22 Se           1     -34.140  -6.015 -10.736  0.00  0.00     0.000 Se
HETATM   23  H           1     -32.909  -6.559 -10.140  0.00  0.00     0.000 HD
ENDBRANCH  21  22
ENDBRANCH  16  21
ENDBRANCH   3  16
TORSDOF 9
ENDMDL
MODEL 2
REMARK VINA RESULT:      -6.1     12.376     13.878
REMARK  9 active torsions:
REMARK  status: ('A' for Active; 'I' for Inactive)
REMARK    1  A    between atoms: C_1  and  C_19 
REMARK       I    between atoms: C_5  and  N_6 
REMARK    2  A    between atoms: C_5  and  C_7 
REMARK    3  A    between atoms: C_7  and  C_18 
REMARK    4  A    between atoms: N_12  and  C_15 
REMARK    5  A    between atoms: Se_13  and  C_14 
REMARK    6  A    between atoms: C_14  and  C_15 
REMARK    7  A    between atoms: C_15  and  C_16 
REMARK       I    between atoms: C_16  and  N_17 
REMARK    8  A    between atoms: N_17  and  C_19 
REMARK    9  A    between atoms: C_18  and  C_19 
ROOT
HETATM    1  H           1     -22.102  -5.806  -9.350  0.00  0.00     0.163 HD
HETATM    2  O           1     -21.682  -3.447  -7.325  0.00  0.00    -0.271 OA
HETATM    3  C           1     -21.645  -4.578  -7.748  0.00  0.00     0.249 C 
HETATM    4  N           1     -22.133  -4.859  -8.996  0.00  0.00    -0.345 N 
ENDROOT
BRANCH   4   5
HETATM    5  C           1     -22.694  -3.799  -9.810  0.00  0.00     0.186 C 
BRANCH   5   6
HETATM    6  C           1     -24.200  -3.861  -9.748  0.00  0.00     0.196 C 
HETATM    7  O           1     -24.857  -2.832  -9.476  0.00  0.00    -0.646 OA
HETATM    8  O           1     -24.791  -4.940  -9.967  0.00  0.00    -0.646 OA
ENDBRANCH   5   6
BRANCH   5   9
HETATM    9  C           1     -22.237  -3.971 -11.253  0.00  0.00     0.045 C 
BRANCH   9  10
HETATM   10  C           1     -22.372  -2.646 -11.991  0.00  0.00     0.105 C 
BRANCH  10  11
HETATM   11  C           1     -23.184  -2.849 -13.247  0.00  0.00     0.215 C 
HETATM   12  O           1     -24.391  -2.839 -13.194  0.00  0.00    -0.274 OA
HETATM   13  N           1     -22.552  -3.045 -14.445  0.00  0.00    -0.370 N 
HETATM   14  H           1     -21.541  -3.054 -14.490  0.00  0.00     0.159 HD
HETATM   15  H           1     -23.097  -3.182 -15.288  0.00  0.00     0.159 HD
ENDBRANCH  10  11
ENDBRANCH   9  10
ENDBRANCH   5   9
ENDBRANCH   4   5
BRANCH   3  16
HETATM   16  C           1     -21.061  -5.682  -6.900  0.00  0.00     0.274 C 
BRANCH  16  17
HETATM   17  N           1     -19.809  -6.198  -7.545  0.00  0.00    -0.067 N 
HETATM   18  H           1     -20.060  -6.790  -8.369  0.00  0.00     0.275 HD
HETATM   19  H           1     -19.222  -5.393  -7.860  0.00  0.00     0.275 HD
HETATM   20  H           1     -19.273  -6.771  -6.854  0.00  0.00     0.275 HD
ENDBRANCH  16  17
BRANCH  16  21
HETATM   21  C           1     -20.732  -5.139  -5.516  0.00  0.00     0.045 C 
BRANCH  21  22
HETATM   22 Se           1     -21.435  -6.350  -4.160  0.00  0.00     0.000 Se
HETATM   23  H           1     -20.366  -6.067  -3.187  0.00  0.00     0.000 HD
ENDBRANCH  21  22
ENDBRANCH  16  21
ENDBRANCH   3  16
TORSDOF 9
ENDMDL
MODEL 3
REMARK VINA RESULT:      -5.5      9.058     10.366
REMARK  9 active torsions:
REMARK  status: ('A' for Active; 'I' for Inactive)
REMARK    1  A    between atoms: C_1  and  C_19 
REMARK       I    between atoms: C_5  and  N_6 
REMARK    2  A    between atoms: C_5  and  C_7 
REMARK    3  A    between atoms: C_7  and  C_18 
REMARK    4  A    between atoms: N_12  and  C_15 
REMARK    5  A    between atoms: Se_13  and  C_14 
REMARK    6  A    between atoms: C_14  and  C_15 
REMARK    7  A    between atoms: C_15  and  C_16 
REMARK       I    between atoms: C_16  and  N_17 
REMARK    8  A    between atoms: N_17  and  C_19 
REMARK    9  A    between atoms: C_18  and  C_19 
ROOT
HETATM    1  H           1     -28.120  -7.007 -19.664  0.00  0.00     0.163 HD
HETATM    2  O           1     -26.421  -5.951 -17.248  0.00  0.00    -0.271 OA
HETATM    3  C           1     -26.650  -6.344 -18.367  0.00  0.00     0.249 C 
HETATM    4  N           1     -27.928  -6.678 -18.727  0.00  0.00    -0.345 N 
ENDROOT
BRANCH   4   5
HETATM    5  C           1     -29.007  -6.560 -17.765  0.00  0.00     0.186 C 
BRANCH   5   6
HETATM    6  C           1     -29.763  -7.862 -17.696  0.00  0.00     0.196 C 
HETATM    7  O           1     -29.676  -8.582 -16.677  0.00  0.00    -0.646 OA
HETATM    8  O           1     -30.477  -8.223 -18.656  0.00  0.00    -0.646 OA
ENDBRANCH   5   6
BRANCH   5   9
HETATM    9  C           1     -29.951  -5.444 -18.196  0.00  0.00     0.045 C 
BRANCH   9  10
HETATM   10  C           1     -31.082  -5.317 -17.184  0.00  0.00     0.105 C 
BRANCH  10  11
HETATM   11  C           1     -31.740  -3.967 -17.332  0.00  0.00     0.215 C 
HETATM   12  O           1     -31.080  -3.004 -17.643  0.00  0.00    -0.274 OA
HETATM   13  N           1     -33.085  -3.834 -17.114  0.00  0.00    -0.370 N 
HETATM   14  H           1     -33.638  -4.641 -16.854  0.00  0.00     0.159 HD
HETATM   15  H           1     -33.527  -2.928 -17.213  0.00  0.00     0.159 HD
ENDBRANCH  10  11
ENDBRANCH   9  10
ENDBRANCH   5   9
ENDBRANCH   4   5
BRANCH   3  16
HETATM   16  C           1     -25.528  -6.467 -19.368  0.00  0.00     0.274 C 
BRANCH  16  17
HETATM   17  N           1     -24.419  -7.288 -18.778  0.00  0.00    -0.067 N 
HETATM   18  H           1     -23.842  -6.690 -18.145  0.00  0.00     0.275 HD
HETATM   19  H           1     -24.826  -8.081 -18.232  0.00  0.00     0.275 HD
HETATM   20  H           1     -23.819  -7.665 -19.546  0.00  0.00     0.275 HD
ENDBRANCH  16  17
BRANCH  16  21
HETATM   21  C           1     -26.044  -7.145 -20.630  0.00  0.00     0.045 C 
BRANCH  21  22
HETATM   22 Se           1     -24.538  -7.805 -21.676  0.00  0.00     0.000 Se
HETATM   23  H           1     -24.297  -8.970 -20.808  0.00  0.00     0.000 HD
ENDBRANCH  21  22
ENDBRANCH  16  21
ENDBRANCH   3  16
TORSDOF 9
ENDMDL
MODEL 4
REMARK VINA RESULT:      -5.3      9.996     12.219
REMARK  9 active torsions:
REMARK  status: ('A' for Active; 'I' for Inactive)
REMARK    1  A    between atoms: C_1  and  C_19 
REMARK       I    between atoms: C_5  and  N_6 
REMARK    2  A    between atoms: C_5  and  C_7 
REMARK    3  A    between atoms: C_7  and  C_18 
REMARK    4  A    between atoms: N_12  and  C_15 
REMARK    5  A    between atoms: Se_13  and  C_14 
REMARK    6  A    between atoms: C_14  and  C_15 
REMARK    7  A    between atoms: C_15  and  C_16 
REMARK       I    between atoms: C_16  and  N_17 
REMARK    8  A    between atoms: N_17  and  C_19 
REMARK    9  A    between atoms: C_18  and  C_19 
ROOT
HETATM    1  H           1     -27.797  -8.216 -18.837  0.00  0.00     0.163 HD
HETATM    2  O           1     -28.579  -5.183 -19.005  0.00  0.00    -0.271 OA
HETATM    3  C           1     -28.691  -6.353 -18.725  0.00  0.00     0.249 C 
HETATM    4  N           1     -27.704  -7.237 -19.072  0.00  0.00    -0.345 N 
ENDROOT
BRANCH   4   5
HETATM    5  C           1     -26.526  -6.769 -19.776  0.00  0.00     0.186 C 
BRANCH   5   6
HETATM    6  C           1     -26.220  -7.704 -20.920  0.00  0.00     0.196 C 
HETATM    7  O           1     -25.068  -7.743 -21.404  0.00  0.00    -0.646 OA
HETATM    8  O           1     -27.118  -8.439 -21.384  0.00  0.00    -0.646 OA
ENDBRANCH   5   6
BRANCH   5   9
HETATM    9  C           1     -25.343  -6.732 -18.818  0.00  0.00     0.045 C 
BRANCH   9  10
HETATM   10  C           1     -25.832  -6.383 -17.419  0.00  0.00     0.105 C 
BRANCH  10  11
HETATM   11  C           1     -25.069  -7.195 -16.401  0.00  0.00     0.215 C 
HETATM   12  O           1     -25.410  -7.186 -15.242  0.00  0.00    -0.274 OA
HETATM   13  N           1     -23.989  -7.940 -16.791  0.00  0.00    -0.370 N 
HETATM   14  H           1     -23.703  -7.947 -17.762  0.00  0.00     0.159 HD
HETATM   15  H           1     -23.477  -8.485 -16.109  0.00  0.00     0.159 HD
ENDBRANCH  10  11
ENDBRANCH   9  10
ENDBRANCH   5   9
ENDBRANCH   4   5
BRANCH   3  16
HETATM   16  C           1     -29.916  -6.840 -17.992  0.00  0.00     0.274 C 
BRANCH  16  17
HETATM   17  N           1     -29.754  -8.292 -17.656  0.00  0.00    -0.067 N 
HETATM   18  H           1     -30.426  -8.858 -18.221  0.00  0.00     0.275 HD
HETATM   19  H           1     -28.777  -8.593 -17.873  0.00  0.00     0.275 HD
HETATM   20  H           1     -29.945  -8.437 -16.639  0.00  0.00     0.275 HD
ENDBRANCH  16  17
BRANCH  16  21
HETATM   21  C           1     -30.093  -6.038 -16.710  0.00  0.00     0.045 C 
BRANCH  21  22
HETATM   22 Se           1     -31.593  -4.810 -16.913  0.00  0.00     0.000 Se
HETATM   23  H           1     -30.795  -3.762 -17.572  0.00  0.00     0.000 HD
ENDBRANCH  21  22
ENDBRANCH  16  21
ENDBRANCH   3  16
TORSDOF 9
ENDMDL
MODEL 5
REMARK VINA RESULT:      -5.1      8.584     10.076
REMARK  9 active torsions:
REMARK  status: ('A' for Active; 'I' for Inactive)
REMARK    1  A    between atoms: C_1  and  C_19 
REMARK       I    between atoms: C_5  and  N_6 
REMARK    2  A    between atoms: C_5  and  C_7 
REMARK    3  A    between atoms: C_7  and  C_18 
REMARK    4  A    between atoms: N_12  and  C_15 
REMARK    5  A    between atoms: Se_13  and  C_14 
REMARK    6  A    between atoms: C_14  and  C_15 
REMARK    7  A    between atoms: C_15  and  C_16 
REMARK       I    between atoms: C_16  and  N_17 
REMARK    8  A    between atoms: N_17  and  C_19 
REMARK    9  A    between atoms: C_18  and  C_19 
ROOT
HETATM    1  H           1     -27.286  -6.064 -18.521  0.00  0.00     0.163 HD
HETATM    2  O           1     -27.442  -7.270 -15.630  0.00  0.00    -0.271 OA
HETATM    3  C           1     -26.946  -6.739 -16.594  0.00  0.00     0.249 C 
HETATM    4  N           1     -27.701  -6.509 -17.713  0.00  0.00    -0.345 N 
ENDROOT
BRANCH   4   5
HETATM    5  C           1     -29.096  -6.905 -17.741  0.00  0.00     0.186 C 
BRANCH   5   6
HETATM    6  C           1     -29.330  -7.841 -18.899  0.00  0.00     0.196 C 
HETATM    7  O           1     -30.385  -8.510 -18.960  0.00  0.00    -0.646 OA
HETATM    8  O           1     -28.469  -7.950 -19.800  0.00  0.00    -0.646 OA
ENDBRANCH   5   6
BRANCH   5   9
HETATM    9  C           1     -29.971  -5.668 -17.901  0.00  0.00     0.045 C 
BRANCH   9  10
HETATM   10  C           1     -31.152  -5.754 -16.943  0.00  0.00     0.105 C 
BRANCH  10  11
HETATM   11  C           1     -31.875  -4.429 -16.916  0.00  0.00     0.215 C 
HETATM   12  O           1     -31.358  -3.449 -17.396  0.00  0.00    -0.274 OA
HETATM   13  N           1     -33.117  -4.340 -16.347  0.00  0.00    -0.370 N 
HETATM   14  H           1     -33.550  -5.161 -15.945  0.00  0.00     0.159 HD
HETATM   15  H           1     -33.603  -3.452 -16.329  0.00  0.00     0.159 HD
ENDBRANCH  10  11
ENDBRANCH   9  10
ENDBRANCH   5   9
ENDBRANCH   4   5
BRANCH   3  16
HETATM   16  C           1     -25.495  -6.327 -16.566  0.00  0.00     0.274 C 
BRANCH  16  17
HETATM   17  N           1     -25.060  -6.127 -15.144  0.00  0.00    -0.067 N 
HETATM   18  H           1     -24.168  -6.646 -14.977  0.00  0.00     0.275 HD
HETATM   19  H           1     -24.909  -5.108 -14.967  0.00  0.00     0.275 HD
HETATM   20  H           1     -25.800  -6.488 -14.500  0.00  0.00     0.275 HD
ENDBRANCH  16  17
BRANCH  16  21
HETATM   21  C           1     -24.645  -7.415 -17.209  0.00  0.00     0.045 C 
BRANCH  21  22
HETATM   22 Se           1     -24.420  -7.028 -19.106  0.00  0.00     0.000 Se
HETATM   23  H           1     -25.858  -6.831 -19.354  0.00  0.00     0.000 HD
ENDBRANCH  21  22
ENDBRANCH  16  21
ENDBRANCH   3  16
TORSDOF 9
ENDMDL
MODEL 6
REMARK VINA RESULT:      -5.1     13.358     16.313
REMARK  9 active torsions:
REMARK  status: ('A' for Active; 'I' for Inactive)
REMARK    1  A    between atoms: C_1  and  C_19 
REMARK       I    between atoms: C_5  and  N_6 
REMARK    2  A    between atoms: C_5  and  C_7 
REMARK    3  A    between atoms: C_7  and  C_18 
REMARK    4  A    between atoms: N_12  and  C_15 
REMARK    5  A    between atoms: Se_13  and  C_14 
REMARK    6  A    between atoms: C_14  and  C_15 
REMARK    7  A    between atoms: C_15  and  C_16 
REMARK       I    between atoms: C_16  and  N_17 
REMARK    8  A    between atoms: N_17  and  C_19 
REMARK    9  A    between atoms: C_18  and  C_19 
ROOT
HETATM    1  H           1     -22.693  -5.744  -6.944  0.00  0.00     0.163 HD
HETATM    2  O           1     -21.746  -3.190  -8.500  0.00  0.00    -0.271 OA
HETATM    3  C           1     -22.449  -4.132  -8.218  0.00  0.00     0.249 C 
HETATM    4  N           1     -22.105  -4.956  -7.180  0.00  0.00    -0.345 N 
ENDROOT
BRANCH   4   5
HETATM    5  C           1     -20.897  -4.699  -6.420  0.00  0.00     0.186 C 
BRANCH   5   6
HETATM    6  C           1     -19.703  -5.214  -7.184  0.00  0.00     0.196 C 
HETATM    7  O           1     -19.709  -6.377  -7.643  0.00  0.00    -0.646 OA
HETATM    8  O           1     -18.708  -4.478  -7.359  0.00  0.00    -0.646 OA
ENDBRANCH   5   6
BRANCH   5   9
HETATM    9  C           1     -20.985  -5.408  -5.074  0.00  0.00     0.045 C 
BRANCH   9  10
HETATM   10  C           1     -22.149  -6.389  -5.091  0.00  0.00     0.105 C 
BRANCH  10  11
HETATM   11  C           1     -21.626  -7.794  -4.913  0.00  0.00     0.215 C 
HETATM   12  O           1     -21.718  -8.342  -3.841  0.00  0.00    -0.274 OA
HETATM   13  N           1     -21.048  -8.446  -5.969  0.00  0.00    -0.370 N 
HETATM   14  H           1     -20.971  -7.987  -6.867  0.00  0.00     0.159 HD
HETATM   15  H           1     -20.698  -9.388  -5.850  0.00  0.00     0.159 HD
ENDBRANCH  10  11
ENDBRANCH   9  10
ENDBRANCH   5   9
ENDBRANCH   4   5
BRANCH   3  16
HETATM   16  C           1     -23.706  -4.399  -9.009  0.00  0.00     0.274 C 
BRANCH  16  17
HETATM   17  N           1     -24.591  -3.189  -8.965  0.00  0.00    -0.067 N 
HETATM   18  H           1     -25.467  -3.417  -8.444  0.00  0.00     0.275 HD
HETATM   19  H           1     -24.090  -2.409  -8.481  0.00  0.00     0.275 HD
HETATM   20  H           1     -24.830  -2.898  -9.940  0.00  0.00     0.275 HD
ENDBRANCH  16  17
BRANCH  16  21
HETATM   21  C           1     -23.340  -4.708 -10.455  0.00  0.00     0.045 C 
BRANCH  21  22
HETATM   22 Se           1     -23.822  -3.195 -11.585  0.00  0.00     0.000 Se
HETATM   23  H           1     -23.346  -3.823 -12.828  0.00  0.00     0.000 HD
ENDBRANCH  21  22
ENDBRANCH  16  21
ENDBRANCH   3  16
TORSDOF 9
ENDMDL
MODEL 7
REMARK VINA RESULT:      -5.0     25.769     26.599
REMARK  9 active torsions:
REMARK  status: ('A' for Active; 'I' for Inactive)
REMARK    1  A    between atoms: C_1  and  C_19 
REMARK       I    between atoms: C_5  and  N_6 
REMARK    2  A    between atoms: C_5  and  C_7 
REMARK    3  A    between atoms: C_7  and  C_18 
REMARK    4  A    between atoms: N_12  and  C_15 
REMARK    5  A    between atoms: Se_13  and  C_14 
REMARK    6  A    between atoms: C_14  and  C_15 
REMARK    7  A    between atoms: C_15  and  C_16 
REMARK       I    between atoms: C_16  and  N_17 
REMARK    8  A    between atoms: N_17  and  C_19 
REMARK    9  A    between atoms: C_18  and  C_19 
ROOT
HETATM    1  H           1     -11.838   5.827 -21.740  0.00  0.00     0.163 HD
HETATM    2  O           1     -10.911   2.861 -21.313  0.00  0.00    -0.271 OA
HETATM    3  C           1     -11.594   3.772 -21.716  0.00  0.00     0.249 C 
HETATM    4  N           1     -11.267   5.064 -21.402  0.00  0.00    -0.345 N 
ENDROOT
BRANCH   4   5
HETATM    5  C           1     -10.101   5.338 -20.584  0.00  0.00     0.186 C 
BRANCH   5   6
HETATM    6  C           1     -10.517   5.449 -19.138  0.00  0.00     0.196 C 
HETATM    7  O           1     -11.713   5.278 -18.817  0.00  0.00    -0.646 OA
HETATM    8  O           1      -9.666   5.713 -18.261  0.00  0.00    -0.646 OA
ENDBRANCH   5   6
BRANCH   5   9
HETATM    9  C           1      -9.463   6.647 -21.032  0.00  0.00     0.045 C 
BRANCH   9  10
HETATM   10  C           1     -10.500   7.762 -20.983  0.00  0.00     0.105 C 
BRANCH  10  11
HETATM   11  C           1      -9.969   8.907 -20.155  0.00  0.00     0.215 C 
HETATM   12  O           1      -9.363   9.806 -20.687  0.00  0.00    -0.274 OA
HETATM   13  N           1     -10.175   8.925 -18.802  0.00  0.00    -0.370 N 
HETATM   14  H           1     -10.683   8.172 -18.357  0.00  0.00     0.159 HD
HETATM   15  H           1      -9.819   9.694 -18.247  0.00  0.00     0.159 HD
ENDBRANCH  10  11
ENDBRANCH   9  10
ENDBRANCH   5   9
ENDBRANCH   4   5
BRANCH   3  16
HETATM   16  C           1     -12.806   3.487 -22.568  0.00  0.00     0.274 C 
BRANCH  16  17
HETATM   17  N           1     -13.739   2.580 -21.821  0.00  0.00    -0.067 N 
HETATM   18  H           1     -14.711   2.707 -22.181  0.00  0.00     0.275 HD
HETATM   19  H           1     -13.443   1.587 -21.958  0.00  0.00     0.275 HD
HETATM   20  H           1     -13.711   2.814 -20.803  0.00  0.00     0.275 HD
ENDBRANCH  16  17
BRANCH  16  21
HETATM   21  C           1     -13.519   4.793 -22.892  0.00  0.00     0.045 C 
BRANCH  21  22
HETATM   22 Se           1     -15.075   4.988 -21.734  0.00  0.00     0.000 Se
HETATM   23  H           1     -16.038   5.057 -22.846  0.00  0.00     0.000 HD
ENDBRANCH  21  22
ENDBRANCH  16  21
ENDBRANCH   3  16
TORSDOF 9
ENDMDL
MODEL 8
REMARK VINA RESULT:      -5.0     13.262     15.588
REMARK  9 active torsions:
REMARK  status: ('A' for Active; 'I' for Inactive)
REMARK    1  A    between atoms: C_1  and  C_19 
REMARK       I    between atoms: C_5  and  N_6 
REMARK    2  A    between atoms: C_5  and  C_7 
REMARK    3  A    between atoms: C_7  and  C_18 
REMARK    4  A    between atoms: N_12  and  C_15 
REMARK    5  A    between atoms: Se_13  and  C_14 
REMARK    6  A    between atoms: C_14  and  C_15 
REMARK    7  A    between atoms: C_15  and  C_16 
REMARK       I    between atoms: C_16  and  N_17 
REMARK    8  A    between atoms: N_17  and  C_19 
REMARK    9  A    between atoms: C_18  and  C_19 
ROOT
HETATM    1  H           1     -21.374  -4.175  -6.113  0.00  0.00     0.163 HD
HETATM    2  O           1     -21.188  -7.232  -6.788  0.00  0.00    -0.271 OA
HETATM    3  C           1     -21.200  -6.237  -6.104  0.00  0.00     0.249 C 
HETATM    4  N           1     -21.363  -5.009  -6.686  0.00  0.00    -0.345 N 
ENDROOT
BRANCH   4   5
HETATM    5  C           1     -21.521  -4.902  -8.124  0.00  0.00     0.186 C 
BRANCH   5   6
HETATM    6  C           1     -20.193  -4.560  -8.751  0.00  0.00     0.196 C 
HETATM    7  O           1     -19.268  -4.102  -8.045  0.00  0.00    -0.646 OA
HETATM    8  O           1     -20.016  -4.734  -9.976  0.00  0.00    -0.646 OA
ENDBRANCH   5   6
BRANCH   5   9
HETATM    9  C           1     -22.532  -3.809  -8.444  0.00  0.00     0.045 C 
BRANCH   9  10
HETATM   10  C           1     -23.658  -4.389  -9.289  0.00  0.00     0.105 C 
BRANCH  10  11
HETATM   11  C           1     -23.600  -3.801 -10.678  0.00  0.00     0.215 C 
HETATM   12  O           1     -24.425  -2.990 -11.025  0.00  0.00    -0.274 OA
HETATM   13  N           1     -22.613  -4.187 -11.543  0.00  0.00    -0.370 N 
HETATM   14  H           1     -21.921  -4.866 -11.252  0.00  0.00     0.159 HD
HETATM   15  H           1     -22.573  -3.793 -12.475  0.00  0.00     0.159 HD
ENDBRANCH  10  11
ENDBRANCH   9  10
ENDBRANCH   5   9
ENDBRANCH   4   5
BRANCH   3  16
HETATM   16  C           1     -21.036  -6.347  -4.608  0.00  0.00     0.274 C 
BRANCH  16  17
HETATM   17  N           1     -22.362  -6.129  -3.942  0.00  0.00    -0.067 N 
HETATM   18  H           1     -22.640  -5.127  -4.039  0.00  0.00     0.275 HD
HETATM   19  H           1     -23.083  -6.736  -4.395  0.00  0.00     0.275 HD
HETATM   20  H           1     -22.287  -6.375  -2.929  0.00  0.00     0.275 HD
ENDBRANCH  16  17
BRANCH  16  21
HETATM   21  C           1     -20.513  -7.733  -4.255  0.00  0.00     0.045 C 
BRANCH  21  22
HETATM   22 Se           1     -20.797  -8.071  -2.357  0.00  0.00     0.000 Se
HETATM   23  H           1     -19.741  -7.145  -1.915  0.00  0.00     0.000 HD
ENDBRANCH  21  22
ENDBRANCH  16  21
ENDBRANCH   3  16
TORSDOF 9
ENDMDL
MODEL 9
REMARK VINA RESULT:      -5.0     15.714     17.873
REMARK  9 active torsions:
REMARK  status: ('A' for Active; 'I' for Inactive)
REMARK    1  A    between atoms: C_1  and  C_19 
REMARK       I    between atoms: C_5  and  N_6 
REMARK    2  A    between atoms: C_5  and  C_7 
REMARK    3  A    between atoms: C_7  and  C_18 
REMARK    4  A    between atoms: N_12  and  C_15 
REMARK    5  A    between atoms: Se_13  and  C_14 
REMARK    6  A    between atoms: C_14  and  C_15 
REMARK    7  A    between atoms: C_15  and  C_16 
REMARK       I    between atoms: C_16  and  N_17 
REMARK    8  A    between atoms: N_17  and  C_19 
REMARK    9  A    between atoms: C_18  and  C_19 
ROOT
HETATM    1  H           1     -21.696  -7.083  -6.991  0.00  0.00     0.163 HD
HETATM    2  O           1     -20.442  -4.345  -6.114  0.00  0.00    -0.271 OA
HETATM    3  C           1     -20.999  -5.141  -6.831  0.00  0.00     0.249 C 
HETATM    4  N           1     -21.229  -6.416  -6.390  0.00  0.00    -0.345 N 
ENDROOT
BRANCH   4   5
HETATM    5  C           1     -20.804  -6.812  -5.061  0.00  0.00     0.186 C 
BRANCH   5   6
HETATM    6  C           1     -20.311  -8.237  -5.095  0.00  0.00     0.196 C 
HETATM    7  O           1     -19.263  -8.521  -5.713  0.00  0.00    -0.646 OA
HETATM    8  O           1     -20.951  -9.134  -4.504  0.00  0.00    -0.646 OA
ENDBRANCH   5   6
BRANCH   5   9
HETATM    9  C           1     -21.979  -6.702  -4.098  0.00  0.00     0.045 C 
BRANCH   9  10
HETATM   10  C           1     -21.499  -6.124  -2.773  0.00  0.00     0.105 C 
BRANCH  10  11
HETATM   11  C           1     -21.870  -7.062  -1.651  0.00  0.00     0.215 C 
HETATM   12  O           1     -22.705  -6.735  -0.841  0.00  0.00    -0.274 OA
HETATM   13  N           1     -21.261  -8.284  -1.551  0.00  0.00    -0.370 N 
HETATM   14  H           1     -20.562  -8.559  -2.230  0.00  0.00     0.159 HD
HETATM   15  H           1     -21.511  -8.914  -0.799  0.00  0.00     0.159 HD
ENDBRANCH  10  11
ENDBRANCH   9  10
ENDBRANCH   5   9
ENDBRANCH   4   5
BRANCH   3  16
HETATM   16  C           1     -21.441  -4.729  -8.214  0.00  0.00     0.274 C 
BRANCH  16  17
HETATM   17  N           1     -22.340  -3.532  -8.116  0.00  0.00    -0.067 N 
HETATM   18  H           1     -23.248  -3.738  -8.591  0.00  0.00     0.275 HD
HETATM   19  H           1     -22.516  -3.311  -7.109  0.00  0.00     0.275 HD
HETATM   20  H           1     -21.881  -2.715  -8.578  0.00  0.00     0.275 HD
ENDBRANCH  16  17
BRANCH  16  21
HETATM   21  C           1     -20.221  -4.381  -9.055  0.00  0.00     0.045 C 
BRANCH  21  22
HETATM   22 Se           1     -20.770  -4.073 -10.900  0.00  0.00     0.000 Se
HETATM   23  H           1     -20.761  -5.500 -11.263  0.00  0.00     0.000 HD
ENDBRANCH  21  22
ENDBRANCH  16  21
ENDBRANCH   3  16
TORSDOF 9
ENDMDL
