MODEL 1
REMARK VINA RESULT:      -6.7      0.000      0.000
REMARK  8 active torsions:
REMARK  status: ('A' for Active; 'I' for Inactive)
REMARK    1  A    between atoms: C_1  and  C_8 
REMARK    2  A    between atoms: C_5  and  C_6 
REMARK    3  A    between atoms: C_5  and  C_8 
REMARK    4  A    between atoms: C_5  and  N_25 
REMARK       I    between atoms: C_6  and  N_21 
REMARK    5  A    between atoms: C_11  and  C_12 
REMARK    6  A    between atoms: C_12  and  C_13 
REMARK    7  A    between atoms: C_12  and  N_21 
REMARK    8  A    between atoms: C_13  and  C_17 
ROOT
HETATM    1  C           1     -23.084  -4.150  -9.045  0.00  0.00     0.261 C 
ENDROOT
BRANCH   1   2
HETATM    2  C           1     -22.307  -4.227  -7.753  0.00  0.00     0.130 C 
HETATM    3  N           1     -22.311  -5.383  -7.021  0.00  0.00    -0.359 N 
HETATM    4  H           1     -22.835  -6.187  -7.344  0.00  0.00     0.162 HD
HETATM    5  O           1     -21.682  -3.268  -7.367  0.00  0.00    -0.397 OA
BRANCH   3   6
HETATM    6  C           1     -21.564  -5.457  -5.780  0.00  0.00     0.184 C 
BRANCH   6   7
HETATM    7  C           1     -20.111  -5.732  -6.085  0.00  0.00     0.196 C 
HETATM    8  O           1     -19.250  -4.851  -5.872  0.00  0.00    -0.646 OA
HETATM    9  O           1     -19.769  -6.841  -6.549  0.00  0.00    -0.646 OA
ENDBRANCH   6   7
BRANCH   6  10
HETATM   10  C           1     -22.122  -6.580  -4.916  0.00  0.00     0.040 C 
BRANCH  10  11
HETATM   11  C           1     -21.292  -6.704  -3.645  0.00  0.00    -0.018 C 
HETATM   12  C           1     -20.952  -8.169  -3.402  0.00  0.00     0.289 C 
HETATM   13  C           1     -22.089  -6.165  -2.465  0.00  0.00     0.009 C 
ENDBRANCH  10  11
ENDBRANCH   6  10
ENDBRANCH   3   6
ENDBRANCH   1   2
BRANCH   1  14
HETATM   14  C           1     -22.226  -3.492 -10.116  0.00  0.00     0.099 C 
BRANCH  14  15
HETATM   15  C           1     -22.961  -3.499 -11.420  0.00  0.00     0.028 A 
HETATM   16  C           1     -23.478  -4.622 -12.020  0.00  0.00     0.114 A 
HETATM   17  N           1     -24.056  -4.173 -13.175  0.00  0.00    -0.360 N 
HETATM   18  C           1     -23.871  -2.821 -13.227  0.00  0.00     0.180 A 
HETATM   19  H           1     -24.553  -4.760 -13.889  0.00  0.00     0.166 HD
HETATM   20  N           1     -23.212  -2.385 -12.179  0.00  0.00    -0.355 N 
ATOM     21  HN          1     -22.943  -1.422 -11.974  1.00  0.00     0.166 HD
ENDBRANCH  14  15
ENDBRANCH   1  14
BRANCH   1  22
HETATM   22  N           1     -24.327  -3.338  -8.831  0.00  0.00    -0.067 N 
HETATM   23  H           1     -24.068  -2.340  -8.666  0.00  0.00     0.275 HD
HETATM   24  H           1     -24.847  -3.705  -8.001  0.00  0.00     0.275 HD
HETATM   25  H           1     -24.936  -3.404  -9.678  0.00  0.00     0.275 HD
ENDBRANCH   1  22
TORSDOF 8
ENDMDL
MODEL 2
REMARK VINA RESULT:      -6.6      1.835      2.457
REMARK  8 active torsions:
REMARK  status: ('A' for Active; 'I' for Inactive)
REMARK    1  A    between atoms: C_1  and  C_8 
REMARK    2  A    between atoms: C_5  and  C_6 
REMARK    3  A    between atoms: C_5  and  C_8 
REMARK    4  A    between atoms: C_5  and  N_25 
REMARK       I    between atoms: C_6  and  N_21 
REMARK    5  A    between atoms: C_11  and  C_12 
REMARK    6  A    between atoms: C_12  and  C_13 
REMARK    7  A    between atoms: C_12  and  N_21 
REMARK    8  A    between atoms: C_13  and  C_17 
ROOT
HETATM    1  C           1     -21.569  -4.811  -7.827  0.00  0.00     0.261 C 
ENDROOT
BRANCH   1   2
HETATM    2  C           1     -20.940  -5.437  -6.606  0.00  0.00     0.130 C 
HETATM    3  N           1     -21.171  -6.755  -6.319  0.00  0.00    -0.359 N 
HETATM    4  H           1     -21.762  -7.310  -6.924  0.00  0.00     0.162 HD
HETATM    5  O           1     -20.234  -4.775  -5.884  0.00  0.00    -0.397 OA
BRANCH   3   6
HETATM    6  C           1     -20.565  -7.357  -5.147  0.00  0.00     0.184 C 
BRANCH   6   7
HETATM    7  C           1     -20.040  -8.727  -5.500  0.00  0.00     0.196 C 
HETATM    8  O           1     -18.818  -8.894  -5.708  0.00  0.00    -0.646 OA
HETATM    9  O           1     -20.826  -9.695  -5.585  0.00  0.00    -0.646 OA
ENDBRANCH   6   7
BRANCH   6  10
HETATM   10  C           1     -21.608  -7.484  -4.044  0.00  0.00     0.040 C 
BRANCH  10  11
HETATM   11  C           1     -21.057  -6.895  -2.752  0.00  0.00    -0.018 C 
HETATM   12  C           1     -20.525  -8.016  -1.870  0.00  0.00     0.289 C 
HETATM   13  C           1     -22.167  -6.155  -2.019  0.00  0.00     0.009 C 
ENDBRANCH  10  11
ENDBRANCH   6  10
ENDBRANCH   3   6
ENDBRANCH   1   2
BRANCH   1  14
HETATM   14  C           1     -20.503  -4.590  -8.892  0.00  0.00     0.099 C 
BRANCH  14  15
HETATM   15  C           1     -21.161  -4.344 -10.214  0.00  0.00     0.028 A 
HETATM   16  C           1     -20.525  -3.834 -11.320  0.00  0.00     0.114 A 
HETATM   17  N           1     -21.489  -3.776 -12.288  0.00  0.00    -0.360 N 
HETATM   18  C           1     -22.648  -4.246 -11.740  0.00  0.00     0.180 A 
HETATM   19  H           1     -21.360  -3.435 -13.273  0.00  0.00     0.166 HD
HETATM   20  N           1     -22.481  -4.597 -10.487  0.00  0.00    -0.355 N 
ATOM     21  HN          1     -23.183  -4.976  -9.851  1.00  0.00     0.166 HD
ENDBRANCH  14  15
ENDBRANCH   1  14
BRANCH   1  22
HETATM   22  N           1     -22.181  -3.493  -7.452  0.00  0.00    -0.067 N 
HETATM   23  H           1     -22.742  -3.604  -6.578  0.00  0.00     0.275 HD
HETATM   24  H           1     -22.803  -3.164  -8.226  0.00  0.00     0.275 HD
HETATM   25  H           1     -21.424  -2.790  -7.294  0.00  0.00     0.275 HD
ENDBRANCH   1  22
TORSDOF 8
ENDMDL
MODEL 3
REMARK VINA RESULT:      -6.6      2.287      7.358
REMARK  8 active torsions:
REMARK  status: ('A' for Active; 'I' for Inactive)
REMARK    1  A    between atoms: C_1  and  C_8 
REMARK    2  A    between atoms: C_5  and  C_6 
REMARK    3  A    between atoms: C_5  and  C_8 
REMARK    4  A    between atoms: C_5  and  N_25 
REMARK       I    between atoms: C_6  and  N_21 
REMARK    5  A    between atoms: C_11  and  C_12 
REMARK    6  A    between atoms: C_12  and  C_13 
REMARK    7  A    between atoms: C_12  and  N_21 
REMARK    8  A    between atoms: C_13  and  C_17 
ROOT
HETATM    1  C           1     -21.187  -5.366  -6.563  0.00  0.00     0.261 C 
ENDROOT
BRANCH   1   2
HETATM    2  C           1     -21.696  -4.445  -7.644  0.00  0.00     0.130 C 
HETATM    3  N           1     -22.316  -4.963  -8.748  0.00  0.00    -0.359 N 
HETATM    4  H           1     -22.434  -5.964  -8.841  0.00  0.00     0.162 HD
HETATM    5  O           1     -21.557  -3.250  -7.533  0.00  0.00    -0.397 OA
BRANCH   3   6
HETATM    6  C           1     -22.807  -4.077  -9.786  0.00  0.00     0.184 C 
BRANCH   6   7
HETATM    7  C           1     -24.302  -3.924  -9.650  0.00  0.00     0.196 C 
HETATM    8  O           1     -25.045  -4.925  -9.747  0.00  0.00    -0.646 OA
HETATM    9  O           1     -24.798  -2.796  -9.441  0.00  0.00    -0.646 OA
ENDBRANCH   6   7
BRANCH   6  10
HETATM   10  C           1     -22.480  -4.665 -11.152  0.00  0.00     0.040 C 
BRANCH  10  11
HETATM   11  C           1     -21.714  -3.639 -11.978  0.00  0.00    -0.018 C 
HETATM   12  C           1     -20.569  -3.073 -11.148  0.00  0.00     0.289 C 
HETATM   13  C           1     -22.654  -2.510 -12.382  0.00  0.00     0.009 C 
ENDBRANCH  10  11
ENDBRANCH   6  10
ENDBRANCH   3   6
ENDBRANCH   1   2
BRANCH   1  14
HETATM   14  C           1     -22.357  -5.867  -5.728  0.00  0.00     0.099 C 
BRANCH  14  15
HETATM   15  C           1     -21.840  -6.569  -4.512  0.00  0.00     0.028 A 
HETATM   16  C           1     -21.123  -7.742  -4.532  0.00  0.00     0.114 A 
HETATM   17  N           1     -20.859  -8.019  -3.219  0.00  0.00    -0.360 N 
HETATM   18  C           1     -21.416  -7.022  -2.470  0.00  0.00     0.180 A 
HETATM   19  H           1     -20.325  -8.846  -2.854  0.00  0.00     0.166 HD
HETATM   20  N           1     -22.016  -6.131  -3.224  0.00  0.00    -0.355 N 
ATOM     21  HN          1     -22.508  -5.292  -2.918  1.00  0.00     0.166 HD
ENDBRANCH  14  15
ENDBRANCH   1  14
BRANCH   1  22
HETATM   22  N           1     -20.228  -4.621  -5.682  0.00  0.00    -0.067 N 
HETATM   23  H           1     -20.217  -5.055  -4.732  0.00  0.00     0.275 HD
HETATM   24  H           1     -20.528  -3.623  -5.605  0.00  0.00     0.275 HD
HETATM   25  H           1     -19.269  -4.664  -6.096  0.00  0.00     0.275 HD
ENDBRANCH   1  22
TORSDOF 8
ENDMDL
MODEL 4
REMARK VINA RESULT:      -6.4     12.563     14.483
REMARK  8 active torsions:
REMARK  status: ('A' for Active; 'I' for Inactive)
REMARK    1  A    between atoms: C_1  and  C_8 
REMARK    2  A    between atoms: C_5  and  C_6 
REMARK    3  A    between atoms: C_5  and  C_8 
REMARK    4  A    between atoms: C_5  and  N_25 
REMARK       I    between atoms: C_6  and  N_21 
REMARK    5  A    between atoms: C_11  and  C_12 
REMARK    6  A    between atoms: C_12  and  C_13 
REMARK    7  A    between atoms: C_12  and  N_21 
REMARK    8  A    between atoms: C_13  and  C_17 
ROOT
HETATM    1  C           1     -35.898  -0.027 -12.437  0.00  0.00     0.261 C 
ENDROOT
BRANCH   1   2
HETATM    2  C           1     -35.028  -1.245 -12.245  0.00  0.00     0.130 C 
HETATM    3  N           1     -35.232  -2.358 -13.014  0.00  0.00    -0.359 N 
HETATM    4  H           1     -35.965  -2.365 -13.712  0.00  0.00     0.162 HD
HETATM    5  O           1     -34.152  -1.236 -11.413  0.00  0.00    -0.397 OA
BRANCH   3   6
HETATM    6  C           1     -34.395  -3.528 -12.831  0.00  0.00     0.184 C 
BRANCH   6   7
HETATM    7  C           1     -34.372  -4.334 -14.106  0.00  0.00     0.196 C 
HETATM    8  O           1     -33.665  -3.962 -15.068  0.00  0.00    -0.646 OA
HETATM    9  O           1     -35.058  -5.375 -14.201  0.00  0.00    -0.646 OA
ENDBRANCH   6   7
BRANCH   6  10
HETATM   10  C           1     -34.957  -4.383 -11.702  0.00  0.00     0.040 C 
BRANCH  10  11
HETATM   11  C           1     -33.810  -4.952 -10.876  0.00  0.00    -0.018 C 
HETATM   12  C           1     -32.495  -4.723 -11.609  0.00  0.00     0.289 C 
HETATM   13  C           1     -34.025  -6.446 -10.674  0.00  0.00     0.009 C 
ENDBRANCH  10  11
ENDBRANCH   6  10
ENDBRANCH   3   6
ENDBRANCH   1   2
BRANCH   1  14
HETATM   14  C           1     -35.392   0.777 -13.627  0.00  0.00     0.099 C 
BRANCH  14  15
HETATM   15  C           1     -35.879   0.150 -14.896  0.00  0.00     0.028 A 
HETATM   16  C           1     -37.172   0.218 -15.357  0.00  0.00     0.114 A 
HETATM   17  N           1     -37.168  -0.482 -16.531  0.00  0.00    -0.360 N 
HETATM   18  C           1     -35.896  -0.937 -16.732  0.00  0.00     0.180 A 
HETATM   19  H           1     -37.992  -0.640 -17.163  0.00  0.00     0.166 HD
HETATM   20  N           1     -35.094  -0.571 -15.760  0.00  0.00    -0.355 N 
ATOM     21  HN          1     -34.100  -0.778 -15.667  1.00  0.00     0.166 HD
ENDBRANCH  14  15
ENDBRANCH   1  14
BRANCH   1  22
HETATM   22  N           1     -35.845   0.824 -11.202  0.00  0.00    -0.067 N 
HETATM   23  H           1     -35.960   1.828 -11.465  0.00  0.00     0.275 HD
HETATM   24  H           1     -34.923   0.693 -10.726  0.00  0.00     0.275 HD
HETATM   25  H           1     -36.614   0.543 -10.552  0.00  0.00     0.275 HD
ENDBRANCH   1  22
TORSDOF 8
ENDMDL
MODEL 5
REMARK VINA RESULT:      -6.3      1.955      2.891
REMARK  8 active torsions:
REMARK  status: ('A' for Active; 'I' for Inactive)
REMARK    1  A    between atoms: C_1  and  C_8 
REMARK    2  A    between atoms: C_5  and  C_6 
REMARK    3  A    between atoms: C_5  and  C_8 
REMARK    4  A    between atoms: C_5  and  N_25 
REMARK       I    between atoms: C_6  and  N_21 
REMARK    5  A    between atoms: C_11  and  C_12 
REMARK    6  A    between atoms: C_12  and  C_13 
REMARK    7  A    between atoms: C_12  and  N_21 
REMARK    8  A    between atoms: C_13  and  C_17 
ROOT
HETATM    1  C           1     -22.252  -5.146  -6.950  0.00  0.00     0.261 C 
ENDROOT
BRANCH   1   2
HETATM    2  C           1     -21.388  -5.637  -5.814  0.00  0.00     0.130 C 
HETATM    3  N           1     -21.483  -6.937  -5.396  0.00  0.00    -0.359 N 
HETATM    4  H           1     -22.132  -7.569  -5.847  0.00  0.00     0.162 HD
HETATM    5  O           1     -20.614  -4.883  -5.276  0.00  0.00    -0.397 OA
BRANCH   3   6
HETATM    6  C           1     -20.653  -7.408  -4.304  0.00  0.00     0.184 C 
BRANCH   6   7
HETATM    7  C           1     -19.626  -8.378  -4.837  0.00  0.00     0.196 C 
HETATM    8  O           1     -19.096  -9.212  -4.071  0.00  0.00    -0.646 OA
HETATM    9  O           1     -19.306  -8.348  -6.045  0.00  0.00    -0.646 OA
ENDBRANCH   6   7
BRANCH   6  10
HETATM   10  C           1     -21.522  -8.109  -3.269  0.00  0.00     0.040 C 
BRANCH  10  11
HETATM   11  C           1     -21.385  -7.403  -1.927  0.00  0.00    -0.018 C 
HETATM   12  C           1     -21.936  -8.298  -0.824  0.00  0.00     0.289 C 
HETATM   13  C           1     -22.167  -6.097  -1.959  0.00  0.00     0.009 C 
ENDBRANCH  10  11
ENDBRANCH   6  10
ENDBRANCH   3   6
ENDBRANCH   1   2
BRANCH   1  14
HETATM   14  C           1     -21.638  -3.888  -7.549  0.00  0.00     0.099 C 
BRANCH  14  15
HETATM   15  C           1     -21.450  -4.076  -9.022  0.00  0.00     0.028 A 
HETATM   16  C           1     -22.466  -4.326  -9.914  0.00  0.00     0.114 A 
HETATM   17  N           1     -21.851  -4.425 -11.132  0.00  0.00    -0.360 N 
HETATM   18  C           1     -20.514  -4.234 -10.933  0.00  0.00     0.180 A 
HETATM   19  H           1     -22.322  -4.613 -12.051  0.00  0.00     0.166 HD
HETATM   20  N           1     -20.241  -4.020  -9.667  0.00  0.00    -0.355 N 
ATOM     21  HN          1     -19.325  -3.849  -9.252  1.00  0.00     0.166 HD
ENDBRANCH  14  15
ENDBRANCH   1  14
BRANCH   1  22
HETATM   22  N           1     -23.626  -4.834  -6.434  0.00  0.00    -0.067 N 
HETATM   23  H           1     -24.340  -5.287  -7.047  0.00  0.00     0.275 HD
HETATM   24  H           1     -23.773  -3.799  -6.436  0.00  0.00     0.275 HD
HETATM   25  H           1     -23.722  -5.196  -5.459  0.00  0.00     0.275 HD
ENDBRANCH   1  22
TORSDOF 8
ENDMDL
MODEL 6
REMARK VINA RESULT:      -6.0     12.756     14.723
REMARK  8 active torsions:
REMARK  status: ('A' for Active; 'I' for Inactive)
REMARK    1  A    between atoms: C_1  and  C_8 
REMARK    2  A    between atoms: C_5  and  C_6 
REMARK    3  A    between atoms: C_5  and  C_8 
REMARK    4  A    between atoms: C_5  and  N_25 
REMARK       I    between atoms: C_6  and  N_21 
REMARK    5  A    between atoms: C_11  and  C_12 
REMARK    6  A    between atoms: C_12  and  C_13 
REMARK    7  A    between atoms: C_12  and  N_21 
REMARK    8  A    between atoms: C_13  and  C_17 
ROOT
HETATM    1  C           1     -33.433  -4.032 -12.851  0.00  0.00     0.261 C 
ENDROOT
BRANCH   1   2
HETATM    2  C           1     -33.852  -2.795 -12.094  0.00  0.00     0.130 C 
HETATM    3  N           1     -34.982  -2.117 -12.464  0.00  0.00    -0.359 N 
HETATM    4  H           1     -35.537  -2.444 -13.245  0.00  0.00     0.162 HD
HETATM    5  O           1     -33.190  -2.404 -11.162  0.00  0.00    -0.397 OA
BRANCH   3   6
HETATM    6  C           1     -35.384  -0.929 -11.736  0.00  0.00     0.184 C 
BRANCH   6   7
HETATM    7  C           1     -36.165  -1.332 -10.509  0.00  0.00     0.196 C 
HETATM    8  O           1     -36.096  -0.642  -9.469  0.00  0.00    -0.646 OA
HETATM    9  O           1     -36.882  -2.356 -10.533  0.00  0.00    -0.646 OA
ENDBRANCH   6   7
BRANCH   6  10
HETATM   10  C           1     -36.257  -0.057 -12.629  0.00  0.00     0.040 C 
BRANCH  10  11
HETATM   11  C           1     -35.658  -0.000 -14.028  0.00  0.00    -0.018 C 
HETATM   12  C           1     -34.660   1.148 -14.105  0.00  0.00     0.289 C 
HETATM   13  C           1     -36.768   0.224 -15.046  0.00  0.00     0.009 C 
ENDBRANCH  10  11
ENDBRANCH   6  10
ENDBRANCH   3   6
ENDBRANCH   1   2
BRANCH   1  14
HETATM   14  C           1     -34.465  -4.343 -13.926  0.00  0.00     0.099 C 
BRANCH  14  15
HETATM   15  C           1     -33.897  -4.022 -15.273  0.00  0.00     0.028 A 
HETATM   16  C           1     -34.507  -3.222 -16.209  0.00  0.00     0.114 A 
HETATM   17  N           1     -33.649  -3.202 -17.273  0.00  0.00    -0.360 N 
HETATM   18  C           1     -32.572  -3.976 -16.945  0.00  0.00     0.180 A 
HETATM   19  H           1     -33.791  -2.686 -18.176  0.00  0.00     0.166 HD
HETATM   20  N           1     -32.694  -4.485 -15.742  0.00  0.00    -0.355 N 
ATOM     21  HN          1     -32.034  -5.094 -15.258  1.00  0.00     0.166 HD
ENDBRANCH  14  15
ENDBRANCH   1  14
BRANCH   1  22
HETATM   22  N           1     -33.337  -5.189 -11.901  0.00  0.00    -0.067 N 
HETATM   23  H           1     -33.556  -4.865 -10.933  0.00  0.00     0.275 HD
HETATM   24  H           1     -32.368  -5.582 -11.926  0.00  0.00     0.275 HD
HETATM   25  H           1     -34.019  -5.929 -12.184  0.00  0.00     0.275 HD
ENDBRANCH   1  22
TORSDOF 8
ENDMDL
MODEL 7
REMARK VINA RESULT:      -5.9     12.374     13.916
REMARK  8 active torsions:
REMARK  status: ('A' for Active; 'I' for Inactive)
REMARK    1  A    between atoms: C_1  and  C_8 
REMARK    2  A    between atoms: C_5  and  C_6 
REMARK    3  A    between atoms: C_5  and  C_8 
REMARK    4  A    between atoms: C_5  and  N_25 
REMARK       I    between atoms: C_6  and  N_21 
REMARK    5  A    between atoms: C_11  and  C_12 
REMARK    6  A    between atoms: C_12  and  C_13 
REMARK    7  A    between atoms: C_12  and  N_21 
REMARK    8  A    between atoms: C_13  and  C_17 
ROOT
HETATM    1  C           1     -36.583  -0.992 -10.972  0.00  0.00     0.261 C 
ENDROOT
BRANCH   1   2
HETATM    2  C           1     -35.438  -1.964 -10.828  0.00  0.00     0.130 C 
HETATM    3  N           1     -35.502  -3.191 -11.432  0.00  0.00    -0.359 N 
HETATM    4  H           1     -36.317  -3.446 -11.974  0.00  0.00     0.162 HD
HETATM    5  O           1     -34.465  -1.658 -10.181  0.00  0.00    -0.397 OA
BRANCH   3   6
HETATM    6  C           1     -34.401  -4.124 -11.294  0.00  0.00     0.184 C 
BRANCH   6   7
HETATM    7  C           1     -33.450  -3.953 -12.453  0.00  0.00     0.196 C 
HETATM    8  O           1     -32.224  -4.135 -12.288  0.00  0.00    -0.646 OA
HETATM    9  O           1     -33.887  -3.630 -13.579  0.00  0.00    -0.646 OA
ENDBRANCH   6   7
BRANCH   6  10
HETATM   10  C           1     -34.940  -5.548 -11.287  0.00  0.00     0.040 C 
BRANCH  10  11
HETATM   11  C           1     -34.241  -6.351 -10.197  0.00  0.00    -0.018 C 
HETATM   12  C           1     -33.012  -7.036 -10.780  0.00  0.00     0.289 C 
HETATM   13  C           1     -35.197  -7.404  -9.651  0.00  0.00     0.009 C 
ENDBRANCH  10  11
ENDBRANCH   6  10
ENDBRANCH   3   6
ENDBRANCH   1   2
BRANCH   1  14
HETATM   14  C           1     -36.060   0.335 -11.505  0.00  0.00     0.099 C 
BRANCH  14  15
HETATM   15  C           1     -35.752   0.202 -12.964  0.00  0.00     0.028 A 
HETATM   16  C           1     -34.627   0.704 -13.575  0.00  0.00     0.114 A 
HETATM   17  N           1     -34.755   0.357 -14.891  0.00  0.00    -0.360 N 
HETATM   18  C           1     -35.928  -0.330 -15.023  0.00  0.00     0.180 A 
HETATM   19  H           1     -34.074   0.576 -15.659  0.00  0.00     0.166 HD
HETATM   20  N           1     -36.553  -0.439 -13.874  0.00  0.00    -0.355 N 
ATOM     21  HN          1     -37.444  -0.902 -13.696  1.00  0.00     0.166 HD
ENDBRANCH  14  15
ENDBRANCH   1  14
BRANCH   1  22
HETATM   22  N           1     -37.224  -0.774  -9.633  0.00  0.00    -0.067 N 
HETATM   23  H           1     -38.084  -1.363  -9.559  0.00  0.00     0.275 HD
HETATM   24  H           1     -37.482   0.233  -9.529  0.00  0.00     0.275 HD
HETATM   25  H           1     -36.553  -1.040  -8.878  0.00  0.00     0.275 HD
ENDBRANCH   1  22
TORSDOF 8
ENDMDL
MODEL 8
REMARK VINA RESULT:      -5.8      2.905      4.732
REMARK  8 active torsions:
REMARK  status: ('A' for Active; 'I' for Inactive)
REMARK    1  A    between atoms: C_1  and  C_8 
REMARK    2  A    between atoms: C_5  and  C_6 
REMARK    3  A    between atoms: C_5  and  C_8 
REMARK    4  A    between atoms: C_5  and  N_25 
REMARK       I    between atoms: C_6  and  N_21 
REMARK    5  A    between atoms: C_11  and  C_12 
REMARK    6  A    between atoms: C_12  and  C_13 
REMARK    7  A    between atoms: C_12  and  N_21 
REMARK    8  A    between atoms: C_13  and  C_17 
ROOT
HETATM    1  C           1     -21.922  -6.340  -5.303  0.00  0.00     0.261 C 
ENDROOT
BRANCH   1   2
HETATM    2  C           1     -21.513  -6.856  -3.945  0.00  0.00     0.130 C 
HETATM    3  N           1     -21.403  -8.203  -3.730  0.00  0.00    -0.359 N 
HETATM    4  H           1     -21.596  -8.853  -4.481  0.00  0.00     0.162 HD
HETATM    5  O           1     -21.282  -6.079  -3.048  0.00  0.00    -0.397 OA
BRANCH   3   6
HETATM    6  C           1     -21.009  -8.698  -2.426  0.00  0.00     0.184 C 
BRANCH   6   7
HETATM    7  C           1     -19.658  -9.363  -2.528  0.00  0.00     0.196 C 
HETATM    8  O           1     -18.851  -9.007  -3.414  0.00  0.00    -0.646 OA
HETATM    9  O           1     -19.345 -10.270  -1.727  0.00  0.00    -0.646 OA
ENDBRANCH   6   7
BRANCH   6  10
HETATM   10  C           1     -22.036  -9.710  -1.935  0.00  0.00     0.040 C 
BRANCH  10  11
HETATM   11  C           1     -22.351  -9.445  -0.468  0.00  0.00    -0.018 C 
HETATM   12  C           1     -23.613 -10.201  -0.076  0.00  0.00     0.289 C 
HETATM   13  C           1     -22.568  -7.952  -0.259  0.00  0.00     0.009 C 
ENDBRANCH  10  11
ENDBRANCH   6  10
ENDBRANCH   3   6
ENDBRANCH   1   2
BRANCH   1  14
HETATM   14  C           1     -21.101  -5.104  -5.646  0.00  0.00     0.099 C 
BRANCH  14  15
HETATM   15  C           1     -21.372  -4.700  -7.061  0.00  0.00     0.028 A 
HETATM   16  C           1     -20.731  -5.221  -8.160  0.00  0.00     0.114 A 
HETATM   17  N           1     -21.283  -4.576  -9.231  0.00  0.00    -0.360 N 
HETATM   18  C           1     -22.221  -3.707  -8.748  0.00  0.00     0.180 A 
HETATM   19  H           1     -21.034  -4.722 -10.240  0.00  0.00     0.166 HD
HETATM   20  N           1     -22.297  -3.760  -7.439  0.00  0.00    -0.355 N 
ATOM     21  HN          1     -22.912  -3.218  -6.833  1.00  0.00     0.166 HD
ENDBRANCH  14  15
ENDBRANCH   1  14
BRANCH   1  22
HETATM   22  N           1     -23.379  -5.980  -5.282  0.00  0.00    -0.067 N 
HETATM   23  H           1     -23.534  -5.191  -4.615  0.00  0.00     0.275 HD
HETATM   24  H           1     -23.939  -6.809  -4.976  0.00  0.00     0.275 HD
HETATM   25  H           1     -23.680  -5.692  -6.240  0.00  0.00     0.275 HD
ENDBRANCH   1  22
TORSDOF 8
ENDMDL
MODEL 9
REMARK VINA RESULT:      -5.6      4.092      6.424
REMARK  8 active torsions:
REMARK  status: ('A' for Active; 'I' for Inactive)
REMARK    1  A    between atoms: C_1  and  C_8 
REMARK    2  A    between atoms: C_5  and  C_6 
REMARK    3  A    between atoms: C_5  and  C_8 
REMARK    4  A    between atoms: C_5  and  N_25 
REMARK       I    between atoms: C_6  and  N_21 
REMARK    5  A    between atoms: C_11  and  C_12 
REMARK    6  A    between atoms: C_12  and  C_13 
REMARK    7  A    between atoms: C_12  and  N_21 
REMARK    8  A    between atoms: C_13  and  C_17 
ROOT
HETATM    1  C           1     -20.461  -7.758  -4.617  0.00  0.00     0.261 C 
ENDROOT
BRANCH   1   2
HETATM    2  C           1     -20.415  -8.669  -3.414  0.00  0.00     0.130 C 
HETATM    3  N           1     -21.571  -9.221  -2.930  0.00  0.00    -0.359 N 
HETATM    4  H           1     -22.455  -9.019  -3.378  0.00  0.00     0.162 HD
HETATM    5  O           1     -19.359  -8.910  -2.880  0.00  0.00    -0.397 OA
BRANCH   3   6
HETATM    6  C           1     -21.526 -10.096  -1.776  0.00  0.00     0.184 C 
BRANCH   6   7
HETATM    7  C           1     -21.777 -11.519  -2.214  0.00  0.00     0.196 C 
HETATM    8  O           1     -22.369 -11.746  -3.291  0.00  0.00    -0.646 OA
HETATM    9  O           1     -21.392 -12.470  -1.500  0.00  0.00    -0.646 OA
ENDBRANCH   6   7
BRANCH   6  10
HETATM   10  C           1     -22.597  -9.677  -0.778  0.00  0.00     0.040 C 
BRANCH  10  11
HETATM   11  C           1     -22.092  -8.501   0.048  0.00  0.00    -0.018 C 
HETATM   12  C           1     -21.119  -9.005   1.106  0.00  0.00     0.289 C 
HETATM   13  C           1     -23.270  -7.815   0.727  0.00  0.00     0.009 C 
ENDBRANCH  10  11
ENDBRANCH   6  10
ENDBRANCH   3   6
ENDBRANCH   1   2
BRANCH   1  14
HETATM   14  C           1     -21.203  -6.478  -4.256  0.00  0.00     0.099 C 
BRANCH  14  15
HETATM   15  C           1     -21.213  -5.556  -5.436  0.00  0.00     0.028 A 
HETATM   16  C           1     -20.103  -4.922  -5.942  0.00  0.00     0.114 A 
HETATM   17  N           1     -20.565  -4.192  -7.002  0.00  0.00    -0.360 N 
HETATM   18  C           1     -21.910  -4.410  -7.095  0.00  0.00     0.180 A 
HETATM   19  H           1     -19.990  -3.577  -7.630  0.00  0.00     0.166 HD
HETATM   20  N           1     -22.330  -5.231  -6.161  0.00  0.00    -0.355 N 
ATOM     21  HN          1     -23.284  -5.556  -6.007  1.00  0.00     0.166 HD
ENDBRANCH  14  15
ENDBRANCH   1  14
BRANCH   1  22
HETATM   22  N           1     -21.177  -8.449  -5.740  0.00  0.00    -0.067 N 
HETATM   23  H           1     -21.642  -9.312  -5.378  0.00  0.00     0.275 HD
HETATM   24  H           1     -20.490  -8.711  -6.483  0.00  0.00     0.275 HD
HETATM   25  H           1     -21.896  -7.807  -6.142  0.00  0.00     0.275 HD
ENDBRANCH   1  22
TORSDOF 8
ENDMDL
