MODEL 1
REMARK VINA RESULT:      -6.2      0.000      0.000
REMARK  6 active torsions:
REMARK  status: ('A' for Active; 'I' for Inactive)
REMARK       I    between atoms: C_6  and  N_9 
REMARK    1  A    between atoms: C_6  and  C_10 
REMARK       I    between atoms: C_7  and  N_8 
REMARK    2  A    between atoms: C_7  and  C_15 
REMARK    3  A    between atoms: N_9  and  C_14 
REMARK    4  A    between atoms: C_10  and  N_16 
REMARK    5  A    between atoms: C_14  and  C_15 
REMARK    6  A    between atoms: C_14  and  C_18 
ROOT
HETATM    1  C           1     -22.304  -3.590 -11.254  0.00  0.00     0.194 C 
ENDROOT
BRANCH   1   2
HETATM    2  N           1     -22.140  -3.582 -12.694  0.00  0.00    -0.345 N 
HETATM    3  H           1     -21.424  -4.153 -13.125  0.00  0.00     0.163 HD
HETATM    4  C           1     -22.951  -2.800 -13.472  0.00  0.00     0.243 C 
HETATM    5  O           1     -23.805  -2.119 -12.957  0.00  0.00    -0.272 OA
BRANCH   4   6
HETATM    6  C           1     -22.779  -2.792 -14.971  0.00  0.00     0.332 C 
BRANCH   6   7
HETATM    7  N           1     -23.074  -1.420 -15.501  0.00  0.00    -0.071 N 
HETATM    8  H           1     -23.388  -0.804 -14.717  0.00  0.00     0.274 HD
HETATM    9  H           1     -22.211  -1.021 -15.934  0.00  0.00     0.274 HD
HETATM   10  H           1     -23.829  -1.478 -16.220  0.00  0.00     0.274 HD
ENDBRANCH   6   7
ENDBRANCH   4   6
ENDBRANCH   1   2
BRANCH   1  11
HETATM   11  C           1     -23.442  -4.530 -10.878  0.00  0.00     0.138 C 
BRANCH  11  12
HETATM   12  C           1     -24.362  -3.842  -9.900  0.00  0.00     0.217 C 
HETATM   13  O           1     -25.366  -3.299 -10.295  0.00  0.00    -0.274 OA
HETATM   14  N           1     -24.059  -3.833  -8.565  0.00  0.00    -0.370 N 
HETATM   15  H           1     -23.218  -4.288  -8.234  0.00  0.00     0.159 HD
HETATM   16  H           1     -24.676  -3.371  -7.909  0.00  0.00     0.159 HD
ENDBRANCH  11  12
ENDBRANCH   1  11
BRANCH   1  17
HETATM   17  C           1     -21.027  -4.061 -10.604  0.00  0.00     0.197 C 
HETATM   18  O           1     -20.002  -4.241 -11.298  0.00  0.00    -0.646 OA
HETATM   19  O           1     -20.992  -4.271  -9.372  0.00  0.00    -0.646 OA
ENDBRANCH   1  17
TORSDOF 6
ENDMDL
MODEL 2
REMARK VINA RESULT:      -5.7      1.743      4.429
REMARK  6 active torsions:
REMARK  status: ('A' for Active; 'I' for Inactive)
REMARK       I    between atoms: C_6  and  N_9 
REMARK    1  A    between atoms: C_6  and  C_10 
REMARK       I    between atoms: C_7  and  N_8 
REMARK    2  A    between atoms: C_7  and  C_15 
REMARK    3  A    between atoms: N_9  and  C_14 
REMARK    4  A    between atoms: C_10  and  N_16 
REMARK    5  A    between atoms: C_14  and  C_15 
REMARK    6  A    between atoms: C_14  and  C_18 
ROOT
HETATM    1  C           1     -23.410  -3.450 -10.958  0.00  0.00     0.194 C 
ENDROOT
BRANCH   1   2
HETATM    2  N           1     -22.298  -4.267 -10.512  0.00  0.00    -0.345 N 
HETATM    3  H           1     -22.472  -5.124 -10.004  0.00  0.00     0.163 HD
HETATM    4  C           1     -21.013  -3.878 -10.777  0.00  0.00     0.243 C 
HETATM    5  O           1     -20.805  -2.854 -11.384  0.00  0.00    -0.272 OA
BRANCH   4   6
HETATM    6  C           1     -19.856  -4.728 -10.312  0.00  0.00     0.332 C 
BRANCH   6   7
HETATM    7  N           1     -19.994  -5.000  -8.843  0.00  0.00    -0.071 N 
HETATM    8  H           1     -20.978  -5.280  -8.631  0.00  0.00     0.274 HD
HETATM    9  H           1     -19.345  -5.773  -8.570  0.00  0.00     0.274 HD
HETATM   10  H           1     -19.755  -4.138  -8.304  0.00  0.00     0.274 HD
ENDBRANCH   6   7
ENDBRANCH   4   6
ENDBRANCH   1   2
BRANCH   1  11
HETATM   11  C           1     -23.961  -4.012 -12.262  0.00  0.00     0.138 C 
BRANCH  11  12
HETATM   12  C           1     -23.678  -3.047 -13.387  0.00  0.00     0.217 C 
HETATM   13  O           1     -24.505  -2.224 -13.699  0.00  0.00    -0.274 OA
HETATM   14  N           1     -22.483  -3.104 -14.054  0.00  0.00    -0.370 N 
HETATM   15  H           1     -21.790  -3.794 -13.792  0.00  0.00     0.159 HD
HETATM   16  H           1     -22.294  -2.457 -14.808  0.00  0.00     0.159 HD
ENDBRANCH  11  12
ENDBRANCH   1  11
BRANCH   1  17
HETATM   17  C           1     -24.492  -3.457  -9.908  0.00  0.00     0.197 C 
HETATM   18  O           1     -24.208  -3.717  -8.719  0.00  0.00    -0.646 OA
HETATM   19  O           1     -25.674  -3.201 -10.226  0.00  0.00    -0.646 OA
ENDBRANCH   1  17
TORSDOF 6
ENDMDL
MODEL 3
REMARK VINA RESULT:      -5.7     12.530     14.309
REMARK  6 active torsions:
REMARK  status: ('A' for Active; 'I' for Inactive)
REMARK       I    between atoms: C_6  and  N_9 
REMARK    1  A    between atoms: C_6  and  C_10 
REMARK       I    between atoms: C_7  and  N_8 
REMARK    2  A    between atoms: C_7  and  C_15 
REMARK    3  A    between atoms: N_9  and  C_14 
REMARK    4  A    between atoms: C_10  and  N_16 
REMARK    5  A    between atoms: C_14  and  C_15 
REMARK    6  A    between atoms: C_14  and  C_18 
ROOT
HETATM    1  C           1     -35.810  -0.526 -12.606  0.00  0.00     0.194 C 
ENDROOT
BRANCH   1   2
HETATM    2  N           1     -36.098   0.185 -11.376  0.00  0.00    -0.345 N 
HETATM    3  H           1     -35.428   0.847 -11.005  0.00  0.00     0.163 HD
HETATM    4  C           1     -37.275  -0.039 -10.715  0.00  0.00     0.243 C 
HETATM    5  O           1     -38.075  -0.829 -11.158  0.00  0.00    -0.272 OA
BRANCH   4   6
HETATM    6  C           1     -37.575   0.700  -9.434  0.00  0.00     0.332 C 
BRANCH   6   7
HETATM    7  N           1     -36.293   1.187  -8.826  0.00  0.00    -0.071 N 
HETATM    8  H           1     -35.953   0.489  -8.126  0.00  0.00     0.274 HD
HETATM    9  H           1     -35.575   1.308  -9.576  0.00  0.00     0.274 HD
HETATM   10  H           1     -36.457   2.102  -8.350  0.00  0.00     0.274 HD
ENDBRANCH   6   7
ENDBRANCH   4   6
ENDBRANCH   1   2
BRANCH   1  11
HETATM   11  C           1     -35.311   0.458 -13.656  0.00  0.00     0.138 C 
BRANCH  11  12
HETATM   12  C           1     -36.150   0.332 -14.904  0.00  0.00     0.217 C 
HETATM   13  O           1     -36.752  -0.692 -15.125  0.00  0.00    -0.274 OA
HETATM   14  N           1     -36.229   1.376 -15.785  0.00  0.00    -0.370 N 
HETATM   15  H           1     -35.724   2.234 -15.599  0.00  0.00     0.159 HD
HETATM   16  H           1     -36.791   1.291 -16.621  0.00  0.00     0.159 HD
ENDBRANCH  11  12
ENDBRANCH   1  11
BRANCH   1  17
HETATM   17  C           1     -34.750  -1.568 -12.348  0.00  0.00     0.197 C 
HETATM   18  O           1     -34.611  -2.528 -13.137  0.00  0.00    -0.646 OA
HETATM   19  O           1     -34.008  -1.471 -11.346  0.00  0.00    -0.646 OA
ENDBRANCH   1  17
TORSDOF 6
ENDMDL
MODEL 4
REMARK VINA RESULT:      -5.7     11.591     13.121
REMARK  6 active torsions:
REMARK  status: ('A' for Active; 'I' for Inactive)
REMARK       I    between atoms: C_6  and  N_9 
REMARK    1  A    between atoms: C_6  and  C_10 
REMARK       I    between atoms: C_7  and  N_8 
REMARK    2  A    between atoms: C_7  and  C_15 
REMARK    3  A    between atoms: N_9  and  C_14 
REMARK    4  A    between atoms: C_10  and  N_16 
REMARK    5  A    between atoms: C_14  and  C_15 
REMARK    6  A    between atoms: C_14  and  C_18 
ROOT
HETATM    1  C           1     -35.468  -1.704 -12.136  0.00  0.00     0.194 C 
ENDROOT
BRANCH   1   2
HETATM    2  N           1     -35.040  -0.539 -12.886  0.00  0.00    -0.345 N 
HETATM    3  H           1     -34.251   0.007 -12.564  0.00  0.00     0.163 HD
HETATM    4  C           1     -35.703  -0.178 -14.027  0.00  0.00     0.243 C 
HETATM    5  O           1     -36.645  -0.830 -14.410  0.00  0.00    -0.272 OA
BRANCH   4   6
HETATM    6  C           1     -35.258   1.035 -14.806  0.00  0.00     0.332 C 
BRANCH   6   7
HETATM    7  N           1     -36.319   1.410 -15.799  0.00  0.00    -0.071 N 
HETATM    8  H           1     -35.878   1.592 -16.728  0.00  0.00     0.274 HD
HETATM    9  H           1     -37.006   0.628 -15.886  0.00  0.00     0.274 HD
HETATM   10  H           1     -36.812   2.272 -15.474  0.00  0.00     0.274 HD
ENDBRANCH   6   7
ENDBRANCH   4   6
ENDBRANCH   1   2
BRANCH   1  11
HETATM   11  C           1     -34.246  -2.485 -11.670  0.00  0.00     0.138 C 
BRANCH  11  12
HETATM   12  C           1     -33.880  -3.516 -12.709  0.00  0.00     0.217 C 
HETATM   13  O           1     -34.369  -3.460 -13.813  0.00  0.00    -0.274 OA
HETATM   14  N           1     -32.996  -4.515 -12.403  0.00  0.00    -0.370 N 
HETATM   15  H           1     -32.587  -4.561 -11.478  0.00  0.00     0.159 HD
HETATM   16  H           1     -32.751  -5.206 -13.100  0.00  0.00     0.159 HD
ENDBRANCH  11  12
ENDBRANCH   1  11
BRANCH   1  17
HETATM   17  C           1     -36.271  -1.263 -10.937  0.00  0.00     0.197 C 
HETATM   18  O           1     -37.520  -1.285 -10.979  0.00  0.00    -0.646 OA
HETATM   19  O           1     -35.687  -0.877  -9.901  0.00  0.00    -0.646 OA
ENDBRANCH   1  17
TORSDOF 6
ENDMDL
MODEL 5
REMARK VINA RESULT:      -5.6     11.612     13.390
REMARK  6 active torsions:
REMARK  status: ('A' for Active; 'I' for Inactive)
REMARK       I    between atoms: C_6  and  N_9 
REMARK    1  A    between atoms: C_6  and  C_10 
REMARK       I    between atoms: C_7  and  N_8 
REMARK    2  A    between atoms: C_7  and  C_15 
REMARK    3  A    between atoms: N_9  and  C_14 
REMARK    4  A    between atoms: C_10  and  N_16 
REMARK    5  A    between atoms: C_14  and  C_15 
REMARK    6  A    between atoms: C_14  and  C_18 
ROOT
HETATM    1  C           1     -34.951  -0.367 -12.418  0.00  0.00     0.194 C 
ENDROOT
BRANCH   1   2
HETATM    2  N           1     -34.939  -1.692 -13.006  0.00  0.00    -0.345 N 
HETATM    3  H           1     -35.428  -1.864 -13.875  0.00  0.00     0.163 HD
HETATM    4  C           1     -34.267  -2.710 -12.385  0.00  0.00     0.243 C 
HETATM    5  O           1     -33.683  -2.504 -11.348  0.00  0.00    -0.272 OA
BRANCH   4   6
HETATM    6  C           1     -34.256  -4.089 -12.997  0.00  0.00     0.332 C 
BRANCH   6   7
HETATM    7  N           1     -33.809  -3.999 -14.426  0.00  0.00    -0.071 N 
HETATM    8  H           1     -34.321  -4.710 -14.997  0.00  0.00     0.274 HD
HETATM    9  H           1     -34.013  -3.043 -14.795  0.00  0.00     0.274 HD
HETATM   10  H           1     -32.782  -4.183 -14.483  0.00  0.00     0.274 HD
ENDBRANCH   6   7
ENDBRANCH   4   6
ENDBRANCH   1   2
BRANCH   1  11
HETATM   11  C           1     -34.813   0.678 -13.517  0.00  0.00     0.138 C 
BRANCH  11  12
HETATM   12  C           1     -35.528   0.202 -14.758  0.00  0.00     0.217 C 
HETATM   13  O           1     -34.958  -0.515 -15.546  0.00  0.00    -0.274 OA
HETATM   14  N           1     -36.823   0.581 -14.990  0.00  0.00    -0.370 N 
HETATM   15  H           1     -37.301   1.181 -14.330  0.00  0.00     0.159 HD
HETATM   16  H           1     -37.302   0.261 -15.822  0.00  0.00     0.159 HD
ENDBRANCH  11  12
ENDBRANCH   1  11
BRANCH   1  17
HETATM   17  C           1     -36.251  -0.155 -11.682  0.00  0.00     0.197 C 
HETATM   18  O           1     -36.273   0.530 -10.636  0.00  0.00    -0.646 OA
HETATM   19  O           1     -37.307  -0.663 -12.119  0.00  0.00    -0.646 OA
ENDBRANCH   1  17
TORSDOF 6
ENDMDL
MODEL 6
REMARK VINA RESULT:      -5.5      2.544      5.653
REMARK  6 active torsions:
REMARK  status: ('A' for Active; 'I' for Inactive)
REMARK       I    between atoms: C_6  and  N_9 
REMARK    1  A    between atoms: C_6  and  C_10 
REMARK       I    between atoms: C_7  and  N_8 
REMARK    2  A    between atoms: C_7  and  C_15 
REMARK    3  A    between atoms: N_9  and  C_14 
REMARK    4  A    between atoms: C_10  and  N_16 
REMARK    5  A    between atoms: C_14  and  C_15 
REMARK    6  A    between atoms: C_14  and  C_18 
ROOT
HETATM    1  C           1     -22.759  -3.907  -9.596  0.00  0.00     0.194 C 
ENDROOT
BRANCH   1   2
HETATM    2  N           1     -22.344  -4.828  -8.556  0.00  0.00    -0.345 N 
HETATM    3  H           1     -22.512  -5.821  -8.663  0.00  0.00     0.163 HD
HETATM    4  C           1     -21.727  -4.356  -7.430  0.00  0.00     0.243 C 
HETATM    5  O           1     -21.526  -3.172  -7.303  0.00  0.00    -0.272 OA
BRANCH   4   6
HETATM    6  C           1     -21.296  -5.315  -6.347  0.00  0.00     0.332 C 
BRANCH   6   7
HETATM    7  N           1     -20.813  -6.591  -6.972  0.00  0.00    -0.071 N 
HETATM    8  H           1     -21.425  -7.381  -6.667  0.00  0.00     0.274 HD
HETATM    9  H           1     -20.847  -6.504  -8.012  0.00  0.00     0.274 HD
HETATM   10  H           1     -19.830  -6.777  -6.670  0.00  0.00     0.274 HD
ENDBRANCH   6   7
ENDBRANCH   4   6
ENDBRANCH   1   2
BRANCH   1  11
HETATM   11  C           1     -22.203  -4.371 -10.936  0.00  0.00     0.138 C 
BRANCH  11  12
HETATM   12  C           1     -20.727  -4.067 -11.003  0.00  0.00     0.217 C 
HETATM   13  O           1     -19.927  -4.859 -10.566  0.00  0.00    -0.274 OA
HETATM   14  N           1     -20.293  -2.892 -11.558  0.00  0.00    -0.370 N 
HETATM   15  H           1     -20.964  -2.229 -11.924  0.00  0.00     0.159 HD
HETATM   16  H           1     -19.304  -2.689 -11.602  0.00  0.00     0.159 HD
ENDBRANCH  11  12
ENDBRANCH   1  11
BRANCH   1  17
HETATM   17  C           1     -24.265  -3.868  -9.662  0.00  0.00     0.197 C 
HETATM   18  O           1     -24.910  -4.919  -9.869  0.00  0.00    -0.646 OA
HETATM   19  O           1     -24.870  -2.785  -9.508  0.00  0.00    -0.646 OA
ENDBRANCH   1  17
TORSDOF 6
ENDMDL
MODEL 7
REMARK VINA RESULT:      -5.4     12.302     14.027
REMARK  6 active torsions:
REMARK  status: ('A' for Active; 'I' for Inactive)
REMARK       I    between atoms: C_6  and  N_9 
REMARK    1  A    between atoms: C_6  and  C_10 
REMARK       I    between atoms: C_7  and  N_8 
REMARK    2  A    between atoms: C_7  and  C_15 
REMARK    3  A    between atoms: N_9  and  C_14 
REMARK    4  A    between atoms: C_10  and  N_16 
REMARK    5  A    between atoms: C_14  and  C_15 
REMARK    6  A    between atoms: C_14  and  C_18 
ROOT
HETATM    1  C           1     -35.792  -0.608 -13.963  0.00  0.00     0.194 C 
ENDROOT
BRANCH   1   2
HETATM    2  N           1     -35.410  -1.143 -12.670  0.00  0.00    -0.345 N 
HETATM    3  H           1     -35.612  -0.622 -11.827  0.00  0.00     0.163 HD
HETATM    4  C           1     -34.774  -2.352 -12.591  0.00  0.00     0.243 C 
HETATM    5  O           1     -34.532  -2.974 -13.598  0.00  0.00    -0.272 OA
BRANCH   4   6
HETATM    6  C           1     -34.375  -2.908 -11.246  0.00  0.00     0.332 C 
BRANCH   6   7
HETATM    7  N           1     -33.905  -1.792 -10.362  0.00  0.00    -0.071 N 
HETATM    8  H           1     -34.493  -1.760  -9.498  0.00  0.00     0.274 HD
HETATM    9  H           1     -32.907  -1.953 -10.098  0.00  0.00     0.274 HD
HETATM   10  H           1     -33.987  -0.884 -10.872  0.00  0.00     0.274 HD
ENDBRANCH   6   7
ENDBRANCH   4   6
ENDBRANCH   1   2
BRANCH   1  11
HETATM   11  C           1     -37.214  -0.069 -13.888  0.00  0.00     0.138 C 
BRANCH  11  12
HETATM   12  C           1     -37.804  -0.007 -15.275  0.00  0.00     0.217 C 
HETATM   13  O           1     -38.036  -1.027 -15.878  0.00  0.00    -0.274 OA
HETATM   14  N           1     -38.075   1.205 -15.852  0.00  0.00    -0.370 N 
HETATM   15  H           1     -37.880   2.060 -15.346  0.00  0.00     0.159 HD
HETATM   16  H           1     -38.470   1.246 -16.782  0.00  0.00     0.159 HD
ENDBRANCH  11  12
ENDBRANCH   1  11
BRANCH   1  17
HETATM   17  C           1     -34.850   0.507 -14.344  0.00  0.00     0.197 C 
HETATM   18  O           1     -34.738   1.511 -13.606  0.00  0.00    -0.646 OA
HETATM   19  O           1     -34.180   0.427 -15.396  0.00  0.00    -0.646 OA
ENDBRANCH   1  17
TORSDOF 6
ENDMDL
MODEL 8
REMARK VINA RESULT:      -5.3     12.904     13.914
REMARK  6 active torsions:
REMARK  status: ('A' for Active; 'I' for Inactive)
REMARK       I    between atoms: C_6  and  N_9 
REMARK    1  A    between atoms: C_6  and  C_10 
REMARK       I    between atoms: C_7  and  N_8 
REMARK    2  A    between atoms: C_7  and  C_15 
REMARK    3  A    between atoms: N_9  and  C_14 
REMARK    4  A    between atoms: C_10  and  N_16 
REMARK    5  A    between atoms: C_14  and  C_15 
REMARK    6  A    between atoms: C_14  and  C_18 
ROOT
HETATM    1  C           1     -36.100  -0.162 -11.916  0.00  0.00     0.194 C 
ENDROOT
BRANCH   1   2
HETATM    2  N           1     -36.432  -0.034 -13.321  0.00  0.00    -0.345 N 
HETATM    3  H           1     -37.263  -0.482 -13.687  0.00  0.00     0.163 HD
HETATM    4  C           1     -35.621   0.689 -14.153  0.00  0.00     0.243 C 
HETATM    5  O           1     -34.630   1.223 -13.716  0.00  0.00    -0.272 OA
BRANCH   4   6
HETATM    6  C           1     -35.967   0.821 -15.616  0.00  0.00     0.332 C 
BRANCH   6   7
HETATM    7  N           1     -37.432   1.109 -15.761  0.00  0.00    -0.071 N 
HETATM    8  H           1     -37.870   1.168 -14.814  0.00  0.00     0.274 HD
HETATM    9  H           1     -37.560   2.017 -16.262  0.00  0.00     0.274 HD
HETATM   10  H           1     -37.886   0.343 -16.307  0.00  0.00     0.274 HD
ENDBRANCH   6   7
ENDBRANCH   4   6
ENDBRANCH   1   2
BRANCH   1  11
HETATM   11  C           1     -37.382  -0.233 -11.096  0.00  0.00     0.138 C 
BRANCH  11  12
HETATM   12  C           1     -37.216   0.573  -9.831  0.00  0.00     0.217 C 
HETATM   13  O           1     -37.902   1.549  -9.643  0.00  0.00    -0.274 OA
HETATM   14  N           1     -36.289   0.197  -8.896  0.00  0.00    -0.370 N 
HETATM   15  H           1     -35.715  -0.621  -9.054  0.00  0.00     0.159 HD
HETATM   16  H           1     -36.178   0.737  -8.048  0.00  0.00     0.159 HD
ENDBRANCH  11  12
ENDBRANCH   1  11
BRANCH   1  17
HETATM   17  C           1     -35.296  -1.420 -11.701  0.00  0.00     0.197 C 
HETATM   18  O           1     -34.365  -1.432 -10.866  0.00  0.00    -0.646 OA
HETATM   19  O           1     -35.560  -2.451 -12.357  0.00  0.00    -0.646 OA
ENDBRANCH   1  17
TORSDOF 6
ENDMDL
MODEL 9
REMARK VINA RESULT:      -4.9     11.138     12.432
REMARK  6 active torsions:
REMARK  status: ('A' for Active; 'I' for Inactive)
REMARK       I    between atoms: C_6  and  N_9 
REMARK    1  A    between atoms: C_6  and  C_10 
REMARK       I    between atoms: C_7  and  N_8 
REMARK    2  A    between atoms: C_7  and  C_15 
REMARK    3  A    between atoms: N_9  and  C_14 
REMARK    4  A    between atoms: C_10  and  N_16 
REMARK    5  A    between atoms: C_14  and  C_15 
REMARK    6  A    between atoms: C_14  and  C_18 
ROOT
HETATM    1  C           1     -34.459  -4.403 -11.978  0.00  0.00     0.194 C 
ENDROOT
BRANCH   1   2
HETATM    2  N           1     -34.198  -5.825 -11.875  0.00  0.00    -0.345 N 
HETATM    3  H           1     -33.756  -6.315 -12.641  0.00  0.00     0.163 HD
HETATM    4  C           1     -34.554  -6.506 -10.742  0.00  0.00     0.243 C 
HETATM    5  O           1     -35.082  -5.921  -9.827  0.00  0.00    -0.272 OA
BRANCH   4   6
HETATM    6  C           1     -34.284  -7.987 -10.635  0.00  0.00     0.332 C 
BRANCH   6   7
HETATM    7  N           1     -34.442  -8.424  -9.209  0.00  0.00    -0.071 N 
HETATM    8  H           1     -33.555  -8.240  -8.688  0.00  0.00     0.274 HD
HETATM    9  H           1     -35.224  -7.889  -8.766  0.00  0.00     0.274 HD
HETATM   10  H           1     -34.658  -9.445  -9.178  0.00  0.00     0.274 HD
ENDBRANCH   6   7
ENDBRANCH   4   6
ENDBRANCH   1   2
BRANCH   1  11
HETATM   11  C           1     -33.331  -3.631 -11.305  0.00  0.00     0.138 C 
BRANCH  11  12
HETATM   12  C           1     -33.881  -2.363 -10.698  0.00  0.00     0.217 C 
HETATM   13  O           1     -33.126  -1.523 -10.270  0.00  0.00    -0.274 OA
HETATM   14  N           1     -35.234  -2.166 -10.631  0.00  0.00    -0.370 N 
HETATM   15  H           1     -35.866  -2.870 -10.989  0.00  0.00     0.159 HD
HETATM   16  H           1     -35.601  -1.316 -10.224  0.00  0.00     0.159 HD
ENDBRANCH  11  12
ENDBRANCH   1  11
BRANCH   1  17
HETATM   17  C           1     -34.540  -4.010 -13.432  0.00  0.00     0.197 C 
HETATM   18  O           1     -34.674  -4.890 -14.311  0.00  0.00    -0.646 OA
HETATM   19  O           1     -34.474  -2.805 -13.759  0.00  0.00    -0.646 OA
ENDBRANCH   1  17
TORSDOF 6
ENDMDL
