MODEL 1
REMARK VINA RESULT:      -5.6      0.000      0.000
REMARK  10 active torsions:
REMARK  status: ('A' for Active; 'I' for Inactive)
REMARK    1  A    between atoms: C_1  and  C_13 
REMARK    2  A    between atoms: C_1  and  S_10 
REMARK    3  A    between atoms: C_2  and  C_11 
REMARK    4  A    between atoms: C_2  and  C_20 
REMARK    5  A    between atoms: N_3  and  C_14 
REMARK    6  A    between atoms: Se_5  and  C_11 
REMARK    7  A    between atoms: N_6  and  C_20 
REMARK       I    between atoms: N_6  and  C_7 
REMARK    8  A    between atoms: C_7  and  C_14 
REMARK    9  A    between atoms: C_13  and  C_14 
REMARK   10  A    between atoms: C_19  and  C_20 
ROOT
HETATM    1  N           1     -22.122  -4.936  -8.964  0.00  0.00    -0.345 N 
HETATM    2  C           1     -21.669  -4.737  -7.689  0.00  0.00     0.249 C 
HETATM    3  O           1     -21.704  -3.633  -7.200  0.00  0.00    -0.271 OA
HETATM    4  H           1     -22.093  -5.861  -9.373  0.00  0.00     0.163 HD
ENDROOT
BRANCH   2   5
HETATM    5  C           1     -21.125  -5.897  -6.891  0.00  0.00     0.275 C 
BRANCH   5   6
HETATM    6  N           1     -19.739  -6.222  -7.364  0.00  0.00    -0.066 N 
HETATM    7  H           1     -19.179  -6.605  -6.569  0.00  0.00     0.275 HD
HETATM    8  H           1     -19.790  -6.933  -8.129  0.00  0.00     0.275 HD
HETATM    9  H           1     -19.282  -5.354  -7.726  0.00  0.00     0.275 HD
ENDBRANCH   5   6
BRANCH   5  10
HETATM   10  C           1     -21.083  -5.525  -5.416  0.00  0.00     0.053 C 
BRANCH  10  11
HETATM   11  C           1     -22.003  -6.449  -4.631  0.00  0.00     0.076 C 
BRANCH  11  12
HETATM   12  S           1     -21.025  -7.774  -3.867  0.00  0.00    -0.173 SA
HETATM   13  C           1     -21.242  -7.219  -2.153  0.00  0.00     0.089 C 
ENDBRANCH  11  12
ENDBRANCH  10  11
ENDBRANCH   5  10
ENDBRANCH   2   5
BRANCH   1  14
HETATM   14  C           1     -22.645  -3.821  -9.730  0.00  0.00     0.185 C 
BRANCH  14  15
HETATM   15  C           1     -22.175  -3.933 -11.174  0.00  0.00     0.036 C 
BRANCH  15  16
HETATM   16  C           1     -22.432  -2.617 -11.897  0.00  0.00     0.003 C 
BRANCH  16  17
HETATM   17 Se           1     -23.943  -2.826 -13.111  0.00  0.00     0.000 Se
HETATM   18  C           1     -22.882  -2.601 -14.731  0.00  0.00     0.000 C 
ENDBRANCH  16  17
ENDBRANCH  15  16
ENDBRANCH  14  15
BRANCH  14  19
HETATM   19  C           1     -24.153  -3.846  -9.688  0.00  0.00     0.196 C 
HETATM   20  O           1     -24.767  -4.912  -9.910  0.00  0.00    -0.646 OA
HETATM   21  O           1     -24.789  -2.800  -9.432  0.00  0.00    -0.646 OA
ENDBRANCH  14  19
ENDBRANCH   1  14
TORSDOF 10
ENDMDL
MODEL 2
REMARK VINA RESULT:      -5.1      2.273      2.944
REMARK  10 active torsions:
REMARK  status: ('A' for Active; 'I' for Inactive)
REMARK    1  A    between atoms: C_1  and  C_13 
REMARK    2  A    between atoms: C_1  and  S_10 
REMARK    3  A    between atoms: C_2  and  C_11 
REMARK    4  A    between atoms: C_2  and  C_20 
REMARK    5  A    between atoms: N_3  and  C_14 
REMARK    6  A    between atoms: Se_5  and  C_11 
REMARK    7  A    between atoms: N_6  and  C_20 
REMARK       I    between atoms: N_6  and  C_7 
REMARK    8  A    between atoms: C_7  and  C_14 
REMARK    9  A    between atoms: C_13  and  C_14 
REMARK   10  A    between atoms: C_19  and  C_20 
ROOT
HETATM    1  N           1     -21.763  -4.882  -7.124  0.00  0.00    -0.345 N 
HETATM    2  C           1     -21.362  -5.989  -6.425  0.00  0.00     0.249 C 
HETATM    3  O           1     -20.957  -6.962  -7.014  0.00  0.00    -0.271 OA
HETATM    4  H           1     -22.101  -4.066  -6.630  0.00  0.00     0.163 HD
ENDROOT
BRANCH   2   5
HETATM    5  C           1     -21.426  -5.992  -4.917  0.00  0.00     0.275 C 
BRANCH   5   6
HETATM    6  N           1     -22.847  -6.187  -4.477  0.00  0.00    -0.066 N 
HETATM    7  H           1     -23.491  -5.963  -5.269  0.00  0.00     0.275 HD
HETATM    8  H           1     -22.987  -7.180  -4.184  0.00  0.00     0.275 HD
HETATM    9  H           1     -23.052  -5.553  -3.671  0.00  0.00     0.275 HD
ENDBRANCH   5   6
BRANCH   5  10
HETATM   10  C           1     -20.568  -7.127  -4.375  0.00  0.00     0.053 C 
BRANCH  10  11
HETATM   11  C           1     -21.411  -8.014  -3.468  0.00  0.00     0.076 C 
BRANCH  11  12
HETATM   12  S           1     -20.763  -7.940  -1.774  0.00  0.00    -0.173 SA
HETATM   13  C           1     -22.171  -7.046  -1.060  0.00  0.00     0.089 C 
ENDBRANCH  11  12
ENDBRANCH  10  11
ENDBRANCH   5  10
ENDBRANCH   2   5
BRANCH   1  14
HETATM   14  C           1     -21.701  -4.878  -8.573  0.00  0.00     0.185 C 
BRANCH  14  15
HETATM   15  C           1     -22.788  -3.965  -9.124  0.00  0.00     0.036 C 
BRANCH  15  16
HETATM   16  C           1     -23.513  -4.666 -10.265  0.00  0.00     0.003 C 
BRANCH  16  17
HETATM   17 Se           1     -24.096  -3.347 -11.575  0.00  0.00     0.000 Se
HETATM   18  C           1     -22.328  -3.103 -12.359  0.00  0.00     0.000 C 
ENDBRANCH  16  17
ENDBRANCH  15  16
ENDBRANCH  14  15
BRANCH  14  19
HETATM   19  C           1     -20.349  -4.377  -9.016  0.00  0.00     0.196 C 
HETATM   20  O           1     -19.934  -4.632 -10.168  0.00  0.00    -0.646 OA
HETATM   21  O           1     -19.643  -3.706  -8.232  0.00  0.00    -0.646 OA
ENDBRANCH  14  19
ENDBRANCH   1  14
TORSDOF 10
ENDMDL
MODEL 3
REMARK VINA RESULT:      -5.1      3.227      4.658
REMARK  10 active torsions:
REMARK  status: ('A' for Active; 'I' for Inactive)
REMARK    1  A    between atoms: C_1  and  C_13 
REMARK    2  A    between atoms: C_1  and  S_10 
REMARK    3  A    between atoms: C_2  and  C_11 
REMARK    4  A    between atoms: C_2  and  C_20 
REMARK    5  A    between atoms: N_3  and  C_14 
REMARK    6  A    between atoms: Se_5  and  C_11 
REMARK    7  A    between atoms: N_6  and  C_20 
REMARK       I    between atoms: N_6  and  C_7 
REMARK    8  A    between atoms: C_7  and  C_14 
REMARK    9  A    between atoms: C_13  and  C_14 
REMARK   10  A    between atoms: C_19  and  C_20 
ROOT
HETATM    1  N           1     -21.045  -5.386  -5.082  0.00  0.00    -0.345 N 
HETATM    2  C           1     -21.472  -6.424  -4.299  0.00  0.00     0.249 C 
HETATM    3  O           1     -22.028  -7.371  -4.802  0.00  0.00    -0.271 OA
HETATM    4  H           1     -20.578  -4.593  -4.660  0.00  0.00     0.163 HD
ENDROOT
BRANCH   2   5
HETATM    5  C           1     -21.247  -6.387  -2.807  0.00  0.00     0.275 C 
BRANCH   5   6
HETATM    6  N           1     -22.477  -5.859  -2.130  0.00  0.00    -0.066 N 
HETATM    7  H           1     -22.491  -6.176  -1.134  0.00  0.00     0.275 HD
HETATM    8  H           1     -22.471  -4.814  -2.162  0.00  0.00     0.275 HD
HETATM    9  H           1     -23.327  -6.217  -2.622  0.00  0.00     0.275 HD
ENDBRANCH   5   6
BRANCH   5  10
HETATM   10  C           1     -20.954  -7.792  -2.301  0.00  0.00     0.053 C 
BRANCH  10  11
HETATM   11  C           1     -21.741  -8.048  -1.023  0.00  0.00     0.076 C 
BRANCH  11  12
HETATM   12  S           1     -21.554  -9.785  -0.532  0.00  0.00    -0.173 SA
HETATM   13  C           1     -23.317 -10.100  -0.238  0.00  0.00     0.089 C 
ENDBRANCH  11  12
ENDBRANCH  10  11
ENDBRANCH   5  10
ENDBRANCH   2   5
BRANCH   1  14
HETATM   14  C           1     -21.261  -5.422  -6.515  0.00  0.00     0.185 C 
BRANCH  14  15
HETATM   15  C           1     -21.808  -4.080  -6.980  0.00  0.00     0.036 C 
BRANCH  15  16
HETATM   16  C           1     -23.121  -4.294  -7.723  0.00  0.00     0.003 C 
BRANCH  16  17
HETATM   17 Se           1     -22.782  -4.341  -9.641  0.00  0.00     0.000 Se
HETATM   18  C           1     -24.458  -3.472 -10.125  0.00  0.00     0.000 C 
ENDBRANCH  16  17
ENDBRANCH  15  16
ENDBRANCH  14  15
BRANCH  14  19
HETATM   19  C           1     -19.952  -5.701  -7.213  0.00  0.00     0.196 C 
HETATM   20  O           1     -19.401  -4.806  -7.890  0.00  0.00    -0.646 OA
HETATM   21  O           1     -19.418  -6.827  -7.114  0.00  0.00    -0.646 OA
ENDBRANCH  14  19
ENDBRANCH   1  14
TORSDOF 10
ENDMDL
MODEL 4
REMARK VINA RESULT:      -5.0      2.686      7.799
REMARK  10 active torsions:
REMARK  status: ('A' for Active; 'I' for Inactive)
REMARK    1  A    between atoms: C_1  and  C_13 
REMARK    2  A    between atoms: C_1  and  S_10 
REMARK    3  A    between atoms: C_2  and  C_11 
REMARK    4  A    between atoms: C_2  and  C_20 
REMARK    5  A    between atoms: N_3  and  C_14 
REMARK    6  A    between atoms: Se_5  and  C_11 
REMARK    7  A    between atoms: N_6  and  C_20 
REMARK       I    between atoms: N_6  and  C_7 
REMARK    8  A    between atoms: C_7  and  C_14 
REMARK    9  A    between atoms: C_13  and  C_14 
REMARK   10  A    between atoms: C_19  and  C_20 
ROOT
HETATM    1  N           1     -21.451  -6.359  -6.349  0.00  0.00    -0.345 N 
HETATM    2  C           1     -21.136  -5.135  -6.876  0.00  0.00     0.249 C 
HETATM    3  O           1     -20.410  -4.384  -6.268  0.00  0.00    -0.271 OA
HETATM    4  H           1     -22.058  -6.988  -6.859  0.00  0.00     0.163 HD
ENDROOT
BRANCH   2   5
HETATM    5  C           1     -21.694  -4.724  -8.216  0.00  0.00     0.275 C 
BRANCH   5   6
HETATM    6  N           1     -22.876  -3.823  -8.010  0.00  0.00    -0.066 N 
HETATM    7  H           1     -23.705  -4.393  -7.726  0.00  0.00     0.275 HD
HETATM    8  H           1     -22.657  -3.128  -7.260  0.00  0.00     0.275 HD
HETATM    9  H           1     -23.088  -3.318  -8.900  0.00  0.00     0.275 HD
ENDBRANCH   5   6
BRANCH   5  10
HETATM   10  C           1     -20.625  -3.984  -9.007  0.00  0.00     0.053 C 
BRANCH  10  11
HETATM   11  C           1     -20.654  -4.445 -10.458  0.00  0.00     0.076 C 
BRANCH  11  12
HETATM   12  S           1     -21.599  -3.257 -11.453  0.00  0.00    -0.173 SA
HETATM   13  C           1     -23.043  -4.324 -11.719  0.00  0.00     0.089 C 
ENDBRANCH  11  12
ENDBRANCH  10  11
ENDBRANCH   5  10
ENDBRANCH   2   5
BRANCH   1  14
HETATM   14  C           1     -20.914  -6.754  -5.061  0.00  0.00     0.185 C 
BRANCH  14  15
HETATM   15  C           1     -22.004  -6.649  -4.004  0.00  0.00     0.036 C 
BRANCH  15  16
HETATM   16  C           1     -21.420  -6.058  -2.727  0.00  0.00     0.003 C 
BRANCH  16  17
HETATM   17 Se           1     -22.216  -6.937  -1.180  0.00  0.00     0.000 Se
HETATM   18  C           1     -20.864  -8.337  -1.075  0.00  0.00     0.000 C 
ENDBRANCH  16  17
ENDBRANCH  15  16
ENDBRANCH  14  15
BRANCH  14  19
HETATM   19  C           1     -20.422  -8.178  -5.138  0.00  0.00     0.196 C 
HETATM   20  O           1     -19.315  -8.431  -5.660  0.00  0.00    -0.646 OA
HETATM   21  O           1     -21.123  -9.107  -4.679  0.00  0.00    -0.646 OA
ENDBRANCH  14  19
ENDBRANCH   1  14
TORSDOF 10
ENDMDL
MODEL 5
REMARK VINA RESULT:      -4.9      3.007      7.723
REMARK  10 active torsions:
REMARK  status: ('A' for Active; 'I' for Inactive)
REMARK    1  A    between atoms: C_1  and  C_13 
REMARK    2  A    between atoms: C_1  and  S_10 
REMARK    3  A    between atoms: C_2  and  C_11 
REMARK    4  A    between atoms: C_2  and  C_20 
REMARK    5  A    between atoms: N_3  and  C_14 
REMARK    6  A    between atoms: Se_5  and  C_11 
REMARK    7  A    between atoms: N_6  and  C_20 
REMARK       I    between atoms: N_6  and  C_7 
REMARK    8  A    between atoms: C_7  and  C_14 
REMARK    9  A    between atoms: C_13  and  C_14 
REMARK   10  A    between atoms: C_19  and  C_20 
ROOT
HETATM    1  N           1     -20.812  -6.480  -4.970  0.00  0.00    -0.345 N 
HETATM    2  C           1     -21.443  -5.587  -5.794  0.00  0.00     0.249 C 
HETATM    3  O           1     -22.649  -5.533  -5.815  0.00  0.00    -0.271 OA
HETATM    4  H           1     -19.801  -6.524  -4.951  0.00  0.00     0.163 HD
ENDROOT
BRANCH   2   5
HETATM    5  C           1     -20.631  -4.669  -6.675  0.00  0.00     0.275 C 
BRANCH   5   6
HETATM    6  N           1     -19.963  -5.473  -7.751  0.00  0.00    -0.066 N 
HETATM    7  H           1     -19.563  -4.829  -8.471  0.00  0.00     0.275 HD
HETATM    8  H           1     -19.196  -6.047  -7.332  0.00  0.00     0.275 HD
HETATM    9  H           1     -20.665  -6.104  -8.201  0.00  0.00     0.275 HD
ENDBRANCH   5   6
BRANCH   5  10
HETATM   10  C           1     -21.547  -3.633  -7.310  0.00  0.00     0.053 C 
BRANCH  10  11
HETATM   11  C           1     -21.821  -4.016  -8.758  0.00  0.00     0.076 C 
BRANCH  11  12
HETATM   12  S           1     -23.608  -3.968  -9.071  0.00  0.00    -0.173 SA
HETATM   13  C           1     -23.561  -4.880 -10.639  0.00  0.00     0.089 C 
ENDBRANCH  11  12
ENDBRANCH  10  11
ENDBRANCH   5  10
ENDBRANCH   2   5
BRANCH   1  14
HETATM   14  C           1     -21.592  -7.361  -4.123  0.00  0.00     0.185 C 
BRANCH  14  15
HETATM   15  C           1     -20.964  -8.748  -4.119  0.00  0.00     0.036 C 
BRANCH  15  16
HETATM   16  C           1     -19.632  -8.706  -4.857  0.00  0.00     0.003 C 
BRANCH  16  17
HETATM   17 Se           1     -18.247  -9.515  -3.750  0.00  0.00     0.000 Se
HETATM   18  C           1     -19.498 -10.430  -2.568  0.00  0.00     0.000 C 
ENDBRANCH  16  17
ENDBRANCH  15  16
ENDBRANCH  14  15
BRANCH  14  19
HETATM   19  C           1     -21.616  -6.815  -2.717  0.00  0.00     0.196 C 
HETATM   20  O           1     -22.417  -5.905  -2.412  0.00  0.00    -0.646 OA
HETATM   21  O           1     -20.834  -7.272  -1.855  0.00  0.00    -0.646 OA
ENDBRANCH  14  19
ENDBRANCH   1  14
TORSDOF 10
ENDMDL
MODEL 6
REMARK VINA RESULT:      -4.6      3.614      8.661
REMARK  10 active torsions:
REMARK  status: ('A' for Active; 'I' for Inactive)
REMARK    1  A    between atoms: C_1  and  C_13 
REMARK    2  A    between atoms: C_1  and  S_10 
REMARK    3  A    between atoms: C_2  and  C_11 
REMARK    4  A    between atoms: C_2  and  C_20 
REMARK    5  A    between atoms: N_3  and  C_14 
REMARK    6  A    between atoms: Se_5  and  C_11 
REMARK    7  A    between atoms: N_6  and  C_20 
REMARK       I    between atoms: N_6  and  C_7 
REMARK    8  A    between atoms: C_7  and  C_14 
REMARK    9  A    between atoms: C_13  and  C_14 
REMARK   10  A    between atoms: C_19  and  C_20 
ROOT
HETATM    1  N           1     -20.881  -6.783  -3.418  0.00  0.00    -0.345 N 
HETATM    2  C           1     -21.284  -6.885  -4.722  0.00  0.00     0.249 C 
HETATM    3  O           1     -22.108  -7.710  -5.038  0.00  0.00    -0.271 OA
HETATM    4  H           1     -20.191  -6.092  -3.154  0.00  0.00     0.163 HD
ENDROOT
BRANCH   2   5
HETATM    5  C           1     -20.699  -5.966  -5.767  0.00  0.00     0.275 C 
BRANCH   5   6
HETATM    6  N           1     -19.891  -6.769  -6.743  0.00  0.00    -0.066 N 
HETATM    7  H           1     -19.234  -6.138  -7.255  0.00  0.00     0.275 HD
HETATM    8  H           1     -19.345  -7.496  -6.227  0.00  0.00     0.275 HD
HETATM    9  H           1     -20.532  -7.234  -7.426  0.00  0.00     0.275 HD
ENDBRANCH   5   6
BRANCH   5  10
HETATM   10  C           1     -21.824  -5.254  -6.505  0.00  0.00     0.053 C 
BRANCH  10  11
HETATM   11  C           1     -21.270  -4.024  -7.212  0.00  0.00     0.076 C 
BRANCH  11  12
HETATM   12  S           1     -21.464  -4.218  -9.006  0.00  0.00    -0.173 SA
HETATM   13  C           1     -23.237  -3.837  -9.058  0.00  0.00     0.089 C 
ENDBRANCH  11  12
ENDBRANCH  10  11
ENDBRANCH   5  10
ENDBRANCH   2   5
BRANCH   1  14
HETATM   14  C           1     -21.444  -7.666  -2.415  0.00  0.00     0.185 C 
BRANCH  14  15
HETATM   15  C           1     -20.319  -8.402  -1.699  0.00  0.00     0.036 C 
BRANCH  15  16
HETATM   16  C           1     -19.965  -9.666  -2.472  0.00  0.00     0.003 C 
BRANCH  16  17
HETATM   17 Se           1     -20.712 -11.218  -1.560  0.00  0.00     0.000 Se
HETATM   18  C           1     -20.845 -10.339   0.174  0.00  0.00     0.000 C 
ENDBRANCH  16  17
ENDBRANCH  15  16
ENDBRANCH  14  15
BRANCH  14  19
HETATM   19  C           1     -22.229  -6.854  -1.415  0.00  0.00     0.196 C 
HETATM   20  O           1     -22.688  -7.399  -0.388  0.00  0.00    -0.646 OA
HETATM   21  O           1     -22.422  -5.634  -1.614  0.00  0.00    -0.646 OA
ENDBRANCH  14  19
ENDBRANCH   1  14
TORSDOF 10
ENDMDL
MODEL 7
REMARK VINA RESULT:      -4.6      4.984      9.057
REMARK  10 active torsions:
REMARK  status: ('A' for Active; 'I' for Inactive)
REMARK    1  A    between atoms: C_1  and  C_13 
REMARK    2  A    between atoms: C_1  and  S_10 
REMARK    3  A    between atoms: C_2  and  C_11 
REMARK    4  A    between atoms: C_2  and  C_20 
REMARK    5  A    between atoms: N_3  and  C_14 
REMARK    6  A    between atoms: Se_5  and  C_11 
REMARK    7  A    between atoms: N_6  and  C_20 
REMARK       I    between atoms: N_6  and  C_7 
REMARK    8  A    between atoms: C_7  and  C_14 
REMARK    9  A    between atoms: C_13  and  C_14 
REMARK   10  A    between atoms: C_19  and  C_20 
ROOT
HETATM    1  N           1     -20.838  -7.991  -2.576  0.00  0.00    -0.345 N 
HETATM    2  C           1     -20.997  -8.236  -3.913  0.00  0.00     0.249 C 
HETATM    3  O           1     -21.926  -8.905  -4.298  0.00  0.00    -0.271 OA
HETATM    4  H           1     -20.059  -7.430  -2.254  0.00  0.00     0.163 HD
ENDROOT
BRANCH   2   5
HETATM    5  C           1     -20.012  -7.671  -4.907  0.00  0.00     0.275 C 
BRANCH   5   6
HETATM    6  N           1     -19.342  -8.795  -5.641  0.00  0.00    -0.066 N 
HETATM    7  H           1     -20.000  -9.189  -6.353  0.00  0.00     0.275 HD
HETATM    8  H           1     -18.485  -8.436  -6.119  0.00  0.00     0.275 HD
HETATM    9  H           1     -19.075  -9.544  -4.962  0.00  0.00     0.275 HD
ENDBRANCH   5   6
BRANCH   5  10
HETATM   10  C           1     -20.747  -6.783  -5.902  0.00  0.00     0.053 C 
BRANCH  10  11
HETATM   11  C           1     -20.730  -5.343  -5.408  0.00  0.00     0.076 C 
BRANCH  11  12
HETATM   12  S           1     -20.903  -4.215  -6.819  0.00  0.00    -0.173 SA
HETATM   13  C           1     -20.162  -5.322  -8.051  0.00  0.00     0.089 C 
ENDBRANCH  11  12
ENDBRANCH  10  11
ENDBRANCH   5  10
ENDBRANCH   2   5
BRANCH   1  14
HETATM   14  C           1     -21.784  -8.534  -1.621  0.00  0.00     0.185 C 
BRANCH  14  15
HETATM   15  C           1     -21.059  -9.473  -0.667  0.00  0.00     0.036 C 
BRANCH  15  16
HETATM   16  C           1     -21.245 -10.913  -1.131  0.00  0.00     0.003 C 
BRANCH  16  17
HETATM   17 Se           1     -23.054 -11.147  -1.816  0.00  0.00     0.000 Se
HETATM   18  C           1     -23.903 -11.077  -0.063  0.00  0.00     0.000 C 
ENDBRANCH  16  17
ENDBRANCH  15  16
ENDBRANCH  14  15
BRANCH  14  19
HETATM   19  C           1     -22.410  -7.406  -0.838  0.00  0.00     0.196 C 
HETATM   20  O           1     -22.903  -7.625   0.290  0.00  0.00    -0.646 OA
HETATM   21  O           1     -22.436  -6.251  -1.318  0.00  0.00    -0.646 OA
ENDBRANCH  14  19
ENDBRANCH   1  14
TORSDOF 10
ENDMDL
MODEL 8
REMARK VINA RESULT:      -4.5      3.776      7.998
REMARK  10 active torsions:
REMARK  status: ('A' for Active; 'I' for Inactive)
REMARK    1  A    between atoms: C_1  and  C_13 
REMARK    2  A    between atoms: C_1  and  S_10 
REMARK    3  A    between atoms: C_2  and  C_11 
REMARK    4  A    between atoms: C_2  and  C_20 
REMARK    5  A    between atoms: N_3  and  C_14 
REMARK    6  A    between atoms: Se_5  and  C_11 
REMARK    7  A    between atoms: N_6  and  C_20 
REMARK       I    between atoms: N_6  and  C_7 
REMARK    8  A    between atoms: C_7  and  C_14 
REMARK    9  A    between atoms: C_13  and  C_14 
REMARK   10  A    between atoms: C_19  and  C_20 
ROOT
HETATM    1  N           1     -20.723  -7.789  -4.895  0.00  0.00    -0.345 N 
HETATM    2  C           1     -20.434  -6.946  -5.934  0.00  0.00     0.249 C 
HETATM    3  O           1     -19.388  -7.057  -6.529  0.00  0.00    -0.271 OA
HETATM    4  H           1     -21.599  -7.696  -4.397  0.00  0.00     0.163 HD
ENDROOT
BRANCH   2   5
HETATM    5  C           1     -21.421  -5.878  -6.336  0.00  0.00     0.275 C 
BRANCH   5   6
HETATM    6  N           1     -22.544  -5.836  -5.343  0.00  0.00    -0.066 N 
HETATM    7  H           1     -22.336  -6.487  -4.552  0.00  0.00     0.275 HD
HETATM    8  H           1     -22.648  -4.863  -4.976  0.00  0.00     0.275 HD
HETATM    9  H           1     -23.433  -6.129  -5.810  0.00  0.00     0.275 HD
ENDBRANCH   5   6
BRANCH   5  10
HETATM   10  C           1     -20.722  -4.526  -6.367  0.00  0.00     0.053 C 
BRANCH  10  11
HETATM   11  C           1     -21.437  -3.605  -7.347  0.00  0.00     0.076 C 
BRANCH  11  12
HETATM   12  S           1     -21.851  -4.527  -8.854  0.00  0.00    -0.173 SA
HETATM   13  C           1     -23.591  -4.018  -8.928  0.00  0.00     0.089 C 
ENDBRANCH  11  12
ENDBRANCH  10  11
ENDBRANCH   5  10
ENDBRANCH   2   5
BRANCH   1  14
HETATM   14  C           1     -19.775  -8.816  -4.508  0.00  0.00     0.185 C 
BRANCH  14  15
HETATM   15  C           1     -19.784  -8.970  -2.993  0.00  0.00     0.036 C 
BRANCH  15  16
HETATM   16  C           1     -21.223  -9.023  -2.496  0.00  0.00     0.003 C 
BRANCH  16  17
HETATM   17 Se           1     -21.391  -7.951  -0.877  0.00  0.00     0.000 Se
HETATM   18  C           1     -22.194  -6.420  -1.777  0.00  0.00     0.000 C 
ENDBRANCH  16  17
ENDBRANCH  15  16
ENDBRANCH  14  15
BRANCH  14  19
HETATM   19  C           1     -20.164 -10.125  -5.150  0.00  0.00     0.196 C 
HETATM   20  O           1     -21.074 -10.157  -6.005  0.00  0.00    -0.646 OA
HETATM   21  O           1     -19.574 -11.179  -4.825  0.00  0.00    -0.646 OA
ENDBRANCH  14  19
ENDBRANCH   1  14
TORSDOF 10
ENDMDL
MODEL 9
REMARK VINA RESULT:      -4.3      5.879      9.895
REMARK  10 active torsions:
REMARK  status: ('A' for Active; 'I' for Inactive)
REMARK    1  A    between atoms: C_1  and  C_13 
REMARK    2  A    between atoms: C_1  and  S_10 
REMARK    3  A    between atoms: C_2  and  C_11 
REMARK    4  A    between atoms: C_2  and  C_20 
REMARK    5  A    between atoms: N_3  and  C_14 
REMARK    6  A    between atoms: Se_5  and  C_11 
REMARK    7  A    between atoms: N_6  and  C_20 
REMARK       I    between atoms: N_6  and  C_7 
REMARK    8  A    between atoms: C_7  and  C_14 
REMARK    9  A    between atoms: C_13  and  C_14 
REMARK   10  A    between atoms: C_19  and  C_20 
ROOT
HETATM    1  N           1     -21.887  -9.067  -1.539  0.00  0.00    -0.345 N 
HETATM    2  C           1     -21.655  -7.816  -2.042  0.00  0.00     0.249 C 
HETATM    3  O           1     -21.945  -6.840  -1.393  0.00  0.00    -0.271 OA
HETATM    4  H           1     -21.643  -9.885  -2.082  0.00  0.00     0.163 HD
ENDROOT
BRANCH   2   5
HETATM    5  C           1     -21.036  -7.656  -3.410  0.00  0.00     0.275 C 
BRANCH   5   6
HETATM    6  N           1     -21.597  -8.694  -4.336  0.00  0.00    -0.066 N 
HETATM    7  H           1     -22.627  -8.551  -4.439  0.00  0.00     0.275 HD
HETATM    8  H           1     -21.139  -8.608  -5.272  0.00  0.00     0.275 HD
HETATM    9  H           1     -21.414  -9.645  -3.945  0.00  0.00     0.275 HD
ENDBRANCH   5   6
BRANCH   5  10
HETATM   10  C           1     -21.353  -6.269  -3.952  0.00  0.00     0.053 C 
BRANCH  10  11
HETATM   11  C           1     -22.260  -6.393  -5.168  0.00  0.00     0.076 C 
BRANCH  11  12
HETATM   12  S           1     -21.638  -5.327  -6.500  0.00  0.00    -0.173 SA
HETATM   13  C           1     -20.180  -4.721  -5.605  0.00  0.00     0.089 C 
ENDBRANCH  11  12
ENDBRANCH  10  11
ENDBRANCH   5  10
ENDBRANCH   2   5
BRANCH   1  14
HETATM   14  C           1     -22.481  -9.221  -0.225  0.00  0.00     0.185 C 
BRANCH  14  15
HETATM   15  C           1     -23.469 -10.379  -0.248  0.00  0.00     0.036 C 
BRANCH  15  16
HETATM   16  C           1     -23.437 -11.049  -1.615  0.00  0.00     0.003 C 
BRANCH  16  17
HETATM   17 Se           1     -23.044 -12.946  -1.401  0.00  0.00     0.000 Se
HETATM   18  C           1     -22.182 -13.131  -3.139  0.00  0.00     0.000 C 
ENDBRANCH  16  17
ENDBRANCH  15  16
ENDBRANCH  14  15
BRANCH  14  19
HETATM   19  C           1     -21.397  -9.504   0.786  0.00  0.00     0.196 C 
HETATM   20  O           1     -21.010  -8.601   1.558  0.00  0.00    -0.646 OA
HETATM   21  O           1     -20.886 -10.644   0.852  0.00  0.00    -0.646 OA
ENDBRANCH  14  19
ENDBRANCH   1  14
TORSDOF 10
ENDMDL
