MODEL 1
REMARK VINA RESULT:      -6.2      0.000      0.000
REMARK  8 active torsions:
REMARK  status: ('A' for Active; 'I' for Inactive)
REMARK    1  A    between atoms: C_2  and  C_3 
REMARK    2  A    between atoms: C_2  and  N_6 
REMARK       I    between atoms: N_6  and  C_7 
REMARK    3  A    between atoms: C_7  and  C_8 
REMARK    4  A    between atoms: C_8  and  C_9 
REMARK    5  A    between atoms: C_8  and  N_15 
REMARK    6  A    between atoms: C_9  and  O_10 
REMARK    7  A    between atoms: O_10  and  P_11 
REMARK    8  A    between atoms: P_11  and  O_12 
ROOT
HETATM    1  C           1     -23.906  -4.384 -10.650  0.00  0.00     0.298 C 
ENDROOT
BRANCH   1   2
HETATM    2  C           1     -22.580  -4.584  -9.958  0.00  0.00     0.251 C 
HETATM    3  N           1     -22.537  -4.767  -8.602  0.00  0.00    -0.345 N 
HETATM    4  H           1     -23.393  -4.769  -8.064  0.00  0.00     0.163 HD
HETATM    5  O           1     -21.557  -4.582 -10.600  0.00  0.00    -0.271 OA
BRANCH   3   6
HETATM    6  C           1     -21.262  -4.960  -7.937  0.00  0.00     0.181 C 
HETATM    7  C           1     -20.730  -3.614  -7.461  0.00  0.00     0.043 C 
BRANCH   6   8
HETATM    8  C           1     -21.447  -5.875  -6.752  0.00  0.00     0.196 C 
HETATM    9  O           1     -20.840  -6.966  -6.704  0.00  0.00    -0.646 OA
HETATM   10  O           1     -22.209  -5.542  -5.818  0.00  0.00    -0.646 OA
ENDBRANCH   6   8
ENDBRANCH   3   6
ENDBRANCH   1   2
BRANCH   1  11
HETATM   11  C           1     -23.958  -2.988 -11.255  0.00  0.00     0.224 C 
BRANCH  11  12
HETATM   12  O           1     -24.602  -3.039 -12.499  0.00  0.00    -0.287 OA
BRANCH  12  13
HETATM   13  P           1     -23.642  -3.000 -13.796  0.00  0.00     0.406 P 
HETATM   14  O           1     -23.768  -1.685 -14.464  0.00  0.00    -0.624 OA
HETATM   15  O           1     -24.038  -4.072 -14.736  0.00  0.00    -0.624 OA
BRANCH  13  16
HETATM   16  O           1     -22.109  -3.224 -13.340  0.00  0.00    -0.300 OA
HETATM   17  H           1     -22.158  -3.791 -12.589  0.00  0.00     0.223 HD
ENDBRANCH  13  16
ENDBRANCH  12  13
ENDBRANCH  11  12
ENDBRANCH   1  11
BRANCH   1  18
HETATM   18  N           1     -25.017  -4.538  -9.654  0.00  0.00    -0.064 N 
HETATM   19  H           1     -25.896  -4.132 -10.046  0.00  0.00     0.275 HD
HETATM   20  H           1     -25.164  -5.552  -9.449  0.00  0.00     0.275 HD
HETATM   21  H           1     -24.766  -4.037  -8.772  0.00  0.00     0.275 HD
ENDBRANCH   1  18
TORSDOF 8
ENDMDL
MODEL 2
REMARK VINA RESULT:      -6.0      1.539      1.976
REMARK  8 active torsions:
REMARK  status: ('A' for Active; 'I' for Inactive)
REMARK    1  A    between atoms: C_2  and  C_3 
REMARK    2  A    between atoms: C_2  and  N_6 
REMARK       I    between atoms: N_6  and  C_7 
REMARK    3  A    between atoms: C_7  and  C_8 
REMARK    4  A    between atoms: C_8  and  C_9 
REMARK    5  A    between atoms: C_8  and  N_15 
REMARK    6  A    between atoms: C_9  and  O_10 
REMARK    7  A    between atoms: O_10  and  P_11 
REMARK    8  A    between atoms: P_11  and  O_12 
ROOT
HETATM    1  C           1     -22.794  -4.495  -9.352  0.00  0.00     0.298 C 
ENDROOT
BRANCH   1   2
HETATM    2  C           1     -21.615  -4.928  -8.516  0.00  0.00     0.251 C 
HETATM    3  N           1     -21.809  -5.361  -7.232  0.00  0.00    -0.345 N 
HETATM    4  H           1     -22.743  -5.390  -6.843  0.00  0.00     0.163 HD
HETATM    5  O           1     -20.500  -4.894  -8.980  0.00  0.00    -0.271 OA
BRANCH   3   6
HETATM    6  C           1     -20.676  -5.778  -6.428  0.00  0.00     0.181 C 
HETATM    7  C           1     -20.220  -4.617  -5.553  0.00  0.00     0.043 C 
BRANCH   6   8
HETATM    8  C           1     -21.081  -6.939  -5.554  0.00  0.00     0.196 C 
HETATM    9  O           1     -21.107  -8.097  -6.024  0.00  0.00    -0.646 OA
HETATM   10  O           1     -21.390  -6.743  -4.358  0.00  0.00    -0.646 OA
ENDBRANCH   6   8
ENDBRANCH   3   6
ENDBRANCH   1   2
BRANCH   1  11
HETATM   11  C           1     -22.321  -3.543 -10.443  0.00  0.00     0.224 C 
BRANCH  11  12
HETATM   12  O           1     -22.710  -4.036 -11.696  0.00  0.00    -0.287 OA
BRANCH  12  13
HETATM   13  P           1     -23.952  -3.283 -12.399  0.00  0.00     0.406 P 
HETATM   14  O           1     -25.039  -3.096 -11.413  0.00  0.00    -0.624 OA
HETATM   15  O           1     -24.446  -4.097 -13.532  0.00  0.00    -0.624 OA
BRANCH  13  16
HETATM   16  O           1     -23.469  -1.841 -12.945  0.00  0.00    -0.300 OA
HETATM   17  H           1     -24.210  -1.496 -13.413  0.00  0.00     0.223 HD
ENDBRANCH  13  16
ENDBRANCH  12  13
ENDBRANCH  11  12
ENDBRANCH   1  11
BRANCH   1  18
HETATM   18  N           1     -23.795  -3.796  -8.480  0.00  0.00    -0.064 N 
HETATM   19  H           1     -23.512  -2.798  -8.356  0.00  0.00     0.275 HD
HETATM   20  H           1     -24.737  -3.837  -8.929  0.00  0.00     0.275 HD
HETATM   21  H           1     -23.832  -4.266  -7.547  0.00  0.00     0.275 HD
ENDBRANCH   1  18
TORSDOF 8
ENDMDL
MODEL 3
REMARK VINA RESULT:      -6.0      2.493      3.255
REMARK  8 active torsions:
REMARK  status: ('A' for Active; 'I' for Inactive)
REMARK    1  A    between atoms: C_2  and  C_3 
REMARK    2  A    between atoms: C_2  and  N_6 
REMARK       I    between atoms: N_6  and  C_7 
REMARK    3  A    between atoms: C_7  and  C_8 
REMARK    4  A    between atoms: C_8  and  C_9 
REMARK    5  A    between atoms: C_8  and  N_15 
REMARK    6  A    between atoms: C_9  and  O_10 
REMARK    7  A    between atoms: O_10  and  P_11 
REMARK    8  A    between atoms: P_11  and  O_12 
ROOT
HETATM    1  C           1     -21.204  -3.281 -10.627  0.00  0.00     0.298 C 
ENDROOT
BRANCH   1   2
HETATM    2  C           1     -20.561  -4.327  -9.750  0.00  0.00     0.251 C 
HETATM    3  N           1     -20.877  -4.393  -8.420  0.00  0.00    -0.345 N 
HETATM    4  H           1     -21.542  -3.740  -8.025  0.00  0.00     0.163 HD
HETATM    5  O           1     -19.767  -5.106 -10.221  0.00  0.00    -0.271 OA
BRANCH   3   6
HETATM    6  C           1     -20.259  -5.398  -7.576  0.00  0.00     0.181 C 
HETATM    7  C           1     -19.207  -4.742  -6.693  0.00  0.00     0.043 C 
BRANCH   6   8
HETATM    8  C           1     -21.313  -6.043  -6.710  0.00  0.00     0.196 C 
HETATM    9  O           1     -21.223  -7.254  -6.412  0.00  0.00    -0.646 OA
HETATM   10  O           1     -22.277  -5.367  -6.290  0.00  0.00    -0.646 OA
ENDBRANCH   6   8
ENDBRANCH   3   6
ENDBRANCH   1   2
BRANCH   1  11
HETATM   11  C           1     -22.465  -3.854 -11.260  0.00  0.00     0.224 C 
BRANCH  11  12
HETATM   12  O           1     -23.575  -3.098 -10.861  0.00  0.00    -0.287 OA
BRANCH  12  13
HETATM   13  P           1     -24.544  -3.785  -9.769  0.00  0.00     0.406 P 
HETATM   14  O           1     -24.701  -5.223 -10.083  0.00  0.00    -0.624 OA
HETATM   15  O           1     -25.869  -3.125  -9.800  0.00  0.00    -0.624 OA
BRANCH  13  16
HETATM   16  O           1     -23.898  -3.625  -8.297  0.00  0.00    -0.300 OA
HETATM   17  H           1     -24.299  -4.301  -7.779  0.00  0.00     0.223 HD
ENDBRANCH  13  16
ENDBRANCH  12  13
ENDBRANCH  11  12
ENDBRANCH   1  11
BRANCH   1  18
HETATM   18  N           1     -20.244  -2.874 -11.706  0.00  0.00    -0.064 N 
HETATM   19  H           1     -20.722  -2.230 -12.374  0.00  0.00     0.275 HD
HETATM   20  H           1     -19.425  -2.386 -11.278  0.00  0.00     0.275 HD
HETATM   21  H           1     -19.914  -3.724 -12.217  0.00  0.00     0.275 HD
ENDBRANCH   1  18
TORSDOF 8
ENDMDL
MODEL 4
REMARK VINA RESULT:      -5.9      1.601      1.951
REMARK  8 active torsions:
REMARK  status: ('A' for Active; 'I' for Inactive)
REMARK    1  A    between atoms: C_2  and  C_3 
REMARK    2  A    between atoms: C_2  and  N_6 
REMARK       I    between atoms: N_6  and  C_7 
REMARK    3  A    between atoms: C_7  and  C_8 
REMARK    4  A    between atoms: C_8  and  C_9 
REMARK    5  A    between atoms: C_8  and  N_15 
REMARK    6  A    between atoms: C_9  and  O_10 
REMARK    7  A    between atoms: O_10  and  P_11 
REMARK    8  A    between atoms: P_11  and  O_12 
ROOT
HETATM    1  C           1     -21.400  -3.386 -10.636  0.00  0.00     0.298 C 
ENDROOT
BRANCH   1   2
HETATM    2  C           1     -20.988  -4.302  -9.510  0.00  0.00     0.251 C 
HETATM    3  N           1     -21.625  -4.226  -8.300  0.00  0.00    -0.345 N 
HETATM    4  H           1     -22.371  -3.557  -8.161  0.00  0.00     0.163 HD
HETATM    5  O           1     -20.098  -5.100  -9.675  0.00  0.00    -0.271 OA
BRANCH   3   6
HETATM    6  C           1     -21.229  -5.106  -7.217  0.00  0.00     0.181 C 
HETATM    7  C           1     -20.058  -4.489  -6.464  0.00  0.00     0.043 C 
BRANCH   6   8
HETATM    8  C           1     -22.391  -5.295  -6.273  0.00  0.00     0.196 C 
HETATM    9  O           1     -22.250  -5.977  -5.236  0.00  0.00    -0.646 OA
HETATM   10  O           1     -23.496  -4.768  -6.529  0.00  0.00    -0.646 OA
ENDBRANCH   6   8
ENDBRANCH   3   6
ENDBRANCH   1   2
BRANCH   1  11
HETATM   11  C           1     -22.728  -3.857 -11.215  0.00  0.00     0.224 C 
BRANCH  11  12
HETATM   12  O           1     -23.369  -2.786 -11.850  0.00  0.00    -0.287 OA
BRANCH  12  13
HETATM   13  P           1     -23.620  -2.949 -13.437  0.00  0.00     0.406 P 
HETATM   14  O           1     -24.263  -1.725 -13.964  0.00  0.00    -0.624 OA
HETATM   15  O           1     -24.499  -4.114 -13.680  0.00  0.00    -0.624 OA
BRANCH  13  16
HETATM   16  O           1     -22.206  -3.177 -14.184  0.00  0.00    -0.300 OA
HETATM   17  H           1     -21.553  -3.033 -13.521  0.00  0.00     0.223 HD
ENDBRANCH  13  16
ENDBRANCH  12  13
ENDBRANCH  11  12
ENDBRANCH   1  11
BRANCH   1  18
HETATM   18  N           1     -20.352  -3.410 -11.709  0.00  0.00    -0.064 N 
HETATM   19  H           1     -20.247  -2.453 -12.116  0.00  0.00     0.275 HD
HETATM   20  H           1     -19.441  -3.715 -11.298  0.00  0.00     0.275 HD
HETATM   21  H           1     -20.637  -4.078 -12.460  0.00  0.00     0.275 HD
ENDBRANCH   1  18
TORSDOF 8
ENDMDL
MODEL 5
REMARK VINA RESULT:      -5.9      1.580      2.316
REMARK  8 active torsions:
REMARK  status: ('A' for Active; 'I' for Inactive)
REMARK    1  A    between atoms: C_2  and  C_3 
REMARK    2  A    between atoms: C_2  and  N_6 
REMARK       I    between atoms: N_6  and  C_7 
REMARK    3  A    between atoms: C_7  and  C_8 
REMARK    4  A    between atoms: C_8  and  C_9 
REMARK    5  A    between atoms: C_8  and  N_15 
REMARK    6  A    between atoms: C_9  and  O_10 
REMARK    7  A    between atoms: O_10  and  P_11 
REMARK    8  A    between atoms: P_11  and  O_12 
ROOT
HETATM    1  C           1     -23.267  -4.185  -9.214  0.00  0.00     0.298 C 
ENDROOT
BRANCH   1   2
HETATM    2  C           1     -22.350  -4.206  -8.015  0.00  0.00     0.251 C 
HETATM    3  N           1     -22.174  -5.366  -7.309  0.00  0.00    -0.345 N 
HETATM    4  H           1     -22.658  -6.208  -7.590  0.00  0.00     0.163 HD
HETATM    5  O           1     -21.772  -3.201  -7.679  0.00  0.00    -0.271 OA
BRANCH   3   6
HETATM    6  C           1     -21.293  -5.387  -6.157  0.00  0.00     0.181 C 
HETATM    7  C           1     -21.885  -6.287  -5.081  0.00  0.00     0.043 C 
BRANCH   6   8
HETATM    8  C           1     -19.941  -5.915  -6.569  0.00  0.00     0.196 C 
HETATM    9  O           1     -19.089  -5.141  -7.056  0.00  0.00    -0.646 OA
HETATM   10  O           1     -19.673  -7.128  -6.422  0.00  0.00    -0.646 OA
ENDBRANCH   6   8
ENDBRANCH   3   6
ENDBRANCH   1   2
BRANCH   1  11
HETATM   11  C           1     -22.530  -3.591 -10.407  0.00  0.00     0.224 C 
BRANCH  11  12
HETATM   12  O           1     -22.921  -4.255 -11.577  0.00  0.00    -0.287 OA
BRANCH  12  13
HETATM   13  P           1     -23.852  -3.414 -12.592  0.00  0.00     0.406 P 
HETATM   14  O           1     -23.130  -2.199 -13.032  0.00  0.00    -0.624 OA
HETATM   15  O           1     -25.104  -3.024 -11.907  0.00  0.00    -0.624 OA
BRANCH  13  16
HETATM   16  O           1     -24.204  -4.324 -13.880  0.00  0.00    -0.300 OA
HETATM   17  H           1     -23.574  -5.023 -13.865  0.00  0.00     0.223 HD
ENDBRANCH  13  16
ENDBRANCH  12  13
ENDBRANCH  11  12
ENDBRANCH   1  11
BRANCH   1  18
HETATM   18  N           1     -24.473  -3.349  -8.905  0.00  0.00    -0.064 N 
HETATM   19  H           1     -24.820  -2.900  -9.782  0.00  0.00     0.275 HD
HETATM   20  H           1     -25.224  -3.955  -8.505  0.00  0.00     0.275 HD
HETATM   21  H           1     -24.217  -2.609  -8.213  0.00  0.00     0.275 HD
ENDBRANCH   1  18
TORSDOF 8
ENDMDL
MODEL 6
REMARK VINA RESULT:      -5.9      2.991      6.870
REMARK  8 active torsions:
REMARK  status: ('A' for Active; 'I' for Inactive)
REMARK    1  A    between atoms: C_2  and  C_3 
REMARK    2  A    between atoms: C_2  and  N_6 
REMARK       I    between atoms: N_6  and  C_7 
REMARK    3  A    between atoms: C_7  and  C_8 
REMARK    4  A    between atoms: C_8  and  C_9 
REMARK    5  A    between atoms: C_8  and  N_15 
REMARK    6  A    between atoms: C_9  and  O_10 
REMARK    7  A    between atoms: O_10  and  P_11 
REMARK    8  A    between atoms: P_11  and  O_12 
ROOT
HETATM    1  C           1     -20.890  -4.297 -10.916  0.00  0.00     0.298 C 
ENDROOT
BRANCH   1   2
HETATM    2  C           1     -22.152  -4.260 -11.742  0.00  0.00     0.251 C 
HETATM    3  N           1     -22.268  -3.369 -12.775  0.00  0.00    -0.345 N 
HETATM    4  H           1     -21.507  -2.735 -12.985  0.00  0.00     0.163 HD
HETATM    5  O           1     -23.060  -5.015 -11.492  0.00  0.00    -0.271 OA
BRANCH   3   6
HETATM    6  C           1     -23.481  -3.333 -13.570  0.00  0.00     0.181 C 
HETATM    7  C           1     -24.641  -2.862 -12.702  0.00  0.00     0.043 C 
BRANCH   6   8
HETATM    8  C           1     -23.297  -2.380 -14.725  0.00  0.00     0.196 C 
HETATM    9  O           1     -24.050  -1.389 -14.845  0.00  0.00    -0.646 OA
HETATM   10  O           1     -22.390  -2.581 -15.562  0.00  0.00    -0.646 OA
ENDBRANCH   6   8
ENDBRANCH   3   6
ENDBRANCH   1   2
BRANCH   1  11
HETATM   11  C           1     -21.244  -4.170  -9.441  0.00  0.00     0.224 C 
BRANCH  11  12
HETATM   12  O           1     -20.445  -5.042  -8.690  0.00  0.00    -0.287 OA
BRANCH  12  13
HETATM   13  P           1     -20.913  -5.299  -7.166  0.00  0.00     0.406 P 
HETATM   14  O           1     -19.973  -4.625  -6.241  0.00  0.00    -0.624 OA
HETATM   15  O           1     -20.921  -6.752  -6.890  0.00  0.00    -0.624 OA
BRANCH  13  16
HETATM   16  O           1     -22.398  -4.702  -6.951  0.00  0.00    -0.300 OA
HETATM   17  H           1     -22.486  -4.026  -7.601  0.00  0.00     0.223 HD
ENDBRANCH  13  16
ENDBRANCH  12  13
ENDBRANCH  11  12
ENDBRANCH   1  11
BRANCH   1  18
HETATM   18  N           1     -19.998  -3.158 -11.315  0.00  0.00    -0.064 N 
HETATM   19  H           1     -20.567  -2.288 -11.414  0.00  0.00     0.275 HD
HETATM   20  H           1     -19.268  -3.015 -10.581  0.00  0.00     0.275 HD
HETATM   21  H           1     -19.537  -3.379 -12.227  0.00  0.00     0.275 HD
ENDBRANCH   1  18
TORSDOF 8
ENDMDL
MODEL 7
REMARK VINA RESULT:      -5.8      1.795      2.286
REMARK  8 active torsions:
REMARK  status: ('A' for Active; 'I' for Inactive)
REMARK    1  A    between atoms: C_2  and  C_3 
REMARK    2  A    between atoms: C_2  and  N_6 
REMARK       I    between atoms: N_6  and  C_7 
REMARK    3  A    between atoms: C_7  and  C_8 
REMARK    4  A    between atoms: C_8  and  C_9 
REMARK    5  A    between atoms: C_8  and  N_15 
REMARK    6  A    between atoms: C_9  and  O_10 
REMARK    7  A    between atoms: O_10  and  P_11 
REMARK    8  A    between atoms: P_11  and  O_12 
ROOT
HETATM    1  C           1     -21.728  -3.365 -11.349  0.00  0.00     0.298 C 
ENDROOT
BRANCH   1   2
HETATM    2  C           1     -21.998  -4.222 -10.136  0.00  0.00     0.251 C 
HETATM    3  N           1     -21.010  -4.431  -9.212  0.00  0.00    -0.345 N 
HETATM    4  H           1     -20.098  -4.011  -9.342  0.00  0.00     0.163 HD
HETATM    5  O           1     -23.085  -4.724  -9.981  0.00  0.00    -0.271 OA
BRANCH   3   6
HETATM    6  C           1     -21.269  -5.255  -8.046  0.00  0.00     0.181 C 
HETATM    7  C           1     -19.952  -5.795  -7.505  0.00  0.00     0.043 C 
BRANCH   6   8
HETATM    8  C           1     -21.947  -4.424  -6.985  0.00  0.00     0.196 C 
HETATM    9  O           1     -23.030  -4.804  -6.491  0.00  0.00    -0.646 OA
HETATM   10  O           1     -21.425  -3.355  -6.600  0.00  0.00    -0.646 OA
ENDBRANCH   6   8
ENDBRANCH   3   6
ENDBRANCH   1   2
BRANCH   1  11
HETATM   11  C           1     -23.043  -3.046 -12.048  0.00  0.00     0.224 C 
BRANCH  11  12
HETATM   12  O           1     -22.830  -2.059 -13.019  0.00  0.00    -0.287 OA
BRANCH  12  13
HETATM   13  P           1     -23.427  -2.367 -14.486  0.00  0.00     0.406 P 
HETATM   14  O           1     -22.344  -2.272 -15.491  0.00  0.00    -0.624 OA
HETATM   15  O           1     -24.485  -1.383 -14.806  0.00  0.00    -0.624 OA
BRANCH  13  16
HETATM   16  O           1     -24.053  -3.856 -14.512  0.00  0.00    -0.300 OA
HETATM   17  H           1     -23.322  -4.431 -14.361  0.00  0.00     0.223 HD
ENDBRANCH  13  16
ENDBRANCH  12  13
ENDBRANCH  11  12
ENDBRANCH   1  11
BRANCH   1  18
HETATM   18  N           1     -20.828  -4.105 -12.293  0.00  0.00    -0.064 N 
HETATM   19  H           1     -20.725  -3.559 -13.177  0.00  0.00     0.275 HD
HETATM   20  H           1     -19.889  -4.232 -11.851  0.00  0.00     0.275 HD
HETATM   21  H           1     -21.241  -5.040 -12.508  0.00  0.00     0.275 HD
ENDBRANCH   1  18
TORSDOF 8
ENDMDL
MODEL 8
REMARK VINA RESULT:      -5.7      1.633      2.085
REMARK  8 active torsions:
REMARK  status: ('A' for Active; 'I' for Inactive)
REMARK    1  A    between atoms: C_2  and  C_3 
REMARK    2  A    between atoms: C_2  and  N_6 
REMARK       I    between atoms: N_6  and  C_7 
REMARK    3  A    between atoms: C_7  and  C_8 
REMARK    4  A    between atoms: C_8  and  C_9 
REMARK    5  A    between atoms: C_8  and  N_15 
REMARK    6  A    between atoms: C_9  and  O_10 
REMARK    7  A    between atoms: O_10  and  P_11 
REMARK    8  A    between atoms: P_11  and  O_12 
ROOT
HETATM    1  C           1     -22.793  -4.222 -10.857  0.00  0.00     0.298 C 
ENDROOT
BRANCH   1   2
HETATM    2  C           1     -22.633  -3.993  -9.373  0.00  0.00     0.251 C 
HETATM    3  N           1     -21.596  -4.580  -8.699  0.00  0.00    -0.345 N 
HETATM    4  H           1     -20.937  -5.167  -9.195  0.00  0.00     0.163 HD
HETATM    5  O           1     -23.419  -3.294  -8.781  0.00  0.00    -0.271 OA
BRANCH   3   6
HETATM    6  C           1     -21.442  -4.361  -7.273  0.00  0.00     0.181 C 
HETATM    7  C           1     -22.198  -5.440  -6.510  0.00  0.00     0.043 C 
BRANCH   6   8
HETATM    8  C           1     -19.978  -4.419  -6.912  0.00  0.00     0.196 C 
HETATM    9  O           1     -19.109  -4.260  -7.796  0.00  0.00    -0.646 OA
HETATM   10  O           1     -19.634  -4.628  -5.728  0.00  0.00    -0.646 OA
ENDBRANCH   6   8
ENDBRANCH   3   6
ENDBRANCH   1   2
BRANCH   1  11
HETATM   11  C           1     -22.846  -2.880 -11.574  0.00  0.00     0.224 C 
BRANCH  11  12
HETATM   12  O           1     -22.314  -3.016 -12.864  0.00  0.00    -0.287 OA
BRANCH  12  13
HETATM   13  P           1     -23.360  -2.851 -14.083  0.00  0.00     0.406 P 
HETATM   14  O           1     -24.286  -4.005 -14.099  0.00  0.00    -0.624 OA
HETATM   15  O           1     -22.620  -2.792 -15.363  0.00  0.00    -0.624 OA
BRANCH  13  16
HETATM   16  O           1     -24.204  -1.488 -13.887  0.00  0.00    -0.300 OA
HETATM   17  H           1     -23.595  -0.794 -14.074  0.00  0.00     0.223 HD
ENDBRANCH  13  16
ENDBRANCH  12  13
ENDBRANCH  11  12
ENDBRANCH   1  11
BRANCH   1  18
HETATM   18  N           1     -24.065  -4.974 -11.112  0.00  0.00    -0.064 N 
HETATM   19  H           1     -24.593  -5.082 -10.217  0.00  0.00     0.275 HD
HETATM   20  H           1     -24.650  -4.448 -11.799  0.00  0.00     0.275 HD
HETATM   21  H           1     -23.839  -5.919 -11.499  0.00  0.00     0.275 HD
ENDBRANCH   1  18
TORSDOF 8
ENDMDL
MODEL 9
REMARK VINA RESULT:      -5.5      2.909      6.651
REMARK  8 active torsions:
REMARK  status: ('A' for Active; 'I' for Inactive)
REMARK    1  A    between atoms: C_2  and  C_3 
REMARK    2  A    between atoms: C_2  and  N_6 
REMARK       I    between atoms: N_6  and  C_7 
REMARK    3  A    between atoms: C_7  and  C_8 
REMARK    4  A    between atoms: C_8  and  C_9 
REMARK    5  A    between atoms: C_8  and  N_15 
REMARK    6  A    between atoms: C_9  and  O_10 
REMARK    7  A    between atoms: O_10  and  P_11 
REMARK    8  A    between atoms: P_11  and  O_12 
ROOT
HETATM    1  C           1     -24.036  -3.594 -10.885  0.00  0.00     0.298 C 
ENDROOT
BRANCH   1   2
HETATM    2  C           1     -23.243  -2.880 -11.953  0.00  0.00     0.251 C 
HETATM    3  N           1     -23.842  -2.538 -13.136  0.00  0.00    -0.345 N 
HETATM    4  H           1     -24.815  -2.762 -13.294  0.00  0.00     0.163 HD
HETATM    5  O           1     -22.081  -2.613 -11.764  0.00  0.00    -0.271 OA
BRANCH   3   6
HETATM    6  C           1     -23.079  -1.853 -14.162  0.00  0.00     0.181 C 
HETATM    7  C           1     -22.596  -2.863 -15.194  0.00  0.00     0.043 C 
BRANCH   6   8
HETATM    8  C           1     -23.955  -0.825 -14.835  0.00  0.00     0.196 C 
HETATM    9  O           1     -23.447   0.031 -15.591  0.00  0.00    -0.646 OA
HETATM   10  O           1     -25.190  -0.829 -14.636  0.00  0.00    -0.646 OA
ENDBRANCH   6   8
ENDBRANCH   3   6
ENDBRANCH   1   2
BRANCH   1  11
HETATM   11  C           1     -23.465  -3.254  -9.515  0.00  0.00     0.224 C 
BRANCH  11  12
HETATM   12  O           1     -22.992  -4.421  -8.902  0.00  0.00    -0.287 OA
BRANCH  12  13
HETATM   13  P           1     -21.495  -4.351  -8.302  0.00  0.00     0.406 P 
HETATM   14  O           1     -21.123  -5.673  -7.749  0.00  0.00    -0.624 OA
HETATM   15  O           1     -21.439  -3.333  -7.231  0.00  0.00    -0.624 OA
BRANCH  13  16
HETATM   16  O           1     -20.462  -3.952  -9.478  0.00  0.00    -0.300 OA
HETATM   17  H           1     -20.445  -3.010  -9.479  0.00  0.00     0.223 HD
ENDBRANCH  13  16
ENDBRANCH  12  13
ENDBRANCH  11  12
ENDBRANCH   1  11
BRANCH   1  18
HETATM   18  N           1     -23.954  -5.075 -11.107  0.00  0.00    -0.064 N 
HETATM   19  H           1     -24.176  -5.291 -12.104  0.00  0.00     0.275 HD
HETATM   20  H           1     -22.989  -5.407 -10.885  0.00  0.00     0.275 HD
HETATM   21  H           1     -24.640  -5.559 -10.485  0.00  0.00     0.275 HD
ENDBRANCH   1  18
TORSDOF 8
ENDMDL
