MODEL 1
REMARK VINA RESULT:      -6.0      0.000      0.000
REMARK  8 active torsions:
REMARK  status: ('A' for Active; 'I' for Inactive)
REMARK    1  A    between atoms: C_1  and  C_17 
REMARK    2  A    between atoms: C_1  and  C_2 
REMARK    3  A    between atoms: N_8  and  C_17 
REMARK       I    between atoms: N_8  and  C_9 
REMARK    4  A    between atoms: C_9  and  C_18 
REMARK    5  A    between atoms: C_15  and  C_17 
REMARK    6  A    between atoms: C_18  and  C_19 
REMARK    7  A    between atoms: C_18  and  N_20 
REMARK    8  A    between atoms: C_19  and  S_23 
ROOT
HETATM    1  N           1     -37.183  -1.144  -9.907  0.00  0.00    -0.344 N 
HETATM    2  C           1     -37.276   0.158  -9.492  0.00  0.00     0.249 C 
HETATM    3  O           1     -37.676   1.008 -10.252  0.00  0.00    -0.271 OA
HETATM    4  H           1     -37.970  -1.769  -9.789  0.00  0.00     0.163 HD
ENDROOT
BRANCH   1   5
HETATM    5  C           1     -35.958  -1.625 -10.516  0.00  0.00     0.191 C 
BRANCH   5   6
HETATM    6  C           1     -36.031  -3.139 -10.671  0.00  0.00     0.094 C 
BRANCH   6   7
HETATM    7  C           1     -34.754  -3.641 -11.269  0.00  0.00     0.028 A 
HETATM    8  C           1     -34.663  -4.692 -12.150  0.00  0.00     0.114 A 
HETATM    9  N           1     -33.330  -4.803 -12.433  0.00  0.00    -0.360 N 
HETATM   10  C           1     -32.679  -3.832 -11.727  0.00  0.00     0.180 A 
HETATM   11  H           1     -32.888  -5.505 -13.076  0.00  0.00     0.166 HD
HETATM   12  N           1     -33.514  -3.113 -11.014  0.00  0.00    -0.354 N 
ATOM     13  HN          1     -33.289  -2.329 -10.402  1.00  0.00     0.166 HD
ENDBRANCH   6   7
ENDBRANCH   5   6
BRANCH   5  14
HETATM   14  C           1     -35.789  -0.988 -11.873  0.00  0.00     0.197 C 
HETATM   15  O           1     -36.669  -1.136 -12.748  0.00  0.00    -0.646 OA
HETATM   16  O           1     -34.767  -0.312 -12.124  0.00  0.00    -0.646 OA
ENDBRANCH   5  14
ENDBRANCH   1   5
BRANCH   2  17
HETATM   17  C           1     -36.876   0.532  -8.086  0.00  0.00     0.283 C 
BRANCH  17  18
HETATM   18  C           1     -37.808  -0.152  -7.094  0.00  0.00     0.113 C 
BRANCH  18  19
HETATM   19  S           1     -37.545   0.542  -5.437  0.00  0.00    -0.180 SA
HETATM   20  H           1     -37.089   1.735  -5.857  0.00  0.00     0.101 HD
ENDBRANCH  18  19
ENDBRANCH  17  18
BRANCH  17  21
HETATM   21  N           1     -36.971   2.018  -7.918  0.00  0.00    -0.066 N 
HETATM   22  H           1     -36.038   2.452  -8.110  0.00  0.00     0.275 HD
HETATM   23  H           1     -37.676   2.400  -8.587  0.00  0.00     0.275 HD
HETATM   24  H           1     -37.262   2.240  -6.938  0.00  0.00     0.275 HD
ENDBRANCH  17  21
ENDBRANCH   2  17
TORSDOF 8
ENDMDL
MODEL 2
REMARK VINA RESULT:      -5.7     12.269     14.137
REMARK  8 active torsions:
REMARK  status: ('A' for Active; 'I' for Inactive)
REMARK    1  A    between atoms: C_1  and  C_17 
REMARK    2  A    between atoms: C_1  and  C_2 
REMARK    3  A    between atoms: N_8  and  C_17 
REMARK       I    between atoms: N_8  and  C_9 
REMARK    4  A    between atoms: C_9  and  C_18 
REMARK    5  A    between atoms: C_15  and  C_17 
REMARK    6  A    between atoms: C_18  and  C_19 
REMARK    7  A    between atoms: C_18  and  N_20 
REMARK    8  A    between atoms: C_19  and  S_23 
ROOT
HETATM    1  N           1     -22.955  -4.006  -7.991  0.00  0.00    -0.344 N 
HETATM    2  C           1     -21.664  -3.931  -7.540  0.00  0.00     0.249 C 
HETATM    3  O           1     -21.294  -2.960  -6.925  0.00  0.00    -0.271 OA
HETATM    4  H           1     -23.671  -4.418  -7.407  0.00  0.00     0.163 HD
ENDROOT
BRANCH   1   5
HETATM    5  C           1     -23.296  -3.493  -9.304  0.00  0.00     0.191 C 
BRANCH   5   6
HETATM    6  C           1     -22.379  -4.122 -10.346  0.00  0.00     0.094 C 
BRANCH   6   7
HETATM    7  C           1     -22.827  -3.714 -11.715  0.00  0.00     0.028 A 
HETATM    8  C           1     -22.577  -2.490 -12.288  0.00  0.00     0.114 A 
HETATM    9  N           1     -23.159  -2.551 -13.523  0.00  0.00    -0.360 N 
HETATM   10  C           1     -23.729  -3.786 -13.647  0.00  0.00     0.180 A 
HETATM   11  H           1     -23.167  -1.789 -14.245  0.00  0.00     0.166 HD
HETATM   12  N           1     -23.544  -4.512 -12.570  0.00  0.00    -0.354 N 
ATOM     13  HN          1     -23.865  -5.466 -12.404  1.00  0.00     0.166 HD
ENDBRANCH   6   7
ENDBRANCH   5   6
BRANCH   5  14
HETATM   14  C           1     -24.730  -3.840  -9.621  0.00  0.00     0.197 C 
HETATM   15  O           1     -25.577  -2.932  -9.762  0.00  0.00    -0.646 OA
HETATM   16  O           1     -25.072  -5.037  -9.741  0.00  0.00    -0.646 OA
ENDBRANCH   5  14
ENDBRANCH   1   5
BRANCH   2  17
HETATM   17  C           1     -20.703  -5.062  -7.815  0.00  0.00     0.283 C 
BRANCH  17  18
HETATM   18  C           1     -21.088  -6.271  -6.973  0.00  0.00     0.113 C 
BRANCH  18  19
HETATM   19  S           1     -20.814  -5.899  -5.217  0.00  0.00    -0.180 SA
HETATM   20  H           1     -20.224  -4.708  -5.418  0.00  0.00     0.101 HD
ENDBRANCH  18  19
ENDBRANCH  17  18
BRANCH  17  21
HETATM   21  N           1     -19.311  -4.630  -7.464  0.00  0.00    -0.066 N 
HETATM   22  H           1     -19.073  -4.968  -6.503  0.00  0.00     0.275 HD
HETATM   23  H           1     -18.637  -5.035  -8.151  0.00  0.00     0.275 HD
HETATM   24  H           1     -19.253  -3.587  -7.490  0.00  0.00     0.275 HD
ENDBRANCH  17  21
ENDBRANCH   2  17
TORSDOF 8
ENDMDL
MODEL 3
REMARK VINA RESULT:      -5.5      2.655      3.557
REMARK  8 active torsions:
REMARK  status: ('A' for Active; 'I' for Inactive)
REMARK    1  A    between atoms: C_1  and  C_17 
REMARK    2  A    between atoms: C_1  and  C_2 
REMARK    3  A    between atoms: N_8  and  C_17 
REMARK       I    between atoms: N_8  and  C_9 
REMARK    4  A    between atoms: C_9  and  C_18 
REMARK    5  A    between atoms: C_15  and  C_17 
REMARK    6  A    between atoms: C_18  and  C_19 
REMARK    7  A    between atoms: C_18  and  N_20 
REMARK    8  A    between atoms: C_19  and  S_23 
ROOT
HETATM    1  N           1     -36.336  -2.115 -10.861  0.00  0.00    -0.344 N 
HETATM    2  C           1     -37.063  -1.033 -10.443  0.00  0.00     0.249 C 
HETATM    3  O           1     -38.075  -0.722 -11.026  0.00  0.00    -0.271 OA
HETATM    4  H           1     -36.533  -3.033 -10.482  0.00  0.00     0.163 HD
ENDROOT
BRANCH   1   5
HETATM    5  C           1     -35.286  -1.947 -11.846  0.00  0.00     0.191 C 
BRANCH   5   6
HETATM    6  C           1     -35.267  -0.500 -12.324  0.00  0.00     0.094 C 
BRANCH   6   7
HETATM    7  C           1     -35.717  -0.441 -13.751  0.00  0.00     0.028 A 
HETATM    8  C           1     -36.925   0.063 -14.170  0.00  0.00     0.114 A 
HETATM    9  N           1     -36.916  -0.079 -15.530  0.00  0.00    -0.360 N 
HETATM   10  C           1     -35.725  -0.652 -15.874  0.00  0.00     0.180 A 
HETATM   11  H           1     -37.683   0.202 -16.189  0.00  0.00     0.166 HD
HETATM   12  N           1     -34.979  -0.882 -14.819  0.00  0.00    -0.354 N 
ATOM     13  HN          1     -34.048  -1.299 -14.799  1.00  0.00     0.166 HD
ENDBRANCH   6   7
ENDBRANCH   5   6
BRANCH   5  14
HETATM   14  C           1     -33.955  -2.288 -11.223  0.00  0.00     0.197 C 
HETATM   15  O           1     -33.574  -1.690 -10.193  0.00  0.00    -0.646 OA
HETATM   16  O           1     -33.230  -3.168 -11.737  0.00  0.00    -0.646 OA
ENDBRANCH   5  14
ENDBRANCH   1   5
BRANCH   2  17
HETATM   17  C           1     -36.599  -0.225  -9.256  0.00  0.00     0.283 C 
BRANCH  17  18
HETATM   18  C           1     -37.607  -0.364  -8.122  0.00  0.00     0.113 C 
BRANCH  18  19
HETATM   19  S           1     -37.253   0.873  -6.841  0.00  0.00    -0.180 SA
HETATM   20  H           1     -36.702   0.013  -5.966  0.00  0.00     0.101 HD
ENDBRANCH  18  19
ENDBRANCH  17  18
BRANCH  17  21
HETATM   21  N           1     -36.483   1.217  -9.648  0.00  0.00    -0.066 N 
HETATM   22  H           1     -36.395   1.807  -8.788  0.00  0.00     0.275 HD
HETATM   23  H           1     -35.637   1.348 -10.247  0.00  0.00     0.275 HD
HETATM   24  H           1     -37.336   1.504 -10.180  0.00  0.00     0.275 HD
ENDBRANCH  17  21
ENDBRANCH   2  17
TORSDOF 8
ENDMDL
MODEL 4
REMARK VINA RESULT:      -5.4     14.166     15.502
REMARK  8 active torsions:
REMARK  status: ('A' for Active; 'I' for Inactive)
REMARK    1  A    between atoms: C_1  and  C_17 
REMARK    2  A    between atoms: C_1  and  C_2 
REMARK    3  A    between atoms: N_8  and  C_17 
REMARK       I    between atoms: N_8  and  C_9 
REMARK    4  A    between atoms: C_9  and  C_18 
REMARK    5  A    between atoms: C_15  and  C_17 
REMARK    6  A    between atoms: C_18  and  C_19 
REMARK    7  A    between atoms: C_18  and  N_20 
REMARK    8  A    between atoms: C_19  and  S_23 
ROOT
HETATM    1  N           1     -22.159  -4.798  -6.336  0.00  0.00    -0.344 N 
HETATM    2  C           1     -21.347  -5.464  -5.457  0.00  0.00     0.249 C 
HETATM    3  O           1     -20.346  -4.934  -5.038  0.00  0.00    -0.271 OA
HETATM    4  H           1     -22.915  -4.222  -5.989  0.00  0.00     0.163 HD
ENDROOT
BRANCH   1   5
HETATM    5  C           1     -21.934  -4.917  -7.764  0.00  0.00     0.191 C 
BRANCH   5   6
HETATM    6  C           1     -22.587  -3.741  -8.479  0.00  0.00     0.094 C 
BRANCH   6   7
HETATM    7  C           1     -22.576  -3.987  -9.955  0.00  0.00     0.028 A 
HETATM    8  C           1     -23.441  -4.827 -10.615  0.00  0.00     0.114 A 
HETATM    9  N           1     -23.077  -4.749 -11.930  0.00  0.00    -0.360 N 
HETATM   10  C           1     -22.026  -3.881 -12.014  0.00  0.00     0.180 A 
HETATM   11  H           1     -23.524  -5.262 -12.730  0.00  0.00     0.166 HD
HETATM   12  N           1     -21.701  -3.404 -10.836  0.00  0.00    -0.354 N 
ATOM     13  HN          1     -20.957  -2.741 -10.621  1.00  0.00     0.166 HD
ENDBRANCH   6   7
ENDBRANCH   5   6
BRANCH   5  14
HETATM   14  C           1     -20.451  -4.913  -8.040  0.00  0.00     0.197 C 
HETATM   15  O           1     -19.840  -3.829  -8.163  0.00  0.00    -0.646 OA
HETATM   16  O           1     -19.831  -5.994  -8.147  0.00  0.00    -0.646 OA
ENDBRANCH   5  14
ENDBRANCH   1   5
BRANCH   2  17
HETATM   17  C           1     -21.703  -6.863  -5.014  0.00  0.00     0.283 C 
BRANCH  17  18
HETATM   18  C           1     -21.058  -7.146  -3.663  0.00  0.00     0.113 C 
BRANCH  18  19
HETATM   19  S           1     -22.040  -6.370  -2.348  0.00  0.00    -0.180 SA
HETATM   20  H           1     -23.185  -6.304  -3.050  0.00  0.00     0.101 HD
ENDBRANCH  18  19
ENDBRANCH  17  18
BRANCH  17  21
HETATM   21  N           1     -21.201  -7.850  -6.024  0.00  0.00    -0.066 N 
HETATM   22  H           1     -21.085  -8.785  -5.571  0.00  0.00     0.275 HD
HETATM   23  H           1     -21.888  -7.925  -6.808  0.00  0.00     0.275 HD
HETATM   24  H           1     -20.279  -7.528  -6.398  0.00  0.00     0.275 HD
ENDBRANCH  17  21
ENDBRANCH   2  17
TORSDOF 8
ENDMDL
MODEL 5
REMARK VINA RESULT:      -5.2     13.640     15.854
REMARK  8 active torsions:
REMARK  status: ('A' for Active; 'I' for Inactive)
REMARK    1  A    between atoms: C_1  and  C_17 
REMARK    2  A    between atoms: C_1  and  C_2 
REMARK    3  A    between atoms: N_8  and  C_17 
REMARK       I    between atoms: N_8  and  C_9 
REMARK    4  A    between atoms: C_9  and  C_18 
REMARK    5  A    between atoms: C_15  and  C_17 
REMARK    6  A    between atoms: C_18  and  C_19 
REMARK    7  A    between atoms: C_18  and  N_20 
REMARK    8  A    between atoms: C_19  and  S_23 
ROOT
HETATM    1  N           1     -22.181  -5.584  -5.723  0.00  0.00    -0.344 N 
HETATM    2  C           1     -21.582  -6.402  -4.802  0.00  0.00     0.249 C 
HETATM    3  O           1     -20.796  -5.943  -4.007  0.00  0.00    -0.271 OA
HETATM    4  H           1     -23.059  -5.132  -5.501  0.00  0.00     0.163 HD
ENDROOT
BRANCH   1   5
HETATM    5  C           1     -21.558  -5.367  -7.014  0.00  0.00     0.191 C 
BRANCH   5   6
HETATM    6  C           1     -21.901  -3.969  -7.512  0.00  0.00     0.094 C 
BRANCH   6   7
HETATM    7  C           1     -22.865  -4.068  -8.652  0.00  0.00     0.028 A 
HETATM    8  C           1     -22.571  -4.610  -9.880  0.00  0.00     0.114 A 
HETATM    9  N           1     -23.725  -4.496 -10.604  0.00  0.00    -0.360 N 
HETATM   10  C           1     -24.655  -3.901  -9.801  0.00  0.00     0.180 A 
HETATM   11  H           1     -23.871  -4.809 -11.595  0.00  0.00     0.166 HD
HETATM   12  N           1     -24.164  -3.631  -8.614  0.00  0.00    -0.354 N 
ATOM     13  HN          1     -24.647  -3.190  -7.831  1.00  0.00     0.166 HD
ENDBRANCH   6   7
ENDBRANCH   5   6
BRANCH   5  14
HETATM   14  C           1     -20.062  -5.500  -6.877  0.00  0.00     0.197 C 
HETATM   15  O           1     -19.502  -6.583  -7.152  0.00  0.00    -0.646 OA
HETATM   16  O           1     -19.380  -4.526  -6.486  0.00  0.00    -0.646 OA
ENDBRANCH   5  14
ENDBRANCH   1   5
BRANCH   2  17
HETATM   17  C           1     -21.901  -7.877  -4.781  0.00  0.00     0.283 C 
BRANCH  17  18
HETATM   18  C           1     -21.559  -8.452  -3.413  0.00  0.00     0.113 C 
BRANCH  18  19
HETATM   19  S           1     -21.742 -10.257  -3.451  0.00  0.00    -0.180 SA
HETATM   20  H           1     -20.990 -10.497  -2.362  0.00  0.00     0.101 HD
ENDBRANCH  18  19
ENDBRANCH  17  18
BRANCH  17  21
HETATM   21  N           1     -21.095  -8.577  -5.834  0.00  0.00    -0.066 N 
HETATM   22  H           1     -21.423  -8.278  -6.781  0.00  0.00     0.275 HD
HETATM   23  H           1     -20.086  -8.330  -5.721  0.00  0.00     0.275 HD
HETATM   24  H           1     -21.215  -9.611  -5.734  0.00  0.00     0.275 HD
ENDBRANCH  17  21
ENDBRANCH   2  17
TORSDOF 8
ENDMDL
MODEL 6
REMARK VINA RESULT:      -5.0     16.286     17.687
REMARK  8 active torsions:
REMARK  status: ('A' for Active; 'I' for Inactive)
REMARK    1  A    between atoms: C_1  and  C_17 
REMARK    2  A    between atoms: C_1  and  C_2 
REMARK    3  A    between atoms: N_8  and  C_17 
REMARK       I    between atoms: N_8  and  C_9 
REMARK    4  A    between atoms: C_9  and  C_18 
REMARK    5  A    between atoms: C_15  and  C_17 
REMARK    6  A    between atoms: C_18  and  C_19 
REMARK    7  A    between atoms: C_18  and  N_20 
REMARK    8  A    between atoms: C_19  and  S_23 
ROOT
HETATM    1  N           1     -20.800  -7.582  -5.964  0.00  0.00    -0.344 N 
HETATM    2  C           1     -20.323  -6.464  -6.594  0.00  0.00     0.249 C 
HETATM    3  O           1     -19.415  -6.557  -7.385  0.00  0.00    -0.271 OA
HETATM    4  H           1     -21.554  -8.114  -6.380  0.00  0.00     0.163 HD
ENDROOT
BRANCH   1   5
HETATM    5  C           1     -20.225  -8.005  -4.702  0.00  0.00     0.191 C 
BRANCH   5   6
HETATM    6  C           1     -21.307  -8.641  -3.840  0.00  0.00     0.094 C 
BRANCH   6   7
HETATM    7  C           1     -21.718  -7.683  -2.766  0.00  0.00     0.028 A 
HETATM    8  C           1     -21.940  -6.340  -2.960  0.00  0.00     0.114 A 
HETATM    9  N           1     -22.290  -5.858  -1.729  0.00  0.00    -0.360 N 
HETATM   10  C           1     -22.267  -6.907  -0.856  0.00  0.00     0.180 A 
HETATM   11  H           1     -22.533  -4.863  -1.498  0.00  0.00     0.166 HD
HETATM   12  N           1     -21.925  -8.024  -1.454  0.00  0.00    -0.354 N 
ATOM     13  HN          1     -21.834  -8.948  -1.033  1.00  0.00     0.166 HD
ENDBRANCH   6   7
ENDBRANCH   5   6
BRANCH   5  14
HETATM   14  C           1     -19.131  -9.011  -4.962  0.00  0.00     0.197 C 
HETATM   15  O           1     -19.116  -9.656  -6.032  0.00  0.00    -0.646 OA
HETATM   16  O           1     -18.241  -9.202  -4.104  0.00  0.00    -0.646 OA
ENDBRANCH   5  14
ENDBRANCH   1   5
BRANCH   2  17
HETATM   17  C           1     -20.931  -5.114  -6.298  0.00  0.00     0.283 C 
BRANCH  17  18
HETATM   18  C           1     -20.955  -4.278  -7.571  0.00  0.00     0.113 C 
BRANCH  18  19
HETATM   19  S           1     -22.650  -4.208  -8.218  0.00  0.00    -0.180 SA
HETATM   20  H           1     -22.579  -5.353  -8.919  0.00  0.00     0.101 HD
ENDBRANCH  18  19
ENDBRANCH  17  18
BRANCH  17  21
HETATM   21  N           1     -20.110  -4.415  -5.256  0.00  0.00    -0.066 N 
HETATM   22  H           1     -19.435  -3.766  -5.722  0.00  0.00     0.275 HD
HETATM   23  H           1     -20.739  -3.869  -4.626  0.00  0.00     0.275 HD
HETATM   24  H           1     -19.582  -5.122  -4.696  0.00  0.00     0.275 HD
ENDBRANCH  17  21
ENDBRANCH   2  17
TORSDOF 8
ENDMDL
MODEL 7
REMARK VINA RESULT:      -5.0     14.690     16.597
REMARK  8 active torsions:
REMARK  status: ('A' for Active; 'I' for Inactive)
REMARK    1  A    between atoms: C_1  and  C_17 
REMARK    2  A    between atoms: C_1  and  C_2 
REMARK    3  A    between atoms: N_8  and  C_17 
REMARK       I    between atoms: N_8  and  C_9 
REMARK    4  A    between atoms: C_9  and  C_18 
REMARK    5  A    between atoms: C_15  and  C_17 
REMARK    6  A    between atoms: C_18  and  C_19 
REMARK    7  A    between atoms: C_18  and  N_20 
REMARK    8  A    between atoms: C_19  and  S_23 
ROOT
HETATM    1  N           1     -21.038  -4.766  -6.062  0.00  0.00    -0.344 N 
HETATM    2  C           1     -21.978  -4.735  -7.058  0.00  0.00     0.249 C 
HETATM    3  O           1     -23.097  -4.345  -6.821  0.00  0.00    -0.271 OA
HETATM    4  H           1     -20.449  -3.960  -5.898  0.00  0.00     0.163 HD
ENDROOT
BRANCH   1   5
HETATM    5  C           1     -20.889  -5.952  -5.242  0.00  0.00     0.191 C 
BRANCH   5   6
HETATM    6  C           1     -22.231  -6.305  -4.613  0.00  0.00     0.094 C 
BRANCH   6   7
HETATM    7  C           1     -22.027  -6.669  -3.175  0.00  0.00     0.028 A 
HETATM    8  C           1     -21.383  -7.803  -2.739  0.00  0.00     0.114 A 
HETATM    9  N           1     -21.426  -7.732  -1.375  0.00  0.00    -0.360 N 
HETATM   10  C           1     -22.082  -6.581  -1.044  0.00  0.00     0.180 A 
HETATM   11  H           1     -21.028  -8.434  -0.703  0.00  0.00     0.166 HD
HETATM   12  N           1     -22.456  -5.917  -2.112  0.00  0.00    -0.354 N 
ATOM     13  HN          1     -22.959  -5.030  -2.144  1.00  0.00     0.166 HD
ENDBRANCH   6   7
ENDBRANCH   5   6
BRANCH   5  14
HETATM   14  C           1     -20.419  -7.099  -6.101  0.00  0.00     0.197 C 
HETATM   15  O           1     -21.138  -8.112  -6.241  0.00  0.00    -0.646 OA
HETATM   16  O           1     -19.308  -7.038  -6.674  0.00  0.00    -0.646 OA
ENDBRANCH   5  14
ENDBRANCH   1   5
BRANCH   2  17
HETATM   17  C           1     -21.617  -5.192  -8.450  0.00  0.00     0.283 C 
BRANCH  17  18
HETATM   18  C           1     -20.342  -4.489  -8.900  0.00  0.00     0.113 C 
BRANCH  18  19
HETATM   19  S           1     -20.447  -4.123 -10.675  0.00  0.00    -0.180 SA
HETATM   20  H           1     -21.510  -3.305 -10.587  0.00  0.00     0.101 HD
ENDBRANCH  18  19
ENDBRANCH  17  18
BRANCH  17  21
HETATM   21  N           1     -22.733  -4.855  -9.392  0.00  0.00    -0.066 N 
HETATM   22  H           1     -23.576  -4.566  -8.844  0.00  0.00     0.275 HD
HETATM   23  H           1     -22.438  -4.071 -10.016  0.00  0.00     0.275 HD
HETATM   24  H           1     -22.966  -5.694  -9.971  0.00  0.00     0.275 HD
ENDBRANCH  17  21
ENDBRANCH   2  17
TORSDOF 8
ENDMDL
MODEL 8
REMARK VINA RESULT:      -4.9     13.614     14.987
REMARK  8 active torsions:
REMARK  status: ('A' for Active; 'I' for Inactive)
REMARK    1  A    between atoms: C_1  and  C_17 
REMARK    2  A    between atoms: C_1  and  C_2 
REMARK    3  A    between atoms: N_8  and  C_17 
REMARK       I    between atoms: N_8  and  C_9 
REMARK    4  A    between atoms: C_9  and  C_18 
REMARK    5  A    between atoms: C_15  and  C_17 
REMARK    6  A    between atoms: C_18  and  C_19 
REMARK    7  A    between atoms: C_18  and  N_20 
REMARK    8  A    between atoms: C_19  and  S_23 
ROOT
HETATM    1  N           1     -22.308  -4.848  -8.392  0.00  0.00    -0.344 N 
HETATM    2  C           1     -21.321  -4.366  -7.574  0.00  0.00     0.249 C 
HETATM    3  O           1     -21.431  -3.272  -7.074  0.00  0.00    -0.271 OA
HETATM    4  H           1     -23.072  -5.384  -8.001  0.00  0.00     0.163 HD
ENDROOT
BRANCH   1   5
HETATM    5  C           1     -22.258  -4.589  -9.818  0.00  0.00     0.191 C 
BRANCH   5   6
HETATM    6  C           1     -23.186  -3.429 -10.155  0.00  0.00     0.094 C 
BRANCH   6   7
HETATM    7  C           1     -23.351  -3.338 -11.640  0.00  0.00     0.028 A 
HETATM    8  C           1     -23.864  -4.338 -12.432  0.00  0.00     0.114 A 
HETATM    9  N           1     -23.833  -3.834 -13.703  0.00  0.00    -0.360 N 
HETATM   10  C           1     -23.313  -2.573 -13.631  0.00  0.00     0.180 A 
HETATM   11  H           1     -24.151  -4.325 -14.574  0.00  0.00     0.166 HD
HETATM   12  N           1     -23.013  -2.245 -12.396  0.00  0.00    -0.354 N 
ATOM     13  HN          1     -22.614  -1.366 -12.069  1.00  0.00     0.166 HD
ENDBRANCH   6   7
ENDBRANCH   5   6
BRANCH   5  14
HETATM   14  C           1     -20.845  -4.236 -10.214  0.00  0.00     0.197 C 
HETATM   15  O           1     -20.489  -3.039 -10.258  0.00  0.00    -0.646 OA
HETATM   16  O           1     -20.031  -5.141 -10.500  0.00  0.00    -0.646 OA
ENDBRANCH   5  14
ENDBRANCH   1   5
BRANCH   2  17
HETATM   17  C           1     -20.094  -5.201  -7.299  0.00  0.00     0.283 C 
BRANCH  17  18
HETATM   18  C           1     -20.080  -5.616  -5.833  0.00  0.00     0.113 C 
BRANCH  18  19
HETATM   19  S           1     -21.282  -6.950  -5.570  0.00  0.00    -0.180 SA
HETATM   20  H           1     -20.994  -7.622  -6.699  0.00  0.00     0.101 HD
ENDBRANCH  18  19
ENDBRANCH  17  18
BRANCH  17  21
HETATM   21  N           1     -18.865  -4.398  -7.604  0.00  0.00    -0.066 N 
HETATM   22  H           1     -18.671  -4.434  -8.631  0.00  0.00     0.275 HD
HETATM   23  H           1     -19.016  -3.407  -7.313  0.00  0.00     0.275 HD
HETATM   24  H           1     -18.051  -4.796  -7.082  0.00  0.00     0.275 HD
ENDBRANCH  17  21
ENDBRANCH   2  17
TORSDOF 8
ENDMDL
MODEL 9
REMARK VINA RESULT:      -4.9     16.771     18.303
REMARK  8 active torsions:
REMARK  status: ('A' for Active; 'I' for Inactive)
REMARK    1  A    between atoms: C_1  and  C_17 
REMARK    2  A    between atoms: C_1  and  C_2 
REMARK    3  A    between atoms: N_8  and  C_17 
REMARK       I    between atoms: N_8  and  C_9 
REMARK    4  A    between atoms: C_9  and  C_18 
REMARK    5  A    between atoms: C_15  and  C_17 
REMARK    6  A    between atoms: C_18  and  C_19 
REMARK    7  A    between atoms: C_18  and  N_20 
REMARK    8  A    between atoms: C_19  and  S_23 
ROOT
HETATM    1  N           1     -21.453  -8.901  -3.462  0.00  0.00    -0.344 N 
HETATM    2  C           1     -20.352  -9.712  -3.540  0.00  0.00     0.249 C 
HETATM    3  O           1     -19.792 -10.069  -2.531  0.00  0.00    -0.271 OA
HETATM    4  H           1     -22.377  -9.308  -3.398  0.00  0.00     0.163 HD
ENDROOT
BRANCH   1   5
HETATM    5  C           1     -21.294  -7.460  -3.473  0.00  0.00     0.191 C 
BRANCH   5   6
HETATM    6  C           1     -22.075  -6.873  -4.641  0.00  0.00     0.094 C 
BRANCH   6   7
HETATM    7  C           1     -21.130  -6.192  -5.581  0.00  0.00     0.028 A 
HETATM    8  C           1     -20.459  -5.025  -5.306  0.00  0.00     0.114 A 
HETATM    9  N           1     -19.717  -4.770  -6.427  0.00  0.00    -0.360 N 
HETATM   10  C           1     -19.964  -5.774  -7.319  0.00  0.00     0.180 A 
HETATM   11  H           1     -19.075  -3.953  -6.574  0.00  0.00     0.166 HD
HETATM   12  N           1     -20.814  -6.650  -6.835  0.00  0.00    -0.354 N 
ATOM     13  HN          1     -21.164  -7.491  -7.294  1.00  0.00     0.166 HD
ENDBRANCH   6   7
ENDBRANCH   5   6
BRANCH   5  14
HETATM   14  C           1     -21.819  -6.889  -2.179  0.00  0.00     0.197 C 
HETATM   15  O           1     -22.554  -5.877  -2.193  0.00  0.00    -0.646 OA
HETATM   16  O           1     -21.519  -7.427  -1.090  0.00  0.00    -0.646 OA
ENDBRANCH   5  14
ENDBRANCH   1   5
BRANCH   2  17
HETATM   17  C           1     -19.837 -10.157  -4.887  0.00  0.00     0.283 C 
BRANCH  17  18
HETATM   18  C           1     -18.690  -9.251  -5.317  0.00  0.00     0.113 C 
BRANCH  18  19
HETATM   19  S           1     -17.111 -10.109  -5.059  0.00  0.00    -0.180 SA
HETATM   20  H           1     -17.007 -10.588  -6.311  0.00  0.00     0.101 HD
ENDBRANCH  18  19
ENDBRANCH  17  18
BRANCH  17  21
HETATM   21  N           1     -20.942 -10.077  -5.896  0.00  0.00    -0.066 N 
HETATM   22  H           1     -20.661  -9.434  -6.672  0.00  0.00     0.275 HD
HETATM   23  H           1     -21.130 -11.029  -6.284  0.00  0.00     0.275 HD
HETATM   24  H           1     -21.807  -9.710  -5.437  0.00  0.00     0.275 HD
ENDBRANCH  17  21
ENDBRANCH   2  17
TORSDOF 8
ENDMDL
