MODEL 1
REMARK VINA RESULT:      -6.3      0.000      0.000
REMARK  13 active torsions:
REMARK  status: ('A' for Active; 'I' for Inactive)
REMARK    1  A    between atoms: N_6  and  C_7 
REMARK    2  A    between atoms: C_7  and  C_8 
REMARK    3  A    between atoms: C_8  and  C_9 
REMARK    4  A    between atoms: C_9  and  C_10 
REMARK    5  A    between atoms: C_10  and  C_11 
REMARK    6  A    between atoms: C_11  and  C_12 
REMARK    7  A    between atoms: C_11  and  N_15 
REMARK       I    between atoms: N_15  and  C_16 
REMARK    8  A    between atoms: C_16  and  C_17 
REMARK    9  A    between atoms: C_17  and  C_18 
REMARK   10  A    between atoms: C_17  and  N_24 
REMARK   11  A    between atoms: C_18  and  O_19 
REMARK   12  A    between atoms: O_19  and  P_20 
REMARK   13  A    between atoms: P_20  and  O_21 
ROOT
HETATM    1  O           1     -23.700  -4.138  -7.523  0.00  0.00    -0.271 OA
HETATM    2  N           1     -21.850  -4.982  -8.447  0.00  0.00    -0.345 N 
HETATM    3  C           1     -23.147  -4.550  -8.515  0.00  0.00     0.251 C 
HETATM    4  H           1     -21.387  -5.327  -9.278  0.00  0.00     0.163 HD
ENDROOT
BRANCH   2   5
HETATM    5  C           1     -21.139  -4.944  -7.184  0.00  0.00     0.185 C 
BRANCH   5   6
HETATM    6  C           1     -21.056  -6.351  -6.606  0.00  0.00     0.036 C 
BRANCH   6   7
HETATM    7  C           1     -21.936  -6.444  -5.367  0.00  0.00     0.004 C 
BRANCH   7   8
HETATM    8  C           1     -21.162  -5.945  -4.154  0.00  0.00     0.027 C 
BRANCH   8   9
HETATM    9  C           1     -21.564  -6.751  -2.927  0.00  0.00     0.229 C 
BRANCH   9  10
HETATM   10  N           1     -22.346  -5.880  -1.988  0.00  0.00    -0.079 N 
HETATM   11  H           1     -22.150  -6.167  -1.003  0.00  0.00     0.274 HD
HETATM   12  H           1     -22.063  -4.884  -2.124  0.00  0.00     0.274 HD
HETATM   13  H           1     -23.366  -5.985  -2.185  0.00  0.00     0.274 HD
ENDBRANCH   9  10
ENDBRANCH   8   9
ENDBRANCH   7   8
ENDBRANCH   6   7
ENDBRANCH   5   6
BRANCH   5  14
HETATM   14  C           1     -19.746  -4.410  -7.408  0.00  0.00     0.196 C 
HETATM   15  O           1     -18.829  -4.697  -6.607  0.00  0.00    -0.646 OA
HETATM   16  O           1     -19.508  -3.679  -8.394  0.00  0.00    -0.646 OA
ENDBRANCH   5  14
ENDBRANCH   2   5
BRANCH   3  17
HETATM   17  C           1     -23.888  -4.589  -9.830  0.00  0.00     0.298 C 
BRANCH  17  18
HETATM   18  C           1     -23.013  -3.991 -10.923  0.00  0.00     0.224 C 
BRANCH  18  19
HETATM   19  O           1     -23.438  -4.464 -12.174  0.00  0.00    -0.287 OA
BRANCH  19  20
HETATM   20  P           1     -23.988  -3.348 -13.203  0.00  0.00     0.406 P 
HETATM   21  O           1     -25.377  -2.986 -12.840  0.00  0.00    -0.624 OA
HETATM   22  O           1     -23.129  -2.145 -13.131  0.00  0.00    -0.624 OA
BRANCH  20  23
HETATM   23  O           1     -23.961  -3.939 -14.705  0.00  0.00    -0.300 OA
HETATM   24  H           1     -24.819  -4.305 -14.839  0.00  0.00     0.223 HD
ENDBRANCH  20  23
ENDBRANCH  19  20
ENDBRANCH  18  19
ENDBRANCH  17  18
BRANCH  17  25
HETATM   25  N           1     -25.154  -3.796  -9.712  0.00  0.00    -0.064 N 
HETATM   26  H           1     -25.326  -3.281 -10.605  0.00  0.00     0.275 HD
HETATM   27  H           1     -25.954  -4.443  -9.524  0.00  0.00     0.275 HD
HETATM   28  H           1     -25.067  -3.113  -8.927  0.00  0.00     0.275 HD
ENDBRANCH  17  25
ENDBRANCH   3  17
TORSDOF 13
ENDMDL
MODEL 2
REMARK VINA RESULT:      -6.0      3.567      7.843
REMARK  13 active torsions:
REMARK  status: ('A' for Active; 'I' for Inactive)
REMARK    1  A    between atoms: N_6  and  C_7 
REMARK    2  A    between atoms: C_7  and  C_8 
REMARK    3  A    between atoms: C_8  and  C_9 
REMARK    4  A    between atoms: C_9  and  C_10 
REMARK    5  A    between atoms: C_10  and  C_11 
REMARK    6  A    between atoms: C_11  and  C_12 
REMARK    7  A    between atoms: C_11  and  N_15 
REMARK       I    between atoms: N_15  and  C_16 
REMARK    8  A    between atoms: C_16  and  C_17 
REMARK    9  A    between atoms: C_17  and  C_18 
REMARK   10  A    between atoms: C_17  and  N_24 
REMARK   11  A    between atoms: C_18  and  O_19 
REMARK   12  A    between atoms: O_19  and  P_20 
REMARK   13  A    between atoms: P_20  and  O_21 
ROOT
HETATM    1  O           1     -20.275  -3.560  -9.582  0.00  0.00    -0.271 OA
HETATM    2  N           1     -22.173  -4.697  -9.274  0.00  0.00    -0.345 N 
HETATM    3  C           1     -20.844  -4.475  -9.034  0.00  0.00     0.251 C 
HETATM    4  H           1     -22.650  -5.463  -8.815  0.00  0.00     0.163 HD
ENDROOT
BRANCH   2   5
HETATM    5  C           1     -22.899  -3.835 -10.187  0.00  0.00     0.185 C 
BRANCH   5   6
HETATM    6  C           1     -22.714  -4.336 -11.613  0.00  0.00     0.036 C 
BRANCH   6   7
HETATM    7  C           1     -22.398  -3.160 -12.529  0.00  0.00     0.004 C 
BRANCH   7   8
HETATM    8  C           1     -23.684  -2.653 -13.167  0.00  0.00     0.027 C 
BRANCH   8   9
HETATM    9  C           1     -23.368  -2.026 -14.518  0.00  0.00     0.229 C 
BRANCH   9  10
HETATM   10  N           1     -24.158  -0.762 -14.682  0.00  0.00    -0.079 N 
HETATM   11  H           1     -23.553  -0.025 -15.109  0.00  0.00     0.274 HD
HETATM   12  H           1     -24.978  -0.943 -15.304  0.00  0.00     0.274 HD
HETATM   13  H           1     -24.494  -0.438 -13.747  0.00  0.00     0.274 HD
ENDBRANCH   9  10
ENDBRANCH   8   9
ENDBRANCH   7   8
ENDBRANCH   6   7
ENDBRANCH   5   6
BRANCH   5  14
HETATM   14  C           1     -24.366  -3.852  -9.834  0.00  0.00     0.196 C 
HETATM   15  O           1     -24.965  -2.780  -9.598  0.00  0.00    -0.646 OA
HETATM   16  O           1     -24.983  -4.938  -9.778  0.00  0.00    -0.646 OA
ENDBRANCH   5  14
ENDBRANCH   2   5
BRANCH   3  17
HETATM   17  C           1     -20.089  -5.372  -8.084  0.00  0.00     0.298 C 
BRANCH  17  18
HETATM   18  C           1     -21.071  -6.060  -7.145  0.00  0.00     0.224 C 
BRANCH  18  19
HETATM   19  O           1     -20.745  -5.749  -5.817  0.00  0.00    -0.287 OA
BRANCH  19  20
HETATM   20  P           1     -21.654  -6.453  -4.682  0.00  0.00     0.406 P 
HETATM   21  O           1     -21.453  -7.918  -4.729  0.00  0.00    -0.624 OA
HETATM   22  O           1     -21.261  -5.942  -3.349  0.00  0.00    -0.624 OA
BRANCH  20  23
HETATM   23  O           1     -23.209  -6.114  -4.950  0.00  0.00    -0.300 OA
HETATM   24  H           1     -23.623  -6.180  -4.106  0.00  0.00     0.223 HD
ENDBRANCH  20  23
ENDBRANCH  19  20
ENDBRANCH  18  19
ENDBRANCH  17  18
BRANCH  17  25
HETATM   25  N           1     -19.124  -4.550  -7.283  0.00  0.00    -0.064 N 
HETATM   26  H           1     -19.595  -3.674  -6.963  0.00  0.00     0.275 HD
HETATM   27  H           1     -18.806  -5.098  -6.451  0.00  0.00     0.275 HD
HETATM   28  H           1     -18.298  -4.306  -7.875  0.00  0.00     0.275 HD
ENDBRANCH  17  25
ENDBRANCH   3  17
TORSDOF 13
ENDMDL
MODEL 3
REMARK VINA RESULT:      -5.9      2.286      3.660
REMARK  13 active torsions:
REMARK  status: ('A' for Active; 'I' for Inactive)
REMARK    1  A    between atoms: N_6  and  C_7 
REMARK    2  A    between atoms: C_7  and  C_8 
REMARK    3  A    between atoms: C_8  and  C_9 
REMARK    4  A    between atoms: C_9  and  C_10 
REMARK    5  A    between atoms: C_10  and  C_11 
REMARK    6  A    between atoms: C_11  and  C_12 
REMARK    7  A    between atoms: C_11  and  N_15 
REMARK       I    between atoms: N_15  and  C_16 
REMARK    8  A    between atoms: C_16  and  C_17 
REMARK    9  A    between atoms: C_17  and  C_18 
REMARK   10  A    between atoms: C_17  and  N_24 
REMARK   11  A    between atoms: C_18  and  O_19 
REMARK   12  A    between atoms: O_19  and  P_20 
REMARK   13  A    between atoms: P_20  and  O_21 
ROOT
HETATM    1  O           1     -19.497  -4.634  -6.345  0.00  0.00    -0.271 OA
HETATM    2  N           1     -21.478  -5.620  -6.042  0.00  0.00    -0.345 N 
HETATM    3  C           1     -20.634  -4.788  -6.727  0.00  0.00     0.251 C 
HETATM    4  H           1     -22.430  -5.750  -6.362  0.00  0.00     0.163 HD
ENDROOT
BRANCH   2   5
HETATM    5  C           1     -21.010  -6.316  -4.860  0.00  0.00     0.185 C 
BRANCH   5   6
HETATM    6  C           1     -22.121  -6.350  -3.819  0.00  0.00     0.036 C 
BRANCH   6   7
HETATM    7  C           1     -21.529  -6.118  -2.435  0.00  0.00     0.004 C 
BRANCH   7   8
HETATM    8  C           1     -22.275  -6.966  -1.413  0.00  0.00     0.027 C 
BRANCH   8   9
HETATM    9  C           1     -21.286  -7.855  -0.671  0.00  0.00     0.229 C 
BRANCH   9  10
HETATM   10  N           1     -20.459  -8.620  -1.662  0.00  0.00    -0.079 N 
HETATM   11  H           1     -20.722  -8.332  -2.631  0.00  0.00     0.274 HD
HETATM   12  H           1     -19.447  -8.414  -1.500  0.00  0.00     0.274 HD
HETATM   13  H           1     -20.631  -9.643  -1.543  0.00  0.00     0.274 HD
ENDBRANCH   9  10
ENDBRANCH   8   9
ENDBRANCH   7   8
ENDBRANCH   6   7
ENDBRANCH   5   6
BRANCH   5  14
HETATM   14  C           1     -20.622  -7.727  -5.228  0.00  0.00     0.196 C 
HETATM   15  O           1     -19.686  -8.295  -4.624  0.00  0.00    -0.646 OA
HETATM   16  O           1     -21.235  -8.327  -6.137  0.00  0.00    -0.646 OA
ENDBRANCH   5  14
ENDBRANCH   2   5
BRANCH   3  17
HETATM   17  C           1     -21.120  -4.064  -7.958  0.00  0.00     0.298 C 
BRANCH  17  18
HETATM   18  C           1     -22.606  -4.337  -8.153  0.00  0.00     0.224 C 
BRANCH  18  19
HETATM   19  O           1     -23.184  -3.284  -8.877  0.00  0.00    -0.287 OA
BRANCH  19  20
HETATM   20  P           1     -24.162  -3.711 -10.090  0.00  0.00     0.406 P 
HETATM   21  O           1     -23.772  -2.981 -11.316  0.00  0.00    -0.624 OA
HETATM   22  O           1     -24.048  -5.169 -10.324  0.00  0.00    -0.624 OA
BRANCH  20  23
HETATM   23  O           1     -25.687  -3.346  -9.707  0.00  0.00    -0.300 OA
HETATM   24  H           1     -26.059  -2.991 -10.497  0.00  0.00     0.223 HD
ENDBRANCH  20  23
ENDBRANCH  19  20
ENDBRANCH  18  19
ENDBRANCH  17  18
BRANCH  17  25
HETATM   25  N           1     -20.361  -4.550  -9.156  0.00  0.00    -0.064 N 
HETATM   26  H           1     -19.339  -4.386  -9.009  0.00  0.00     0.275 HD
HETATM   27  H           1     -20.535  -5.572  -9.288  0.00  0.00     0.275 HD
HETATM   28  H           1     -20.679  -4.030 -10.004  0.00  0.00     0.275 HD
ENDBRANCH  17  25
ENDBRANCH   3  17
TORSDOF 13
ENDMDL
MODEL 4
REMARK VINA RESULT:      -5.9      3.592      7.679
REMARK  13 active torsions:
REMARK  status: ('A' for Active; 'I' for Inactive)
REMARK    1  A    between atoms: N_6  and  C_7 
REMARK    2  A    between atoms: C_7  and  C_8 
REMARK    3  A    between atoms: C_8  and  C_9 
REMARK    4  A    between atoms: C_9  and  C_10 
REMARK    5  A    between atoms: C_10  and  C_11 
REMARK    6  A    between atoms: C_11  and  C_12 
REMARK    7  A    between atoms: C_11  and  N_15 
REMARK       I    between atoms: N_15  and  C_16 
REMARK    8  A    between atoms: C_16  and  C_17 
REMARK    9  A    between atoms: C_17  and  C_18 
REMARK   10  A    between atoms: C_17  and  N_24 
REMARK   11  A    between atoms: C_18  and  O_19 
REMARK   12  A    between atoms: O_19  and  P_20 
REMARK   13  A    between atoms: P_20  and  O_21 
ROOT
HETATM    1  O           1     -21.284  -3.295  -6.950  0.00  0.00    -0.271 OA
HETATM    2  N           1     -22.543  -4.737  -8.100  0.00  0.00    -0.345 N 
HETATM    3  C           1     -21.774  -4.397  -7.019  0.00  0.00     0.251 C 
HETATM    4  H           1     -22.954  -5.660  -8.158  0.00  0.00     0.163 HD
ENDROOT
BRANCH   2   5
HETATM    5  C           1     -22.770  -3.774  -9.160  0.00  0.00     0.185 C 
BRANCH   5   6
HETATM    6  C           1     -21.886  -4.116 -10.353  0.00  0.00     0.036 C 
BRANCH   6   7
HETATM    7  C           1     -21.894  -2.958 -11.341  0.00  0.00     0.004 C 
BRANCH   7   8
HETATM    8  C           1     -22.443  -3.435 -12.679  0.00  0.00     0.027 C 
BRANCH   8   9
HETATM    9  C           1     -23.593  -2.533 -13.107  0.00  0.00     0.229 C 
BRANCH   9  10
HETATM   10  N           1     -24.891  -3.120 -12.638  0.00  0.00    -0.079 N 
HETATM   11  H           1     -25.639  -2.393 -12.685  0.00  0.00     0.274 HD
HETATM   12  H           1     -25.150  -3.925 -13.252  0.00  0.00     0.274 HD
HETATM   13  H           1     -24.788  -3.451 -11.652  0.00  0.00     0.274 HD
ENDBRANCH   9  10
ENDBRANCH   8   9
ENDBRANCH   7   8
ENDBRANCH   6   7
ENDBRANCH   5   6
BRANCH   5  14
HETATM   14  C           1     -24.218  -3.820  -9.579  0.00  0.00     0.196 C 
HETATM   15  O           1     -24.920  -2.787  -9.516  0.00  0.00    -0.646 OA
HETATM   16  O           1     -24.718  -4.891  -9.987  0.00  0.00    -0.646 OA
ENDBRANCH   5  14
ENDBRANCH   2   5
BRANCH   3  17
HETATM   17  C           1     -21.539  -5.399  -5.916  0.00  0.00     0.298 C 
BRANCH  17  18
HETATM   18  C           1     -20.747  -6.580  -6.462  0.00  0.00     0.224 C 
BRANCH  18  19
HETATM   19  O           1     -19.889  -7.069  -5.465  0.00  0.00    -0.287 OA
BRANCH  19  20
HETATM   20  P           1     -20.329  -8.461  -4.774  0.00  0.00     0.406 P 
HETATM   21  O           1     -19.155  -9.076  -4.117  0.00  0.00    -0.624 OA
HETATM   22  O           1     -21.380  -8.199  -3.765  0.00  0.00    -0.624 OA
BRANCH  20  23
HETATM   23  O           1     -20.902  -9.465  -5.901  0.00  0.00    -0.300 OA
HETATM   24  H           1     -20.516 -10.301  -5.702  0.00  0.00     0.223 HD
ENDBRANCH  20  23
ENDBRANCH  19  20
ENDBRANCH  18  19
ENDBRANCH  17  18
BRANCH  17  25
HETATM   25  N           1     -22.857  -5.881  -5.390  0.00  0.00    -0.064 N 
HETATM   26  H           1     -23.227  -6.632  -6.016  0.00  0.00     0.275 HD
HETATM   27  H           1     -22.729  -6.263  -4.425  0.00  0.00     0.275 HD
HETATM   28  H           1     -23.534  -5.085  -5.362  0.00  0.00     0.275 HD
ENDBRANCH  17  25
ENDBRANCH   3  17
TORSDOF 13
ENDMDL
MODEL 5
REMARK VINA RESULT:      -5.4      3.942      7.485
REMARK  13 active torsions:
REMARK  status: ('A' for Active; 'I' for Inactive)
REMARK    1  A    between atoms: N_6  and  C_7 
REMARK    2  A    between atoms: C_7  and  C_8 
REMARK    3  A    between atoms: C_8  and  C_9 
REMARK    4  A    between atoms: C_9  and  C_10 
REMARK    5  A    between atoms: C_10  and  C_11 
REMARK    6  A    between atoms: C_11  and  C_12 
REMARK    7  A    between atoms: C_11  and  N_15 
REMARK       I    between atoms: N_15  and  C_16 
REMARK    8  A    between atoms: C_16  and  C_17 
REMARK    9  A    between atoms: C_17  and  C_18 
REMARK   10  A    between atoms: C_17  and  N_24 
REMARK   11  A    between atoms: C_18  and  O_19 
REMARK   12  A    between atoms: O_19  and  P_20 
REMARK   13  A    between atoms: P_20  and  O_21 
ROOT
HETATM    1  O           1     -21.313  -7.486  -6.456  0.00  0.00    -0.271 OA
HETATM    2  N           1     -21.102  -5.281  -6.172  0.00  0.00    -0.345 N 
HETATM    3  C           1     -21.128  -6.564  -5.697  0.00  0.00     0.251 C 
HETATM    4  H           1     -20.946  -4.508  -5.536  0.00  0.00     0.163 HD
ENDROOT
BRANCH   2   5
HETATM    5  C           1     -21.297  -5.026  -7.586  0.00  0.00     0.185 C 
BRANCH   5   6
HETATM    6  C           1     -22.201  -3.813  -7.763  0.00  0.00     0.036 C 
BRANCH   6   7
HETATM    7  C           1     -23.368  -4.177  -8.671  0.00  0.00     0.004 C 
BRANCH   7   8
HETATM    8  C           1     -23.115  -3.628 -10.069  0.00  0.00     0.027 C 
BRANCH   8   9
HETATM    9  C           1     -24.446  -3.398 -10.773  0.00  0.00     0.229 C 
BRANCH   9  10
HETATM   10  N           1     -25.565  -3.521  -9.781  0.00  0.00    -0.079 N 
HETATM   11  H           1     -25.210  -3.975  -8.910  0.00  0.00     0.274 HD
HETATM   12  H           1     -25.932  -2.569  -9.553  0.00  0.00     0.274 HD
HETATM   13  H           1     -26.330  -4.102 -10.191  0.00  0.00     0.274 HD
ENDBRANCH   9  10
ENDBRANCH   8   9
ENDBRANCH   7   8
ENDBRANCH   6   7
ENDBRANCH   5   6
BRANCH   5  14
HETATM   14  C           1     -19.962  -4.759  -8.237  0.00  0.00     0.196 C 
HETATM   15  O           1     -18.972  -4.462  -7.534  0.00  0.00    -0.646 OA
HETATM   16  O           1     -19.847  -4.833  -9.480  0.00  0.00    -0.646 OA
ENDBRANCH   5  14
ENDBRANCH   2   5
BRANCH   3  17
HETATM   17  C           1     -20.924  -6.829  -4.225  0.00  0.00     0.298 C 
BRANCH  17  18
HETATM   18  C           1     -20.924  -8.331  -3.975  0.00  0.00     0.224 C 
BRANCH  18  19
HETATM   19  O           1     -19.602  -8.799  -3.941  0.00  0.00    -0.287 OA
BRANCH  19  20
HETATM   20  P           1     -19.202  -9.873  -5.078  0.00  0.00     0.406 P 
HETATM   21  O           1     -18.276  -9.244  -6.045  0.00  0.00    -0.624 OA
HETATM   22  O           1     -18.542 -11.038  -4.446  0.00  0.00    -0.624 OA
BRANCH  20  23
HETATM   23  O           1     -20.534 -10.363  -5.849  0.00  0.00    -0.300 OA
HETATM   24  H           1     -21.229 -10.268  -5.221  0.00  0.00     0.223 HD
ENDBRANCH  20  23
ENDBRANCH  19  20
ENDBRANCH  18  19
ENDBRANCH  17  18
BRANCH  17  25
HETATM   25  N           1     -22.036  -6.192  -3.446  0.00  0.00    -0.064 N 
HETATM   26  H           1     -21.979  -6.497  -2.448  0.00  0.00     0.275 HD
HETATM   27  H           1     -21.947  -5.152  -3.499  0.00  0.00     0.275 HD
HETATM   28  H           1     -22.955  -6.484  -3.848  0.00  0.00     0.275 HD
ENDBRANCH  17  25
ENDBRANCH   3  17
TORSDOF 13
ENDMDL
MODEL 6
REMARK VINA RESULT:      -5.4      4.264      8.018
REMARK  13 active torsions:
REMARK  status: ('A' for Active; 'I' for Inactive)
REMARK    1  A    between atoms: N_6  and  C_7 
REMARK    2  A    between atoms: C_7  and  C_8 
REMARK    3  A    between atoms: C_8  and  C_9 
REMARK    4  A    between atoms: C_9  and  C_10 
REMARK    5  A    between atoms: C_10  and  C_11 
REMARK    6  A    between atoms: C_11  and  C_12 
REMARK    7  A    between atoms: C_11  and  N_15 
REMARK       I    between atoms: N_15  and  C_16 
REMARK    8  A    between atoms: C_16  and  C_17 
REMARK    9  A    between atoms: C_17  and  C_18 
REMARK   10  A    between atoms: C_17  and  N_24 
REMARK   11  A    between atoms: C_18  and  O_19 
REMARK   12  A    between atoms: O_19  and  P_20 
REMARK   13  A    between atoms: P_20  and  O_21 
ROOT
HETATM    1  O           1     -20.526  -6.752  -7.139  0.00  0.00    -0.271 OA
HETATM    2  N           1     -21.885  -4.979  -7.169  0.00  0.00    -0.345 N 
HETATM    3  C           1     -21.201  -5.968  -6.514  0.00  0.00     0.251 C 
HETATM    4  H           1     -22.450  -4.322  -6.645  0.00  0.00     0.163 HD
ENDROOT
BRANCH   2   5
HETATM    5  C           1     -21.800  -4.873  -8.612  0.00  0.00     0.185 C 
BRANCH   5   6
HETATM    6  C           1     -22.897  -3.945  -9.117  0.00  0.00     0.036 C 
BRANCH   6   7
HETATM    7  C           1     -23.352  -4.399 -10.498  0.00  0.00     0.004 C 
BRANCH   7   8
HETATM    8  C           1     -23.784  -3.189 -11.315  0.00  0.00     0.027 C 
BRANCH   8   9
HETATM    9  C           1     -22.600  -2.671 -12.120  0.00  0.00     0.229 C 
BRANCH   9  10
HETATM   10  N           1     -21.707  -3.818 -12.493  0.00  0.00    -0.079 N 
HETATM   11  H           1     -21.790  -4.571 -11.774  0.00  0.00     0.274 HD
HETATM   12  H           1     -21.995  -4.193 -13.425  0.00  0.00     0.274 HD
HETATM   13  H           1     -20.718  -3.487 -12.539  0.00  0.00     0.274 HD
ENDBRANCH   9  10
ENDBRANCH   8   9
ENDBRANCH   7   8
ENDBRANCH   6   7
ENDBRANCH   5   6
BRANCH   5  14
HETATM   14  C           1     -20.452  -4.314  -8.996  0.00  0.00     0.196 C 
HETATM   15  O           1     -19.927  -4.641 -10.083  0.00  0.00    -0.646 OA
HETATM   16  O           1     -19.860  -3.525  -8.228  0.00  0.00    -0.646 OA
ENDBRANCH   5  14
ENDBRANCH   2   5
BRANCH   3  17
HETATM   17  C           1     -21.289  -6.079  -5.011  0.00  0.00     0.298 C 
BRANCH  17  18
HETATM   18  C           1     -20.613  -7.366  -4.557  0.00  0.00     0.224 C 
BRANCH  18  19
HETATM   19  O           1     -21.527  -8.142  -3.830  0.00  0.00    -0.287 OA
BRANCH  19  20
HETATM   20  P           1     -21.275  -8.225  -2.237  0.00  0.00     0.406 P 
HETATM   21  O           1     -19.824  -8.349  -1.974  0.00  0.00    -0.624 OA
HETATM   22  O           1     -21.792  -6.998  -1.591  0.00  0.00    -0.624 OA
BRANCH  20  23
HETATM   23  O           1     -22.042  -9.512  -1.635  0.00  0.00    -0.300 OA
HETATM   24  H           1     -21.868 -10.208  -2.246  0.00  0.00     0.223 HD
ENDBRANCH  20  23
ENDBRANCH  19  20
ENDBRANCH  18  19
ENDBRANCH  17  18
BRANCH  17  25
HETATM   25  N           1     -22.730  -6.097  -4.596  0.00  0.00    -0.064 N 
HETATM   26  H           1     -22.994  -7.064  -4.301  0.00  0.00     0.275 HD
HETATM   27  H           1     -22.870  -5.437  -3.797  0.00  0.00     0.275 HD
HETATM   28  H           1     -23.328  -5.802  -5.400  0.00  0.00     0.275 HD
ENDBRANCH  17  25
ENDBRANCH   3  17
TORSDOF 13
ENDMDL
MODEL 7
REMARK VINA RESULT:      -5.3      4.778      8.353
REMARK  13 active torsions:
REMARK  status: ('A' for Active; 'I' for Inactive)
REMARK    1  A    between atoms: N_6  and  C_7 
REMARK    2  A    between atoms: C_7  and  C_8 
REMARK    3  A    between atoms: C_8  and  C_9 
REMARK    4  A    between atoms: C_9  and  C_10 
REMARK    5  A    between atoms: C_10  and  C_11 
REMARK    6  A    between atoms: C_11  and  C_12 
REMARK    7  A    between atoms: C_11  and  N_15 
REMARK       I    between atoms: N_15  and  C_16 
REMARK    8  A    between atoms: C_16  and  C_17 
REMARK    9  A    between atoms: C_17  and  C_18 
REMARK   10  A    between atoms: C_17  and  N_24 
REMARK   11  A    between atoms: C_18  and  O_19 
REMARK   12  A    between atoms: O_19  and  P_20 
REMARK   13  A    between atoms: P_20  and  O_21 
ROOT
HETATM    1  O           1     -20.993  -7.813  -6.305  0.00  0.00    -0.271 OA
HETATM    2  N           1     -21.788  -5.811  -5.717  0.00  0.00    -0.345 N 
HETATM    3  C           1     -21.524  -7.129  -5.462  0.00  0.00     0.251 C 
HETATM    4  H           1     -22.233  -5.238  -5.010  0.00  0.00     0.163 HD
ENDROOT
BRANCH   2   5
HETATM    5  C           1     -21.429  -5.233  -6.997  0.00  0.00     0.185 C 
BRANCH   5   6
HETATM    6  C           1     -22.355  -4.063  -7.303  0.00  0.00     0.036 C 
BRANCH   6   7
HETATM    7  C           1     -23.304  -4.447  -8.431  0.00  0.00     0.004 C 
BRANCH   7   8
HETATM    8  C           1     -22.991  -3.612  -9.665  0.00  0.00     0.027 C 
BRANCH   8   9
HETATM    9  C           1     -24.225  -3.534 -10.553  0.00  0.00     0.229 C 
BRANCH   9  10
HETATM   10  N           1     -25.458  -3.530  -9.698  0.00  0.00    -0.079 N 
HETATM   11  H           1     -26.078  -2.740  -9.985  0.00  0.00     0.274 HD
HETATM   12  H           1     -25.967  -4.434  -9.820  0.00  0.00     0.274 HD
HETATM   13  H           1     -25.186  -3.413  -8.697  0.00  0.00     0.274 HD
ENDBRANCH   9  10
ENDBRANCH   8   9
ENDBRANCH   7   8
ENDBRANCH   6   7
ENDBRANCH   5   6
BRANCH   5  14
HETATM   14  C           1     -20.002  -4.746  -6.947  0.00  0.00     0.196 C 
HETATM   15  O           1     -19.361  -4.578  -8.007  0.00  0.00    -0.646 OA
HETATM   16  O           1     -19.460  -4.512  -5.845  0.00  0.00    -0.646 OA
ENDBRANCH   5  14
ENDBRANCH   2   5
BRANCH   3  17
HETATM   17  C           1     -21.897  -7.730  -4.129  0.00  0.00     0.298 C 
BRANCH  17  18
HETATM   18  C           1     -21.229  -6.941  -3.011  0.00  0.00     0.224 C 
BRANCH  18  19
HETATM   19  O           1     -20.821  -7.820  -1.997  0.00  0.00    -0.287 OA
BRANCH  19  20
HETATM   20  P           1     -21.871  -8.044  -0.790  0.00  0.00     0.406 P 
HETATM   21  O           1     -22.788  -6.885  -0.714  0.00  0.00    -0.624 OA
HETATM   22  O           1     -22.652  -9.277  -1.040  0.00  0.00    -0.624 OA
BRANCH  20  23
HETATM   23  O           1     -21.069  -8.188   0.603  0.00  0.00    -0.300 OA
HETATM   24  H           1     -21.703  -8.520   1.217  0.00  0.00     0.223 HD
ENDBRANCH  20  23
ENDBRANCH  19  20
ENDBRANCH  18  19
ENDBRANCH  17  18
BRANCH  17  25
HETATM   25  N           1     -21.437  -9.156  -4.078  0.00  0.00    -0.064 N 
HETATM   26  H           1     -20.704  -9.311  -4.806  0.00  0.00     0.275 HD
HETATM   27  H           1     -21.039  -9.360  -3.133  0.00  0.00     0.275 HD
HETATM   28  H           1     -22.248  -9.791  -4.258  0.00  0.00     0.275 HD
ENDBRANCH  17  25
ENDBRANCH   3  17
TORSDOF 13
ENDMDL
MODEL 8
REMARK VINA RESULT:      -5.2      3.481      8.173
REMARK  13 active torsions:
REMARK  status: ('A' for Active; 'I' for Inactive)
REMARK    1  A    between atoms: N_6  and  C_7 
REMARK    2  A    between atoms: C_7  and  C_8 
REMARK    3  A    between atoms: C_8  and  C_9 
REMARK    4  A    between atoms: C_9  and  C_10 
REMARK    5  A    between atoms: C_10  and  C_11 
REMARK    6  A    between atoms: C_11  and  C_12 
REMARK    7  A    between atoms: C_11  and  N_15 
REMARK       I    between atoms: N_15  and  C_16 
REMARK    8  A    between atoms: C_16  and  C_17 
REMARK    9  A    between atoms: C_17  and  C_18 
REMARK   10  A    between atoms: C_17  and  N_24 
REMARK   11  A    between atoms: C_18  and  O_19 
REMARK   12  A    between atoms: O_19  and  P_20 
REMARK   13  A    between atoms: P_20  and  O_21 
ROOT
HETATM    1  O           1     -23.908  -3.409  -9.068  0.00  0.00    -0.271 OA
HETATM    2  N           1     -22.568  -3.605 -10.844  0.00  0.00    -0.345 N 
HETATM    3  C           1     -22.893  -3.864  -9.540  0.00  0.00     0.251 C 
HETATM    4  H           1     -21.718  -3.986 -11.239  0.00  0.00     0.163 HD
ENDROOT
BRANCH   2   5
HETATM    5  C           1     -23.442  -2.783 -11.659  0.00  0.00     0.185 C 
BRANCH   5   6
HETATM    6  C           1     -22.626  -2.105 -12.752  0.00  0.00     0.036 C 
BRANCH   6   7
HETATM    7  C           1     -22.561  -3.011 -13.975  0.00  0.00     0.004 C 
BRANCH   7   8
HETATM    8  C           1     -22.822  -2.189 -15.230  0.00  0.00     0.027 C 
BRANCH   8   9
HETATM    9  C           1     -23.829  -1.091 -14.918  0.00  0.00     0.229 C 
BRANCH   9  10
HETATM   10  N           1     -23.592   0.079 -15.826  0.00  0.00    -0.079 N 
HETATM   11  H           1     -22.985  -0.216 -16.624  0.00  0.00     0.274 HD
HETATM   12  H           1     -24.507   0.424 -16.195  0.00  0.00     0.274 HD
HETATM   13  H           1     -23.119   0.843 -15.294  0.00  0.00     0.274 HD
ENDBRANCH   9  10
ENDBRANCH   8   9
ENDBRANCH   7   8
ENDBRANCH   6   7
ENDBRANCH   5   6
BRANCH   5  14
HETATM   14  C           1     -24.503  -3.651 -12.289  0.00  0.00     0.196 C 
HETATM   15  O           1     -25.551  -3.134 -12.732  0.00  0.00    -0.646 OA
HETATM   16  O           1     -24.335  -4.888 -12.366  0.00  0.00    -0.646 OA
ENDBRANCH   5  14
ENDBRANCH   2   5
BRANCH   3  17
HETATM   17  C           1     -21.984  -4.719  -8.691  0.00  0.00     0.298 C 
BRANCH  17  18
HETATM   18  C           1     -22.077  -4.273  -7.238  0.00  0.00     0.224 C 
BRANCH  18  19
HETATM   19  O           1     -22.113  -5.400  -6.404  0.00  0.00    -0.287 OA
BRANCH  19  20
HETATM   20  P           1     -20.701  -5.853  -5.765  0.00  0.00     0.406 P 
HETATM   21  O           1     -20.946  -6.631  -4.531  0.00  0.00    -0.624 OA
HETATM   22  O           1     -19.966  -6.690  -6.740  0.00  0.00    -0.624 OA
BRANCH  20  23
HETATM   23  O           1     -19.824  -4.544  -5.412  0.00  0.00    -0.300 OA
HETATM   24  H           1     -19.746  -4.076  -6.225  0.00  0.00     0.223 HD
ENDBRANCH  20  23
ENDBRANCH  19  20
ENDBRANCH  18  19
ENDBRANCH  17  18
BRANCH  17  25
HETATM   25  N           1     -20.570  -4.572  -9.169  0.00  0.00    -0.064 N 
HETATM   26  H           1     -20.261  -5.462  -9.620  0.00  0.00     0.275 HD
HETATM   27  H           1     -20.517  -3.792  -9.864  0.00  0.00     0.275 HD
HETATM   28  H           1     -19.948  -4.357  -8.358  0.00  0.00     0.275 HD
ENDBRANCH  17  25
ENDBRANCH   3  17
TORSDOF 13
ENDMDL
MODEL 9
REMARK VINA RESULT:      -5.1      3.879      6.064
REMARK  13 active torsions:
REMARK  status: ('A' for Active; 'I' for Inactive)
REMARK    1  A    between atoms: N_6  and  C_7 
REMARK    2  A    between atoms: C_7  and  C_8 
REMARK    3  A    between atoms: C_8  and  C_9 
REMARK    4  A    between atoms: C_9  and  C_10 
REMARK    5  A    between atoms: C_10  and  C_11 
REMARK    6  A    between atoms: C_11  and  C_12 
REMARK    7  A    between atoms: C_11  and  N_15 
REMARK       I    between atoms: N_15  and  C_16 
REMARK    8  A    between atoms: C_16  and  C_17 
REMARK    9  A    between atoms: C_17  and  C_18 
REMARK   10  A    between atoms: C_17  and  N_24 
REMARK   11  A    between atoms: C_18  and  O_19 
REMARK   12  A    between atoms: O_19  and  P_20 
REMARK   13  A    between atoms: P_20  and  O_21 
ROOT
HETATM    1  O           1     -20.356  -8.933  -5.690  0.00  0.00    -0.271 OA
HETATM    2  N           1     -21.663  -8.437  -3.948  0.00  0.00    -0.345 N 
HETATM    3  C           1     -21.174  -8.189  -5.202  0.00  0.00     0.251 C 
HETATM    4  H           1     -22.348  -7.814  -3.539  0.00  0.00     0.163 HD
ENDROOT
BRANCH   2   5
HETATM    5  C           1     -21.200  -9.593  -3.204  0.00  0.00     0.185 C 
BRANCH   5   6
HETATM    6  C           1     -20.828  -9.170  -1.789  0.00  0.00     0.036 C 
BRANCH   6   7
HETATM    7  C           1     -20.840  -7.650  -1.693  0.00  0.00     0.004 C 
BRANCH   7   8
HETATM    8  C           1     -22.029  -7.202  -0.854  0.00  0.00     0.027 C 
BRANCH   8   9
HETATM    9  C           1     -22.262  -8.200   0.271  0.00  0.00     0.229 C 
BRANCH   9  10
HETATM   10  N           1     -23.690  -8.123   0.723  0.00  0.00    -0.079 N 
HETATM   11  H           1     -23.885  -7.170   1.102  0.00  0.00     0.274 HD
HETATM   12  H           1     -24.321  -8.310  -0.089  0.00  0.00     0.274 HD
HETATM   13  H           1     -23.859  -8.835   1.468  0.00  0.00     0.274 HD
ENDBRANCH   9  10
ENDBRANCH   8   9
ENDBRANCH   7   8
ENDBRANCH   6   7
ENDBRANCH   5   6
BRANCH   5  14
HETATM   14  C           1     -22.297 -10.627  -3.149  0.00  0.00     0.196 C 
HETATM   15  O           1     -22.954 -10.785  -2.097  0.00  0.00    -0.646 OA
HETATM   16  O           1     -22.548 -11.326  -4.154  0.00  0.00    -0.646 OA
ENDBRANCH   5  14
ENDBRANCH   2   5
BRANCH   3  17
HETATM   17  C           1     -21.656  -6.986  -5.976  0.00  0.00     0.298 C 
BRANCH  17  18
HETATM   18  C           1     -20.458  -6.188  -6.472  0.00  0.00     0.224 C 
BRANCH  18  19
HETATM   19  O           1     -20.592  -5.948  -7.847  0.00  0.00    -0.287 OA
BRANCH  19  20
HETATM   20  P           1     -20.892  -4.419  -8.273  0.00  0.00     0.406 P 
HETATM   21  O           1     -19.632  -3.644  -8.241  0.00  0.00    -0.624 OA
HETATM   22  O           1     -21.456  -4.390  -9.641  0.00  0.00    -0.624 OA
BRANCH  20  23
HETATM   23  O           1     -21.950  -3.770  -7.241  0.00  0.00    -0.300 OA
HETATM   24  H           1     -22.587  -3.336  -7.785  0.00  0.00     0.223 HD
ENDBRANCH  20  23
ENDBRANCH  19  20
ENDBRANCH  18  19
ENDBRANCH  17  18
BRANCH  17  25
HETATM   25  N           1     -22.497  -6.123  -5.084  0.00  0.00    -0.064 N 
HETATM   26  H           1     -21.977  -5.246  -4.857  0.00  0.00     0.275 HD
HETATM   27  H           1     -23.390  -5.883  -5.573  0.00  0.00     0.275 HD
HETATM   28  H           1     -22.712  -6.640  -4.201  0.00  0.00     0.275 HD
ENDBRANCH  17  25
ENDBRANCH   3  17
TORSDOF 13
ENDMDL
