MODEL 1
REMARK VINA RESULT:      -7.1      0.000      0.000
REMARK  10 active torsions:
REMARK  status: ('A' for Active; 'I' for Inactive)
REMARK    1  A    between atoms: O_2  and  C_16 
REMARK    2  A    between atoms: O_2  and  P_7 
REMARK    3  A    between atoms: N_6  and  C_22 
REMARK    4  A    between atoms: P_7  and  O_9 
REMARK    5  A    between atoms: C_14  and  C_27 
REMARK    6  A    between atoms: C_14  and  C_16 
REMARK    7  A    between atoms: C_14  and  N_19 
REMARK       I    between atoms: N_19  and  C_21 
REMARK    8  A    between atoms: C_20  and  C_22 
REMARK    9  A    between atoms: C_20  and  C_25 
REMARK   10  A    between atoms: C_21  and  C_22 
ROOT
HETATM    1  O           1     -21.791  -3.081  -7.821  0.00  0.00    -0.271 OA
HETATM    2  N           1     -21.800  -4.483  -9.559  0.00  0.00    -0.343 N 
HETATM    3  C           1     -21.432  -4.136  -8.287  0.00  0.00     0.249 C 
HETATM    4  H           1     -21.499  -5.367  -9.949  0.00  0.00     0.163 HD
ENDROOT
BRANCH   3   5
HETATM    5  C           1     -20.577  -5.070  -7.468  0.00  0.00     0.280 C 
BRANCH   5   6
HETATM    6  N           1     -19.131  -4.711  -7.648  0.00  0.00    -0.066 N 
HETATM    7  H           1     -18.836  -4.057  -6.889  0.00  0.00     0.275 HD
HETATM    8  H           1     -18.550  -5.579  -7.605  0.00  0.00     0.275 HD
HETATM    9  H           1     -18.999  -4.250  -8.576  0.00  0.00     0.275 HD
ENDBRANCH   5   6
BRANCH   5  10
HETATM   10  C           1     -20.950  -4.944  -5.997  0.00  0.00     0.101 C 
BRANCH  10  11
HETATM   11  C           1     -21.152  -6.308  -5.414  0.00  0.00     0.028 A 
HETATM   12  N           1     -20.986  -7.482  -6.103  0.00  0.00    -0.355 N 
HETATM   13  C           1     -21.257  -8.432  -5.238  0.00  0.00     0.180 A 
ATOM     14  HN          1     -20.710  -7.594  -7.078  1.00  0.00     0.166 HD
HETATM   15  N           1     -21.591  -7.918  -4.018  0.00  0.00    -0.360 N 
HETATM   16  C           1     -21.528  -6.555  -4.115  0.00  0.00     0.114 A 
HETATM   17  H           1     -21.848  -8.467  -3.161  0.00  0.00     0.166 HD
ENDBRANCH  10  11
ENDBRANCH   5  10
ENDBRANCH   3   5
BRANCH   2  18
HETATM   18  C           1     -22.623  -3.585 -10.346  0.00  0.00     0.210 C 
BRANCH  18  19
HETATM   19  C           1     -24.080  -3.873 -10.079  0.00  0.00     0.198 C 
HETATM   20  O           1     -24.854  -2.943  -9.766  0.00  0.00    -0.646 OA
HETATM   21  O           1     -24.513  -5.041 -10.173  0.00  0.00    -0.646 OA
ENDBRANCH  18  19
BRANCH  18  22
HETATM   22  C           1     -22.328  -3.791 -11.826  0.00  0.00     0.217 C 
BRANCH  22  23
HETATM   23  O           1     -22.581  -2.602 -12.523  0.00  0.00    -0.287 OA
BRANCH  23  24
HETATM   24  P           1     -23.505  -2.736 -13.841  0.00  0.00     0.406 P 
HETATM   25  O           1     -24.353  -3.945 -13.729  0.00  0.00    -0.624 OA
HETATM   26  O           1     -22.643  -2.850 -15.038  0.00  0.00    -0.624 OA
BRANCH  24  27
HETATM   27  O           1     -24.445  -1.431 -13.975  0.00  0.00    -0.300 OA
HETATM   28  H           1     -24.900  -1.372 -13.153  0.00  0.00     0.223 HD
ENDBRANCH  24  27
ENDBRANCH  23  24
ENDBRANCH  22  23
ENDBRANCH  18  22
ENDBRANCH   2  18
TORSDOF 10
ENDMDL
MODEL 2
REMARK VINA RESULT:      -6.2      4.905      7.962
REMARK  10 active torsions:
REMARK  status: ('A' for Active; 'I' for Inactive)
REMARK    1  A    between atoms: O_2  and  C_16 
REMARK    2  A    between atoms: O_2  and  P_7 
REMARK    3  A    between atoms: N_6  and  C_22 
REMARK    4  A    between atoms: P_7  and  O_9 
REMARK    5  A    between atoms: C_14  and  C_27 
REMARK    6  A    between atoms: C_14  and  C_16 
REMARK    7  A    between atoms: C_14  and  N_19 
REMARK       I    between atoms: N_19  and  C_21 
REMARK    8  A    between atoms: C_20  and  C_22 
REMARK    9  A    between atoms: C_20  and  C_25 
REMARK   10  A    between atoms: C_21  and  C_22 
ROOT
HETATM    1  O           1     -23.266  -5.402  -5.929  0.00  0.00    -0.271 OA
HETATM    2  N           1     -21.306  -6.347  -5.424  0.00  0.00    -0.343 N 
HETATM    3  C           1     -22.071  -5.441  -6.108  0.00  0.00     0.249 C 
HETATM    4  H           1     -20.306  -6.379  -5.574  0.00  0.00     0.163 HD
ENDROOT
BRANCH   3   5
HETATM    5  C           1     -21.424  -4.492  -7.085  0.00  0.00     0.280 C 
BRANCH   5   6
HETATM    6  N           1     -19.959  -4.381  -6.779  0.00  0.00    -0.066 N 
HETATM    7  H           1     -19.736  -3.404  -6.482  0.00  0.00     0.275 HD
HETATM    8  H           1     -19.715  -5.042  -6.007  0.00  0.00     0.275 HD
HETATM    9  H           1     -19.406  -4.620  -7.631  0.00  0.00     0.275 HD
ENDBRANCH   5   6
BRANCH   5  10
HETATM   10  C           1     -21.605  -5.017  -8.502  0.00  0.00     0.101 C 
BRANCH  10  11
HETATM   11  C           1     -22.732  -4.289  -9.165  0.00  0.00     0.028 A 
HETATM   12  N           1     -23.878  -3.882  -8.530  0.00  0.00    -0.355 N 
HETATM   13  C           1     -24.595  -3.289  -9.455  0.00  0.00     0.180 A 
ATOM     14  HN          1     -24.121  -4.013  -7.548  1.00  0.00     0.166 HD
HETATM   15  N           1     -23.958  -3.295 -10.663  0.00  0.00    -0.360 N 
HETATM   16  C           1     -22.761  -3.934 -10.493  0.00  0.00     0.114 A 
HETATM   17  H           1     -24.320  -2.885 -11.559  0.00  0.00     0.166 HD
ENDBRANCH  10  11
ENDBRANCH   5  10
ENDBRANCH   3   5
BRANCH   2  18
HETATM   18  C           1     -21.929  -7.259  -4.484  0.00  0.00     0.210 C 
BRANCH  18  19
HETATM   19  C           1     -21.598  -6.832  -3.075  0.00  0.00     0.198 C 
HETATM   20  O           1     -22.244  -5.908  -2.534  0.00  0.00    -0.646 OA
HETATM   21  O           1     -20.681  -7.404  -2.448  0.00  0.00    -0.646 OA
ENDBRANCH  18  19
BRANCH  18  22
HETATM   22  C           1     -21.406  -8.669  -4.723  0.00  0.00     0.217 C 
BRANCH  22  23
HETATM   23  O           1     -20.334  -8.623  -5.626  0.00  0.00    -0.287 OA
BRANCH  23  24
HETATM   24  P           1     -19.036  -9.499  -5.228  0.00  0.00     0.406 P 
HETATM   25  O           1     -17.977  -9.301  -6.244  0.00  0.00    -0.624 OA
HETATM   26  O           1     -19.404 -10.931  -5.173  0.00  0.00    -0.624 OA
BRANCH  24  27
HETATM   27  O           1     -18.491  -9.026  -3.784  0.00  0.00    -0.300 OA
HETATM   28  H           1     -17.585  -8.810  -3.923  0.00  0.00     0.223 HD
ENDBRANCH  24  27
ENDBRANCH  23  24
ENDBRANCH  22  23
ENDBRANCH  18  22
ENDBRANCH   2  18
TORSDOF 10
ENDMDL
MODEL 3
REMARK VINA RESULT:      -6.1      5.325      8.699
REMARK  10 active torsions:
REMARK  status: ('A' for Active; 'I' for Inactive)
REMARK    1  A    between atoms: O_2  and  C_16 
REMARK    2  A    between atoms: O_2  and  P_7 
REMARK    3  A    between atoms: N_6  and  C_22 
REMARK    4  A    between atoms: P_7  and  O_9 
REMARK    5  A    between atoms: C_14  and  C_27 
REMARK    6  A    between atoms: C_14  and  C_16 
REMARK    7  A    between atoms: C_14  and  N_19 
REMARK       I    between atoms: N_19  and  C_21 
REMARK    8  A    between atoms: C_20  and  C_22 
REMARK    9  A    between atoms: C_20  and  C_25 
REMARK   10  A    between atoms: C_21  and  C_22 
ROOT
HETATM    1  O           1     -19.699  -5.336  -6.828  0.00  0.00    -0.271 OA
HETATM    2  N           1     -21.617  -6.019  -5.910  0.00  0.00    -0.343 N 
HETATM    3  C           1     -20.904  -5.387  -6.893  0.00  0.00     0.249 C 
HETATM    4  H           1     -22.626  -6.061  -5.965  0.00  0.00     0.163 HD
ENDROOT
BRANCH   3   5
HETATM    5  C           1     -21.624  -4.753  -8.057  0.00  0.00     0.280 C 
BRANCH   5   6
HETATM    6  N           1     -22.225  -3.449  -7.623  0.00  0.00    -0.066 N 
HETATM    7  H           1     -22.508  -3.511  -6.619  0.00  0.00     0.275 HD
HETATM    8  H           1     -21.520  -2.686  -7.739  0.00  0.00     0.275 HD
HETATM    9  H           1     -23.064  -3.240  -8.209  0.00  0.00     0.275 HD
ENDBRANCH   5   6
BRANCH   5  10
HETATM   10  C           1     -20.638  -4.503  -9.191  0.00  0.00     0.101 C 
BRANCH  10  11
HETATM   11  C           1     -21.383  -4.082 -10.418  0.00  0.00     0.028 A 
HETATM   12  N           1     -22.614  -4.563 -10.786  0.00  0.00    -0.355 N 
HETATM   13  C           1     -22.907  -3.944 -11.906  0.00  0.00     0.180 A 
ATOM     14  HN          1     -23.181  -5.253 -10.294  1.00  0.00     0.166 HD
HETATM   15  N           1     -21.915  -3.082 -12.276  0.00  0.00    -0.360 N 
HETATM   16  C           1     -20.930  -3.159 -11.331  0.00  0.00     0.114 A 
HETATM   17  H           1     -21.909  -2.471 -13.130  0.00  0.00     0.166 HD
ENDBRANCH  10  11
ENDBRANCH   5  10
ENDBRANCH   3   5
BRANCH   2  18
HETATM   18  C           1     -20.925  -6.628  -4.791  0.00  0.00     0.210 C 
BRANCH  18  19
HETATM   19  C           1     -20.652  -8.080  -5.099  0.00  0.00     0.198 C 
HETATM   20  O           1     -21.530  -8.942  -4.877  0.00  0.00    -0.646 OA
HETATM   21  O           1     -19.548  -8.420  -5.576  0.00  0.00    -0.646 OA
ENDBRANCH  18  19
BRANCH  18  22
HETATM   22  C           1     -21.791  -6.529  -3.543  0.00  0.00     0.217 C 
BRANCH  22  23
HETATM   23  O           1     -21.013  -6.807  -2.410  0.00  0.00    -0.287 OA
BRANCH  23  24
HETATM   24  P           1     -21.703  -7.745  -1.290  0.00  0.00     0.406 P 
HETATM   25  O           1     -22.840  -7.024  -0.674  0.00  0.00    -0.624 OA
HETATM   26  O           1     -20.709  -8.079  -0.247  0.00  0.00    -0.624 OA
BRANCH  24  27
HETATM   27  O           1     -22.238  -9.103  -1.981  0.00  0.00    -0.300 OA
HETATM   28  H           1     -22.907  -9.424  -1.402  0.00  0.00     0.223 HD
ENDBRANCH  24  27
ENDBRANCH  23  24
ENDBRANCH  22  23
ENDBRANCH  18  22
ENDBRANCH   2  18
TORSDOF 10
ENDMDL
MODEL 4
REMARK VINA RESULT:      -6.1      5.795      9.121
REMARK  10 active torsions:
REMARK  status: ('A' for Active; 'I' for Inactive)
REMARK    1  A    between atoms: O_2  and  C_16 
REMARK    2  A    between atoms: O_2  and  P_7 
REMARK    3  A    between atoms: N_6  and  C_22 
REMARK    4  A    between atoms: P_7  and  O_9 
REMARK    5  A    between atoms: C_14  and  C_27 
REMARK    6  A    between atoms: C_14  and  C_16 
REMARK    7  A    between atoms: C_14  and  N_19 
REMARK       I    between atoms: N_19  and  C_21 
REMARK    8  A    between atoms: C_20  and  C_22 
REMARK    9  A    between atoms: C_20  and  C_25 
REMARK   10  A    between atoms: C_21  and  C_22 
ROOT
HETATM    1  O           1     -20.242  -5.503  -5.765  0.00  0.00    -0.271 OA
HETATM    2  N           1     -22.067  -6.177  -4.668  0.00  0.00    -0.343 N 
HETATM    3  C           1     -21.446  -5.606  -5.745  0.00  0.00     0.249 C 
HETATM    4  H           1     -23.075  -6.263  -4.652  0.00  0.00     0.163 HD
ENDROOT
BRANCH   3   5
HETATM    5  C           1     -22.264  -5.103  -6.908  0.00  0.00     0.280 C 
BRANCH   5   6
HETATM    6  N           1     -23.654  -4.783  -6.441  0.00  0.00    -0.066 N 
HETATM    7  H           1     -24.308  -5.539  -6.744  0.00  0.00     0.275 HD
HETATM    8  H           1     -23.661  -4.714  -5.398  0.00  0.00     0.275 HD
HETATM    9  H           1     -23.958  -3.873  -6.852  0.00  0.00     0.275 HD
ENDBRANCH   5   6
BRANCH   5  10
HETATM   10  C           1     -21.620  -3.847  -7.479  0.00  0.00     0.101 C 
BRANCH  10  11
HETATM   11  C           1     -21.389  -4.026  -8.947  0.00  0.00     0.028 A 
HETATM   12  N           1     -20.188  -4.373  -9.510  0.00  0.00    -0.355 N 
HETATM   13  C           1     -20.413  -4.424 -10.802  0.00  0.00     0.180 A 
ATOM     14  HN          1     -19.307  -4.553  -9.028  1.00  0.00     0.166 HD
HETATM   15  N           1     -21.712  -4.124 -11.096  0.00  0.00    -0.360 N 
HETATM   16  C           1     -22.352  -3.866  -9.915  0.00  0.00     0.114 A 
HETATM   17  H           1     -22.142  -4.097 -12.053  0.00  0.00     0.166 HD
ENDBRANCH  10  11
ENDBRANCH   5  10
ENDBRANCH   3   5
BRANCH   2  18
HETATM   18  C           1     -21.280  -6.661  -3.550  0.00  0.00     0.210 C 
BRANCH  18  19
HETATM   19  C           1     -20.907  -8.103  -3.784  0.00  0.00     0.198 C 
HETATM   20  O           1     -21.800  -8.969  -3.907  0.00  0.00    -0.646 OA
HETATM   21  O           1     -19.704  -8.434  -3.857  0.00  0.00    -0.646 OA
ENDBRANCH  18  19
BRANCH  18  22
HETATM   22  C           1     -22.096  -6.550  -2.269  0.00  0.00     0.217 C 
BRANCH  22  23
HETATM   23  O           1     -21.366  -7.091  -1.201  0.00  0.00    -0.287 OA
BRANCH  23  24
HETATM   24  P           1     -22.179  -8.081  -0.217  0.00  0.00     0.406 P 
HETATM   25  O           1     -23.444  -7.434   0.198  0.00  0.00    -0.624 OA
HETATM   26  O           1     -21.358  -8.370   0.980  0.00  0.00    -0.624 OA
BRANCH  24  27
HETATM   27  O           1     -22.508  -9.459  -0.991  0.00  0.00    -0.300 OA
HETATM   28  H           1     -21.768  -9.606  -1.553  0.00  0.00     0.223 HD
ENDBRANCH  24  27
ENDBRANCH  23  24
ENDBRANCH  22  23
ENDBRANCH  18  22
ENDBRANCH   2  18
TORSDOF 10
ENDMDL
MODEL 5
REMARK VINA RESULT:      -6.0      2.538      4.234
REMARK  10 active torsions:
REMARK  status: ('A' for Active; 'I' for Inactive)
REMARK    1  A    between atoms: O_2  and  C_16 
REMARK    2  A    between atoms: O_2  and  P_7 
REMARK    3  A    between atoms: N_6  and  C_22 
REMARK    4  A    between atoms: P_7  and  O_9 
REMARK    5  A    between atoms: C_14  and  C_27 
REMARK    6  A    between atoms: C_14  and  C_16 
REMARK    7  A    between atoms: C_14  and  N_19 
REMARK       I    between atoms: N_19  and  C_21 
REMARK    8  A    between atoms: C_20  and  C_22 
REMARK    9  A    between atoms: C_20  and  C_25 
REMARK   10  A    between atoms: C_21  and  C_22 
ROOT
HETATM    1  O           1     -21.315  -7.375  -6.576  0.00  0.00    -0.271 OA
HETATM    2  N           1     -21.296  -5.158  -6.308  0.00  0.00    -0.343 N 
HETATM    3  C           1     -21.230  -6.435  -5.821  0.00  0.00     0.249 C 
HETATM    4  H           1     -21.225  -4.371  -5.675  0.00  0.00     0.163 HD
ENDROOT
BRANCH   3   5
HETATM    5  C           1     -21.053  -6.670  -4.342  0.00  0.00     0.280 C 
BRANCH   5   6
HETATM    6  N           1     -22.296  -6.247  -3.616  0.00  0.00    -0.066 N 
HETATM    7  H           1     -23.086  -6.161  -4.295  0.00  0.00     0.275 HD
HETATM    8  H           1     -22.536  -6.962  -2.893  0.00  0.00     0.275 HD
HETATM    9  H           1     -22.133  -5.325  -3.154  0.00  0.00     0.275 HD
ENDBRANCH   5   6
BRANCH   5  10
HETATM   10  C           1     -20.799  -8.150  -4.088  0.00  0.00     0.101 C 
BRANCH  10  11
HETATM   11  C           1     -21.048  -8.460  -2.645  0.00  0.00     0.028 A 
HETATM   12  N           1     -20.457  -7.807  -1.594  0.00  0.00    -0.355 N 
HETATM   13  C           1     -20.941  -8.376  -0.515  0.00  0.00     0.180 A 
ATOM     14  HN          1     -19.784  -7.041  -1.641  1.00  0.00     0.166 HD
HETATM   15  N           1     -21.823  -9.371  -0.827  0.00  0.00    -0.360 N 
HETATM   16  C           1     -21.902  -9.437  -2.191  0.00  0.00     0.114 A 
HETATM   17  H           1     -22.344  -9.976  -0.145  0.00  0.00     0.166 HD
ENDBRANCH  10  11
ENDBRANCH   5  10
ENDBRANCH   3   5
BRANCH   2  18
HETATM   18  C           1     -21.465  -4.932  -7.730  0.00  0.00     0.210 C 
BRANCH  18  19
HETATM   19  C           1     -20.123  -4.653  -8.359  0.00  0.00     0.198 C 
HETATM   20  O           1     -19.119  -4.474  -7.636  0.00  0.00    -0.646 OA
HETATM   21  O           1     -20.014  -4.602  -9.603  0.00  0.00    -0.646 OA
ENDBRANCH  18  19
BRANCH  18  22
HETATM   22  C           1     -22.386  -3.738  -7.949  0.00  0.00     0.217 C 
BRANCH  22  23
HETATM   23  O           1     -23.615  -4.183  -8.455  0.00  0.00    -0.287 OA
BRANCH  23  24
HETATM   24  P           1     -23.824  -4.020 -10.049  0.00  0.00     0.406 P 
HETATM   25  O           1     -25.063  -3.251 -10.308  0.00  0.00    -0.624 OA
HETATM   26  O           1     -23.936  -5.358 -10.671  0.00  0.00    -0.624 OA
BRANCH  24  27
HETATM   27  O           1     -22.563  -3.235 -10.680  0.00  0.00    -0.300 OA
HETATM   28  H           1     -22.228  -2.706  -9.977  0.00  0.00     0.223 HD
ENDBRANCH  24  27
ENDBRANCH  23  24
ENDBRANCH  22  23
ENDBRANCH  18  22
ENDBRANCH   2  18
TORSDOF 10
ENDMDL
MODEL 6
REMARK VINA RESULT:      -5.9      6.033      8.988
REMARK  10 active torsions:
REMARK  status: ('A' for Active; 'I' for Inactive)
REMARK    1  A    between atoms: O_2  and  C_16 
REMARK    2  A    between atoms: O_2  and  P_7 
REMARK    3  A    between atoms: N_6  and  C_22 
REMARK    4  A    between atoms: P_7  and  O_9 
REMARK    5  A    between atoms: C_14  and  C_27 
REMARK    6  A    between atoms: C_14  and  C_16 
REMARK    7  A    between atoms: C_14  and  N_19 
REMARK       I    between atoms: N_19  and  C_21 
REMARK    8  A    between atoms: C_20  and  C_22 
REMARK    9  A    between atoms: C_20  and  C_25 
REMARK   10  A    between atoms: C_21  and  C_22 
ROOT
HETATM    1  O           1     -19.534  -7.621  -6.282  0.00  0.00    -0.271 OA
HETATM    2  N           1     -20.761  -7.585  -4.415  0.00  0.00    -0.343 N 
HETATM    3  C           1     -20.333  -7.032  -5.592  0.00  0.00     0.249 C 
HETATM    4  H           1     -21.429  -7.092  -3.838  0.00  0.00     0.163 HD
ENDROOT
BRANCH   3   5
HETATM    5  C           1     -20.857  -5.686  -6.027  0.00  0.00     0.280 C 
BRANCH   5   6
HETATM    6  N           1     -20.075  -4.601  -5.347  0.00  0.00    -0.066 N 
HETATM    7  H           1     -20.406  -3.668  -5.683  0.00  0.00     0.275 HD
HETATM    8  H           1     -20.215  -4.668  -4.314  0.00  0.00     0.275 HD
HETATM    9  H           1     -19.061  -4.711  -5.570  0.00  0.00     0.275 HD
ENDBRANCH   5   6
BRANCH   5  10
HETATM   10  C           1     -20.710  -5.546  -7.536  0.00  0.00     0.101 C 
BRANCH  10  11
HETATM   11  C           1     -21.890  -4.807  -8.087  0.00  0.00     0.028 A 
HETATM   12  N           1     -21.990  -4.351  -9.376  0.00  0.00    -0.355 N 
HETATM   13  C           1     -23.164  -3.768  -9.447  0.00  0.00     0.180 A 
ATOM     14  HN          1     -21.300  -4.444 -10.122  1.00  0.00     0.166 HD
HETATM   15  N           1     -23.827  -3.831  -8.254  0.00  0.00    -0.360 N 
HETATM   16  C           1     -23.021  -4.495  -7.371  0.00  0.00     0.114 A 
HETATM   17  H           1     -24.780  -3.441  -8.051  0.00  0.00     0.166 HD
ENDBRANCH  10  11
ENDBRANCH   5  10
ENDBRANCH   3   5
BRANCH   2  18
HETATM   18  C           1     -20.257  -8.879  -3.998  0.00  0.00     0.210 C 
BRANCH  18  19
HETATM   19  C           1     -21.200  -9.961  -4.463  0.00  0.00     0.198 C 
HETATM   20  O           1     -20.954 -10.595  -5.512  0.00  0.00    -0.646 OA
HETATM   21  O           1     -22.225 -10.223  -3.799  0.00  0.00    -0.646 OA
ENDBRANCH  18  19
BRANCH  18  22
HETATM   22  C           1     -20.152  -8.917  -2.479  0.00  0.00     0.217 C 
BRANCH  22  23
HETATM   23  O           1     -20.805  -7.801  -1.937  0.00  0.00    -0.287 OA
BRANCH  23  24
HETATM   24  P           1     -21.843  -8.102  -0.736  0.00  0.00     0.406 P 
HETATM   25  O           1     -22.806  -6.984  -0.623  0.00  0.00    -0.624 OA
HETATM   26  O           1     -21.098  -8.241   0.535  0.00  0.00    -0.624 OA
BRANCH  24  27
HETATM   27  O           1     -22.641  -9.471  -1.045  0.00  0.00    -0.300 OA
HETATM   28  H           1     -23.470  -9.374  -0.610  0.00  0.00     0.223 HD
ENDBRANCH  24  27
ENDBRANCH  23  24
ENDBRANCH  22  23
ENDBRANCH  18  22
ENDBRANCH   2  18
TORSDOF 10
ENDMDL
MODEL 7
REMARK VINA RESULT:      -5.8      5.488      8.311
REMARK  10 active torsions:
REMARK  status: ('A' for Active; 'I' for Inactive)
REMARK    1  A    between atoms: O_2  and  C_16 
REMARK    2  A    between atoms: O_2  and  P_7 
REMARK    3  A    between atoms: N_6  and  C_22 
REMARK    4  A    between atoms: P_7  and  O_9 
REMARK    5  A    between atoms: C_14  and  C_27 
REMARK    6  A    between atoms: C_14  and  C_16 
REMARK    7  A    between atoms: C_14  and  N_19 
REMARK       I    between atoms: N_19  and  C_21 
REMARK    8  A    between atoms: C_20  and  C_22 
REMARK    9  A    between atoms: C_20  and  C_25 
REMARK   10  A    between atoms: C_21  and  C_22 
ROOT
HETATM    1  O           1     -20.193  -4.364  -5.532  0.00  0.00    -0.271 OA
HETATM    2  N           1     -21.008  -6.272  -6.361  0.00  0.00    -0.343 N 
HETATM    3  C           1     -20.713  -4.939  -6.460  0.00  0.00     0.249 C 
HETATM    4  H           1     -21.442  -6.753  -7.137  0.00  0.00     0.163 HD
ENDROOT
BRANCH   3   5
HETATM    5  C           1     -21.037  -4.187  -7.727  0.00  0.00     0.280 C 
BRANCH   5   6
HETATM    6  N           1     -19.774  -3.627  -8.312  0.00  0.00    -0.066 N 
HETATM    7  H           1     -18.949  -4.112  -7.893  0.00  0.00     0.275 HD
HETATM    8  H           1     -19.775  -3.776  -9.347  0.00  0.00     0.275 HD
HETATM    9  H           1     -19.718  -2.605  -8.107  0.00  0.00     0.275 HD
ENDBRANCH   5   6
BRANCH   5  10
HETATM   10  C           1     -21.683  -5.133  -8.729  0.00  0.00     0.101 C 
BRANCH  10  11
HETATM   11  C           1     -22.906  -4.491  -9.305  0.00  0.00     0.028 A 
HETATM   12  N           1     -23.670  -3.551  -8.661  0.00  0.00    -0.355 N 
HETATM   13  C           1     -24.633  -3.253  -9.501  0.00  0.00     0.180 A 
ATOM     14  HN          1     -23.521  -3.166  -7.729  1.00  0.00     0.166 HD
HETATM   15  N           1     -24.522  -3.962 -10.663  0.00  0.00    -0.360 N 
HETATM   16  C           1     -23.419  -4.762 -10.552  0.00  0.00     0.114 A 
HETATM   17  H           1     -25.166  -3.905 -11.490  0.00  0.00     0.166 HD
ENDBRANCH  10  11
ENDBRANCH   5  10
ENDBRANCH   3   5
BRANCH   2  18
HETATM   18  C           1     -20.696  -6.995  -5.143  0.00  0.00     0.210 C 
BRANCH  18  19
HETATM   19  C           1     -20.259  -8.397  -5.488  0.00  0.00     0.198 C 
HETATM   20  O           1     -21.099  -9.322  -5.525  0.00  0.00    -0.646 OA
HETATM   21  O           1     -19.058  -8.634  -5.737  0.00  0.00    -0.646 OA
ENDBRANCH  18  19
BRANCH  18  22
HETATM   22  C           1     -21.932  -7.053  -4.256  0.00  0.00     0.217 C 
BRANCH  22  23
HETATM   23  O           1     -21.596  -6.642  -2.958  0.00  0.00    -0.287 OA
BRANCH  23  24
HETATM   24  P           1     -21.486  -7.813  -1.851  0.00  0.00     0.406 P 
HETATM   25  O           1     -22.400  -7.515  -0.725  0.00  0.00    -0.624 OA
HETATM   26  O           1     -20.096  -7.888  -1.349  0.00  0.00    -0.624 OA
BRANCH  24  27
HETATM   27  O           1     -21.897  -9.224  -2.518  0.00  0.00    -0.300 OA
HETATM   28  H           1     -21.909  -9.837  -1.804  0.00  0.00     0.223 HD
ENDBRANCH  24  27
ENDBRANCH  23  24
ENDBRANCH  22  23
ENDBRANCH  18  22
ENDBRANCH   2  18
TORSDOF 10
ENDMDL
MODEL 8
REMARK VINA RESULT:      -5.8      5.683      8.776
REMARK  10 active torsions:
REMARK  status: ('A' for Active; 'I' for Inactive)
REMARK    1  A    between atoms: O_2  and  C_16 
REMARK    2  A    between atoms: O_2  and  P_7 
REMARK    3  A    between atoms: N_6  and  C_22 
REMARK    4  A    between atoms: P_7  and  O_9 
REMARK    5  A    between atoms: C_14  and  C_27 
REMARK    6  A    between atoms: C_14  and  C_16 
REMARK    7  A    between atoms: C_14  and  N_19 
REMARK       I    between atoms: N_19  and  C_21 
REMARK    8  A    between atoms: C_20  and  C_22 
REMARK    9  A    between atoms: C_20  and  C_25 
REMARK   10  A    between atoms: C_21  and  C_22 
ROOT
HETATM    1  O           1     -23.099  -5.850  -5.560  0.00  0.00    -0.271 OA
HETATM    2  N           1     -21.089  -6.517  -4.850  0.00  0.00    -0.343 N 
HETATM    3  C           1     -21.897  -5.742  -5.636  0.00  0.00     0.249 C 
HETATM    4  H           1     -20.083  -6.426  -4.914  0.00  0.00     0.163 HD
ENDROOT
BRANCH   3   5
HETATM    5  C           1     -21.289  -4.752  -6.599  0.00  0.00     0.280 C 
BRANCH   5   6
HETATM    6  N           1     -19.844  -4.543  -6.254  0.00  0.00    -0.066 N 
HETATM    7  H           1     -19.767  -4.162  -5.285  0.00  0.00     0.275 HD
HETATM    8  H           1     -19.339  -5.456  -6.309  0.00  0.00     0.275 HD
HETATM    9  H           1     -19.419  -3.869  -6.929  0.00  0.00     0.275 HD
ENDBRANCH   5   6
BRANCH   5  10
HETATM   10  C           1     -21.398  -5.291  -8.019  0.00  0.00     0.101 C 
BRANCH  10  11
HETATM   11  C           1     -22.429  -4.511  -8.772  0.00  0.00     0.028 A 
HETATM   12  N           1     -23.629  -4.100  -8.251  0.00  0.00    -0.355 N 
HETATM   13  C           1     -24.228  -3.455  -9.226  0.00  0.00     0.180 A 
ATOM     14  HN          1     -23.982  -4.260  -7.308  1.00  0.00     0.166 HD
HETATM   15  N           1     -23.461  -3.434 -10.356  0.00  0.00    -0.360 N 
HETATM   16  C           1     -22.304  -4.107 -10.080  0.00  0.00     0.114 A 
HETATM   17  H           1     -23.714  -2.982 -11.270  0.00  0.00     0.166 HD
ENDBRANCH  10  11
ENDBRANCH   5  10
ENDBRANCH   3   5
BRANCH   2  18
HETATM   18  C           1     -21.674  -7.468  -3.924  0.00  0.00     0.210 C 
BRANCH  18  19
HETATM   19  C           1     -21.612  -6.910  -2.524  0.00  0.00     0.198 C 
HETATM   20  O           1     -20.864  -7.439  -1.673  0.00  0.00    -0.646 OA
HETATM   21  O           1     -22.307  -5.918  -2.215  0.00  0.00    -0.646 OA
ENDBRANCH  18  19
BRANCH  18  22
HETATM   22  C           1     -20.899  -8.777  -3.984  0.00  0.00     0.217 C 
BRANCH  22  23
HETATM   23  O           1     -21.798  -9.849  -4.073  0.00  0.00    -0.287 OA
BRANCH  23  24
HETATM   24  P           1     -21.791 -10.884  -2.833  0.00  0.00     0.406 P 
HETATM   25  O           1     -21.434 -12.236  -3.320  0.00  0.00    -0.624 OA
HETATM   26  O           1     -23.135 -10.923  -2.215  0.00  0.00    -0.624 OA
BRANCH  24  27
HETATM   27  O           1     -20.706 -10.404  -1.737  0.00  0.00    -0.300 OA
HETATM   28  H           1     -19.909 -10.844  -1.974  0.00  0.00     0.223 HD
ENDBRANCH  24  27
ENDBRANCH  23  24
ENDBRANCH  22  23
ENDBRANCH  18  22
ENDBRANCH   2  18
TORSDOF 10
ENDMDL
MODEL 9
REMARK VINA RESULT:      -5.3      5.461      8.216
REMARK  10 active torsions:
REMARK  status: ('A' for Active; 'I' for Inactive)
REMARK    1  A    between atoms: O_2  and  C_16 
REMARK    2  A    between atoms: O_2  and  P_7 
REMARK    3  A    between atoms: N_6  and  C_22 
REMARK    4  A    between atoms: P_7  and  O_9 
REMARK    5  A    between atoms: C_14  and  C_27 
REMARK    6  A    between atoms: C_14  and  C_16 
REMARK    7  A    between atoms: C_14  and  N_19 
REMARK       I    between atoms: N_19  and  C_21 
REMARK    8  A    between atoms: C_20  and  C_22 
REMARK    9  A    between atoms: C_20  and  C_25 
REMARK   10  A    between atoms: C_21  and  C_22 
ROOT
HETATM    1  O           1     -23.122  -6.234  -5.064  0.00  0.00    -0.271 OA
HETATM    2  N           1     -21.147  -7.277  -5.110  0.00  0.00    -0.343 N 
HETATM    3  C           1     -21.963  -6.219  -5.408  0.00  0.00     0.249 C 
HETATM    4  H           1     -20.178  -7.264  -5.399  0.00  0.00     0.163 HD
ENDROOT
BRANCH   3   5
HETATM    5  C           1     -21.418  -5.035  -6.166  0.00  0.00     0.280 C 
BRANCH   5   6
HETATM    6  N           1     -20.089  -4.641  -5.590  0.00  0.00    -0.066 N 
HETATM    7  H           1     -19.394  -5.402  -5.762  0.00  0.00     0.275 HD
HETATM    8  H           1     -19.761  -3.761  -6.046  0.00  0.00     0.275 HD
HETATM    9  H           1     -20.188  -4.486  -4.562  0.00  0.00     0.275 HD
ENDBRANCH   5   6
BRANCH   5  10
HETATM   10  C           1     -21.243  -5.406  -7.633  0.00  0.00     0.101 C 
BRANCH  10  11
HETATM   11  C           1     -22.215  -4.630  -8.464  0.00  0.00     0.028 A 
HETATM   12  N           1     -23.436  -4.186  -8.025  0.00  0.00    -0.355 N 
HETATM   13  C           1     -23.965  -3.558  -9.049  0.00  0.00     0.180 A 
ATOM     14  HN          1     -23.846  -4.316  -7.100  1.00  0.00     0.166 HD
HETATM   15  N           1     -23.134  -3.578 -10.132  0.00  0.00    -0.360 N 
HETATM   16  C           1     -22.007  -4.262  -9.772  0.00  0.00     0.114 A 
HETATM   17  H           1     -23.325  -3.146 -11.070  0.00  0.00     0.166 HD
ENDBRANCH  10  11
ENDBRANCH   5  10
ENDBRANCH   3   5
BRANCH   2  18
HETATM   18  C           1     -21.672  -8.415  -4.381  0.00  0.00     0.210 C 
BRANCH  18  19
HETATM   19  C           1     -21.349  -8.265  -2.915  0.00  0.00     0.198 C 
HETATM   20  O           1     -20.551  -7.379  -2.537  0.00  0.00    -0.646 OA
HETATM   21  O           1     -21.880  -9.025  -2.077  0.00  0.00    -0.646 OA
ENDBRANCH  18  19
BRANCH  18  22
HETATM   22  C           1     -21.039  -9.694  -4.911  0.00  0.00     0.217 C 
BRANCH  22  23
HETATM   23  O           1     -19.833  -9.933  -4.238  0.00  0.00    -0.287 OA
BRANCH  23  24
HETATM   24  P           1     -18.497  -9.901  -5.145  0.00  0.00     0.406 P 
HETATM   25  O           1     -18.320 -11.211  -5.810  0.00  0.00    -0.624 OA
HETATM   26  O           1     -17.325  -9.622  -4.286  0.00  0.00    -0.624 OA
BRANCH  24  27
HETATM   27  O           1     -18.634  -8.744  -6.263  0.00  0.00    -0.300 OA
HETATM   28  H           1     -19.267  -9.072  -6.877  0.00  0.00     0.223 HD
ENDBRANCH  24  27
ENDBRANCH  23  24
ENDBRANCH  22  23
ENDBRANCH  18  22
ENDBRANCH   2  18
TORSDOF 10
ENDMDL
