MODEL 1
REMARK VINA RESULT:      -6.3      0.000      0.000
REMARK  7 active torsions:
REMARK  status: ('A' for Active; 'I' for Inactive)
REMARK    1  A    between atoms: N_3  and  C_12 
REMARK       I    between atoms: N_3  and  C_20 
REMARK    2  A    between atoms: C_8  and  C_12 
REMARK    3  A    between atoms: C_10  and  O_11 
REMARK    4  A    between atoms: C_10  and  C_12 
REMARK    5  A    between atoms: C_13  and  C_14 
REMARK    6  A    between atoms: C_14  and  C_20 
REMARK    7  A    between atoms: C_14  and  N_17 
ROOT
HETATM    1  O           1     -21.966  -3.425  -7.652  0.00  0.00    -0.271 OA
HETATM    2  N           1     -22.319  -4.706  -9.447  0.00  0.00    -0.343 N 
HETATM    3  H           1     -22.271  -5.626  -9.866  0.00  0.00     0.163 HD
HETATM    4  C           1     -21.910  -4.523  -8.153  0.00  0.00     0.249 C 
ENDROOT
BRANCH   2   5
HETATM    5  C           1     -22.819  -3.583 -10.215  0.00  0.00     0.214 C 
BRANCH   5   6
HETATM    6  C           1     -24.286  -3.789 -10.508  0.00  0.00     0.199 C 
HETATM    7  O           1     -24.849  -3.107 -11.390  0.00  0.00    -0.646 OA
HETATM    8  O           1     -24.937  -4.642  -9.866  0.00  0.00    -0.646 OA
ENDBRANCH   5   6
BRANCH   5   9
HETATM    9  C           1     -22.048  -3.483 -11.525  0.00  0.00     0.147 C 
HETATM   10  C           1     -20.555  -3.582 -11.243  0.00  0.00     0.042 C 
BRANCH   9  11
HETATM   11  O           1     -22.435  -4.528 -12.376  0.00  0.00    -0.393 OA
HETATM   12  H           1     -22.620  -5.272 -11.830  0.00  0.00     0.210 HD
ENDBRANCH   9  11
ENDBRANCH   5   9
ENDBRANCH   2   5
BRANCH   4  13
HETATM   13  C           1     -21.389  -5.691  -7.353  0.00  0.00     0.278 C 
BRANCH  13  14
HETATM   14  C           1     -21.530  -5.393  -5.866  0.00  0.00     0.017 C 
HETATM   15  C           1     -21.951  -6.659  -5.131  0.00  0.00     0.012 C 
HETATM   16  C           1     -20.193  -4.910  -5.317  0.00  0.00     0.012 C 
ENDBRANCH  13  14
BRANCH  13  17
HETATM   17  N           1     -19.943  -5.916  -7.682  0.00  0.00    -0.066 N 
HETATM   18  H           1     -19.657  -6.868  -7.358  0.00  0.00     0.275 HD
HETATM   19  H           1     -19.805  -5.842  -8.715  0.00  0.00     0.275 HD
HETATM   20  H           1     -19.360  -5.195  -7.200  0.00  0.00     0.275 HD
ENDBRANCH  13  17
ENDBRANCH   4  13
TORSDOF 7
ENDMDL
MODEL 2
REMARK VINA RESULT:      -5.6      1.676      2.139
REMARK  7 active torsions:
REMARK  status: ('A' for Active; 'I' for Inactive)
REMARK    1  A    between atoms: N_3  and  C_12 
REMARK       I    between atoms: N_3  and  C_20 
REMARK    2  A    between atoms: C_8  and  C_12 
REMARK    3  A    between atoms: C_10  and  O_11 
REMARK    4  A    between atoms: C_10  and  C_12 
REMARK    5  A    between atoms: C_13  and  C_14 
REMARK    6  A    between atoms: C_14  and  C_20 
REMARK    7  A    between atoms: C_14  and  N_17 
ROOT
HETATM    1  O           1     -24.156  -3.216  -8.689  0.00  0.00    -0.271 OA
HETATM    2  N           1     -22.261  -3.710  -9.762  0.00  0.00    -0.343 N 
HETATM    3  H           1     -21.327  -4.099  -9.718  0.00  0.00     0.163 HD
HETATM    4  C           1     -23.042  -3.680  -8.637  0.00  0.00     0.249 C 
ENDROOT
BRANCH   2   5
HETATM    5  C           1     -22.770  -3.184 -11.013  0.00  0.00     0.214 C 
BRANCH   5   6
HETATM    6  C           1     -23.768  -4.155 -11.596  0.00  0.00     0.199 C 
HETATM    7  O           1     -23.589  -5.386 -11.472  0.00  0.00    -0.646 OA
HETATM    8  O           1     -24.774  -3.728 -12.202  0.00  0.00    -0.646 OA
ENDBRANCH   5   6
BRANCH   5   9
HETATM    9  C           1     -21.617  -2.994 -11.989  0.00  0.00     0.147 C 
HETATM   10  C           1     -20.378  -3.700 -11.454  0.00  0.00     0.042 C 
BRANCH   9  11
HETATM   11  O           1     -21.964  -3.536 -13.234  0.00  0.00    -0.393 OA
HETATM   12  H           1     -22.115  -2.812 -13.817  0.00  0.00     0.210 HD
ENDBRANCH   9  11
ENDBRANCH   5   9
ENDBRANCH   2   5
BRANCH   4  13
HETATM   13  C           1     -22.511  -4.226  -7.335  0.00  0.00     0.278 C 
BRANCH  13  14
HETATM   14  C           1     -21.348  -5.169  -7.615  0.00  0.00     0.017 C 
HETATM   15  C           1     -20.035  -4.409  -7.482  0.00  0.00     0.012 C 
HETATM   16  C           1     -21.373  -6.316  -6.613  0.00  0.00     0.012 C 
ENDBRANCH  13  14
BRANCH  13  17
HETATM   17  N           1     -23.600  -4.975  -6.627  0.00  0.00    -0.066 N 
HETATM   18  H           1     -23.847  -5.831  -7.173  0.00  0.00     0.275 HD
HETATM   19  H           1     -23.270  -5.251  -5.674  0.00  0.00     0.275 HD
HETATM   20  H           1     -24.444  -4.364  -6.539  0.00  0.00     0.275 HD
ENDBRANCH  13  17
ENDBRANCH   4  13
TORSDOF 7
ENDMDL
MODEL 3
REMARK VINA RESULT:      -5.5     17.766     19.673
REMARK  7 active torsions:
REMARK  status: ('A' for Active; 'I' for Inactive)
REMARK    1  A    between atoms: N_3  and  C_12 
REMARK       I    between atoms: N_3  and  C_20 
REMARK    2  A    between atoms: C_8  and  C_12 
REMARK    3  A    between atoms: C_10  and  O_11 
REMARK    4  A    between atoms: C_10  and  C_12 
REMARK    5  A    between atoms: C_13  and  C_14 
REMARK    6  A    between atoms: C_14  and  C_20 
REMARK    7  A    between atoms: C_14  and  N_17 
ROOT
HETATM    1  O           1     -12.654   6.526 -21.670  0.00  0.00    -0.271 OA
HETATM    2  N           1     -11.276   6.758 -19.929  0.00  0.00    -0.343 N 
HETATM    3  H           1     -10.914   6.376 -19.064  0.00  0.00     0.163 HD
HETATM    4  C           1     -12.223   6.069 -20.638  0.00  0.00     0.249 C 
ENDROOT
BRANCH   2   5
HETATM    5  C           1     -10.791   8.035 -20.415  0.00  0.00     0.214 C 
BRANCH   5   6
HETATM    6  C           1      -9.339   7.905 -20.806  0.00  0.00     0.199 C 
HETATM    7  O           1      -8.727   8.890 -21.272  0.00  0.00    -0.646 OA
HETATM    8  O           1      -8.750   6.812 -20.665  0.00  0.00    -0.646 OA
ENDBRANCH   5   6
BRANCH   5   9
HETATM    9  C           1     -10.931   9.082 -19.317  0.00  0.00     0.147 C 
HETATM   10  C           1     -12.407   9.336 -19.044  0.00  0.00     0.042 C 
BRANCH   9  11
HETATM   11  O           1     -10.312   8.618 -18.148  0.00  0.00    -0.393 OA
HETATM   12  H           1     -10.003   9.375 -17.682  0.00  0.00     0.210 HD
ENDBRANCH   9  11
ENDBRANCH   5   9
ENDBRANCH   2   5
BRANCH   4  13
HETATM   13  C           1     -12.727   4.741 -20.131  0.00  0.00     0.278 C 
BRANCH  13  14
HETATM   14  C           1     -12.191   3.622 -21.016  0.00  0.00     0.017 C 
HETATM   15  C           1     -11.059   2.903 -20.296  0.00  0.00     0.012 C 
HETATM   16  C           1     -13.310   2.633 -21.315  0.00  0.00     0.012 C 
ENDBRANCH  13  14
BRANCH  13  17
HETATM   17  N           1     -14.226   4.729 -20.165  0.00  0.00    -0.066 N 
HETATM   18  H           1     -14.566   3.741 -20.179  0.00  0.00     0.275 HD
HETATM   19  H           1     -14.598   5.215 -19.317  0.00  0.00     0.275 HD
HETATM   20  H           1     -14.559   5.224 -21.024  0.00  0.00     0.275 HD
ENDBRANCH  13  17
ENDBRANCH   4  13
TORSDOF 7
ENDMDL
MODEL 4
REMARK VINA RESULT:      -5.5      2.331      5.681
REMARK  7 active torsions:
REMARK  status: ('A' for Active; 'I' for Inactive)
REMARK    1  A    between atoms: N_3  and  C_12 
REMARK       I    between atoms: N_3  and  C_20 
REMARK    2  A    between atoms: C_8  and  C_12 
REMARK    3  A    between atoms: C_10  and  O_11 
REMARK    4  A    between atoms: C_10  and  C_12 
REMARK    5  A    between atoms: C_13  and  C_14 
REMARK    6  A    between atoms: C_14  and  C_20 
REMARK    7  A    between atoms: C_14  and  N_17 
ROOT
HETATM    1  O           1     -21.947  -3.038  -7.703  0.00  0.00    -0.271 OA
HETATM    2  N           1     -22.104  -5.258  -7.514  0.00  0.00    -0.343 N 
HETATM    3  H           1     -22.480  -6.125  -7.876  0.00  0.00     0.163 HD
HETATM    4  C           1     -22.397  -4.073  -8.135  0.00  0.00     0.249 C 
ENDROOT
BRANCH   2   5
HETATM    5  C           1     -21.255  -5.270  -6.338  0.00  0.00     0.214 C 
BRANCH   5   6
HETATM    6  C           1     -19.864  -5.705  -6.729  0.00  0.00     0.199 C 
HETATM    7  O           1     -18.989  -4.849  -6.982  0.00  0.00    -0.646 OA
HETATM    8  O           1     -19.586  -6.922  -6.800  0.00  0.00    -0.646 OA
ENDBRANCH   5   6
BRANCH   5   9
HETATM    9  C           1     -21.824  -6.244  -5.314  0.00  0.00     0.147 C 
HETATM   10  C           1     -21.182  -5.984  -3.957  0.00  0.00     0.042 C 
BRANCH   9  11
HETATM   11  O           1     -23.210  -6.064  -5.218  0.00  0.00    -0.393 OA
HETATM   12  H           1     -23.359  -5.142  -5.095  0.00  0.00     0.210 HD
ENDBRANCH   9  11
ENDBRANCH   5   9
ENDBRANCH   2   5
BRANCH   4  13
HETATM   13  C           1     -23.280  -4.060  -9.358  0.00  0.00     0.278 C 
BRANCH  13  14
HETATM   14  C           1     -22.551  -3.372 -10.505  0.00  0.00     0.017 C 
HETATM   15  C           1     -21.462  -4.293 -11.039  0.00  0.00     0.012 C 
HETATM   16  C           1     -23.541  -3.059 -11.619  0.00  0.00     0.012 C 
ENDBRANCH  13  14
BRANCH  13  17
HETATM   17  N           1     -24.545  -3.315  -9.052  0.00  0.00    -0.066 N 
HETATM   18  H           1     -24.338  -2.293  -8.980  0.00  0.00     0.275 HD
HETATM   19  H           1     -25.239  -3.477  -9.817  0.00  0.00     0.275 HD
HETATM   20  H           1     -24.940  -3.654  -8.146  0.00  0.00     0.275 HD
ENDBRANCH  13  17
ENDBRANCH   4  13
TORSDOF 7
ENDMDL
MODEL 5
REMARK VINA RESULT:      -5.5      1.763      2.838
REMARK  7 active torsions:
REMARK  status: ('A' for Active; 'I' for Inactive)
REMARK    1  A    between atoms: N_3  and  C_12 
REMARK       I    between atoms: N_3  and  C_20 
REMARK    2  A    between atoms: C_8  and  C_12 
REMARK    3  A    between atoms: C_10  and  O_11 
REMARK    4  A    between atoms: C_10  and  C_12 
REMARK    5  A    between atoms: C_13  and  C_14 
REMARK    6  A    between atoms: C_14  and  C_20 
REMARK    7  A    between atoms: C_14  and  N_17 
ROOT
HETATM    1  O           1     -20.191  -4.910 -10.020  0.00  0.00    -0.271 OA
HETATM    2  N           1     -22.117  -3.802  -9.796  0.00  0.00    -0.343 N 
HETATM    3  H           1     -22.714  -3.229  -9.213  0.00  0.00     0.163 HD
HETATM    4  C           1     -20.904  -4.226  -9.324  0.00  0.00     0.249 C 
ENDROOT
BRANCH   2   5
HETATM    5  C           1     -22.546  -4.171 -11.131  0.00  0.00     0.214 C 
BRANCH   5   6
HETATM    6  C           1     -22.181  -3.072 -12.098  0.00  0.00     0.199 C 
HETATM    7  O           1     -21.604  -2.043 -11.686  0.00  0.00    -0.646 OA
HETATM    8  O           1     -22.458  -3.190 -13.312  0.00  0.00    -0.646 OA
ENDBRANCH   5   6
BRANCH   5   9
HETATM    9  C           1     -24.055  -4.377 -11.139  0.00  0.00     0.147 C 
HETATM   10  C           1     -24.524  -4.747  -9.738  0.00  0.00     0.042 C 
BRANCH   9  11
HETATM   11  O           1     -24.685  -3.193 -11.546  0.00  0.00    -0.393 OA
HETATM   12  H           1     -25.209  -3.406 -12.299  0.00  0.00     0.210 HD
ENDBRANCH   9  11
ENDBRANCH   5   9
ENDBRANCH   2   5
BRANCH   4  13
HETATM   13  C           1     -20.458  -3.842  -7.935  0.00  0.00     0.278 C 
BRANCH  13  14
HETATM   14  C           1     -20.089  -5.096  -7.154  0.00  0.00     0.017 C 
HETATM   15  C           1     -19.738  -4.718  -5.721  0.00  0.00     0.012 C 
HETATM   16  C           1     -21.272  -6.057  -7.149  0.00  0.00     0.012 C 
ENDBRANCH  13  14
BRANCH  13  17
HETATM   17  N           1     -21.573  -3.127  -7.232  0.00  0.00    -0.066 N 
HETATM   18  H           1     -21.845  -2.281  -7.783  0.00  0.00     0.275 HD
HETATM   19  H           1     -22.396  -3.766  -7.143  0.00  0.00     0.275 HD
HETATM   20  H           1     -21.255  -2.835  -6.281  0.00  0.00     0.275 HD
ENDBRANCH  13  17
ENDBRANCH   4  13
TORSDOF 7
ENDMDL
MODEL 6
REMARK VINA RESULT:      -5.3     17.709     19.502
REMARK  7 active torsions:
REMARK  status: ('A' for Active; 'I' for Inactive)
REMARK    1  A    between atoms: N_3  and  C_12 
REMARK       I    between atoms: N_3  and  C_20 
REMARK    2  A    between atoms: C_8  and  C_12 
REMARK    3  A    between atoms: C_10  and  O_11 
REMARK    4  A    between atoms: C_10  and  C_12 
REMARK    5  A    between atoms: C_13  and  C_14 
REMARK    6  A    between atoms: C_14  and  C_20 
REMARK    7  A    between atoms: C_14  and  N_17 
ROOT
HETATM    1  O           1     -10.627   5.349 -18.806  0.00  0.00    -0.271 OA
HETATM    2  N           1     -11.456   6.643 -20.426  0.00  0.00    -0.343 N 
HETATM    3  H           1     -12.154   6.772 -21.148  0.00  0.00     0.163 HD
HETATM    4  C           1     -11.460   5.503 -19.668  0.00  0.00     0.249 C 
ENDROOT
BRANCH   2   5
HETATM    5  C           1     -10.453   7.665 -20.196  0.00  0.00     0.214 C 
BRANCH   5   6
HETATM    6  C           1     -10.922   8.590 -19.100  0.00  0.00     0.199 C 
HETATM    7  O           1     -10.103   9.047 -18.274  0.00  0.00    -0.646 OA
HETATM    8  O           1     -12.130   8.900 -19.018  0.00  0.00    -0.646 OA
ENDBRANCH   5   6
BRANCH   5   9
HETATM    9  C           1     -10.238   8.461 -21.477  0.00  0.00     0.147 C 
HETATM   10  C           1     -11.344   8.132 -22.470  0.00  0.00     0.042 C 
BRANCH   9  11
HETATM   11  O           1     -10.262   9.831 -21.185  0.00  0.00    -0.393 OA
HETATM   12  H           1     -10.275   9.912 -20.246  0.00  0.00     0.210 HD
ENDBRANCH   9  11
ENDBRANCH   5   9
ENDBRANCH   2   5
BRANCH   4  13
HETATM   13  C           1     -12.503   4.440 -19.908  0.00  0.00     0.278 C 
BRANCH  13  14
HETATM   14  C           1     -12.096   3.590 -21.104  0.00  0.00     0.017 C 
HETATM   15  C           1     -11.054   2.568 -20.670  0.00  0.00     0.012 C 
HETATM   16  C           1     -13.320   2.864 -21.650  0.00  0.00     0.012 C 
ENDBRANCH  13  14
BRANCH  13  17
HETATM   17  N           1     -13.825   5.091 -20.185  0.00  0.00    -0.066 N 
HETATM   18  H           1     -13.867   6.015 -19.699  0.00  0.00     0.275 HD
HETATM   19  H           1     -13.935   5.233 -21.215  0.00  0.00     0.275 HD
HETATM   20  H           1     -14.596   4.479 -19.835  0.00  0.00     0.275 HD
ENDBRANCH  13  17
ENDBRANCH   4  13
TORSDOF 7
ENDMDL
MODEL 7
REMARK VINA RESULT:      -5.3      2.895      4.753
REMARK  7 active torsions:
REMARK  status: ('A' for Active; 'I' for Inactive)
REMARK    1  A    between atoms: N_3  and  C_12 
REMARK       I    between atoms: N_3  and  C_20 
REMARK    2  A    between atoms: C_8  and  C_12 
REMARK    3  A    between atoms: C_10  and  O_11 
REMARK    4  A    between atoms: C_10  and  C_12 
REMARK    5  A    between atoms: C_13  and  C_14 
REMARK    6  A    between atoms: C_14  and  C_20 
REMARK    7  A    between atoms: C_14  and  N_17 
ROOT
HETATM    1  O           1     -20.858  -7.857  -6.076  0.00  0.00    -0.271 OA
HETATM    2  N           1     -21.866  -5.903  -5.688  0.00  0.00    -0.343 N 
HETATM    3  H           1     -22.419  -5.333  -5.060  0.00  0.00     0.163 HD
HETATM    4  C           1     -21.517  -7.177  -5.326  0.00  0.00     0.249 C 
ENDROOT
BRANCH   2   5
HETATM    5  C           1     -21.445  -5.372  -6.970  0.00  0.00     0.214 C 
BRANCH   5   6
HETATM    6  C           1     -20.087  -4.731  -6.825  0.00  0.00     0.199 C 
HETATM    7  O           1     -19.413  -4.457  -7.842  0.00  0.00    -0.646 OA
HETATM    8  O           1     -19.635  -4.474  -5.688  0.00  0.00    -0.646 OA
ENDBRANCH   5   6
BRANCH   5   9
HETATM    9  C           1     -22.452  -4.330  -7.441  0.00  0.00     0.147 C 
HETATM   10  C           1     -22.669  -4.477  -8.941  0.00  0.00     0.042 C 
BRANCH   9  11
HETATM   11  O           1     -23.668  -4.519  -6.771  0.00  0.00    -0.393 OA
HETATM   12  H           1     -23.598  -4.074  -5.944  0.00  0.00     0.210 HD
ENDBRANCH   9  11
ENDBRANCH   5   9
ENDBRANCH   2   5
BRANCH   4  13
HETATM   13  C           1     -21.956  -7.730  -3.993  0.00  0.00     0.278 C 
BRANCH  13  14
HETATM   14  C           1     -21.189  -7.034  -2.877  0.00  0.00     0.017 C 
HETATM   15  C           1     -22.161  -6.254  -2.002  0.00  0.00     0.012 C 
HETATM   16  C           1     -20.469  -8.076  -2.030  0.00  0.00     0.012 C 
ENDBRANCH  13  14
BRANCH  13  17
HETATM   17  N           1     -21.677  -9.203  -3.948  0.00  0.00    -0.066 N 
HETATM   18  H           1     -21.167  -9.433  -3.065  0.00  0.00     0.275 HD
HETATM   19  H           1     -22.579  -9.730  -3.978  0.00  0.00     0.275 HD
HETATM   20  H           1     -21.089  -9.472  -4.768  0.00  0.00     0.275 HD
ENDBRANCH  13  17
ENDBRANCH   4  13
TORSDOF 7
ENDMDL
MODEL 8
REMARK VINA RESULT:      -5.1     17.518     19.392
REMARK  7 active torsions:
REMARK  status: ('A' for Active; 'I' for Inactive)
REMARK    1  A    between atoms: N_3  and  C_12 
REMARK       I    between atoms: N_3  and  C_20 
REMARK    2  A    between atoms: C_8  and  C_12 
REMARK    3  A    between atoms: C_10  and  O_11 
REMARK    4  A    between atoms: C_10  and  C_12 
REMARK    5  A    between atoms: C_13  and  C_14 
REMARK    6  A    between atoms: C_14  and  C_20 
REMARK    7  A    between atoms: C_14  and  N_17 
ROOT
HETATM    1  O           1     -11.764   5.395 -18.955  0.00  0.00    -0.271 OA
HETATM    2  N           1     -11.444   6.881 -20.590  0.00  0.00    -0.343 N 
HETATM    3  H           1     -11.421   7.071 -21.585  0.00  0.00     0.163 HD
HETATM    4  C           1     -11.737   5.621 -20.142  0.00  0.00     0.249 C 
ENDROOT
BRANCH   2   5
HETATM    5  C           1     -11.167   7.943 -19.643  0.00  0.00     0.214 C 
BRANCH   5   6
HETATM    6  C           1     -12.381   8.832 -19.517  0.00  0.00     0.199 C 
HETATM    7  O           1     -13.141   8.994 -20.495  0.00  0.00    -0.646 OA
HETATM    8  O           1     -12.624   9.408 -18.434  0.00  0.00    -0.646 OA
ENDBRANCH   5   6
BRANCH   5   9
HETATM    9  C           1      -9.983   8.765 -20.134  0.00  0.00     0.147 C 
HETATM   10  C           1      -9.198   7.959 -21.160  0.00  0.00     0.042 C 
BRANCH   9  11
HETATM   11  O           1     -10.448   9.948 -20.725  0.00  0.00    -0.393 OA
HETATM   12  H           1     -11.058  10.335 -20.121  0.00  0.00     0.210 HD
ENDBRANCH   9  11
ENDBRANCH   5   9
ENDBRANCH   2   5
BRANCH   4  13
HETATM   13  C           1     -12.024   4.516 -21.128  0.00  0.00     0.278 C 
BRANCH  13  14
HETATM   14  C           1     -13.417   3.956 -20.873  0.00  0.00     0.017 C 
HETATM   15  C           1     -14.456   4.863 -21.519  0.00  0.00     0.012 C 
HETATM   16  C           1     -13.520   2.560 -21.473  0.00  0.00     0.012 C 
ENDBRANCH  13  14
BRANCH  13  17
HETATM   17  N           1     -11.010   3.425 -20.964  0.00  0.00    -0.066 N 
HETATM   18  H           1     -11.495   2.532 -20.720  0.00  0.00     0.275 HD
HETATM   19  H           1     -10.482   3.302 -21.859  0.00  0.00     0.275 HD
HETATM   20  H           1     -10.344   3.679 -20.200  0.00  0.00     0.275 HD
ENDBRANCH  13  17
ENDBRANCH   4  13
TORSDOF 7
ENDMDL
MODEL 9
REMARK VINA RESULT:      -5.1      5.415      7.726
REMARK  7 active torsions:
REMARK  status: ('A' for Active; 'I' for Inactive)
REMARK    1  A    between atoms: N_3  and  C_12 
REMARK       I    between atoms: N_3  and  C_20 
REMARK    2  A    between atoms: C_8  and  C_12 
REMARK    3  A    between atoms: C_10  and  O_11 
REMARK    4  A    between atoms: C_10  and  C_12 
REMARK    5  A    between atoms: C_13  and  C_14 
REMARK    6  A    between atoms: C_14  and  C_20 
REMARK    7  A    between atoms: C_14  and  N_17 
ROOT
HETATM    1  O           1     -21.953  -9.605  -2.383  0.00  0.00    -0.271 OA
HETATM    2  N           1     -20.947  -7.884  -3.389  0.00  0.00    -0.343 N 
HETATM    3  H           1     -20.546  -6.958  -3.308  0.00  0.00     0.163 HD
HETATM    4  C           1     -21.473  -8.500  -2.286  0.00  0.00     0.249 C 
ENDROOT
BRANCH   2   5
HETATM    5  C           1     -20.965  -8.556  -4.674  0.00  0.00     0.214 C 
BRANCH   5   6
HETATM    6  C           1     -19.620  -9.193  -4.925  0.00  0.00     0.199 C 
HETATM    7  O           1     -18.649  -8.916  -4.188  0.00  0.00    -0.646 OA
HETATM    8  O           1     -19.477  -9.998  -5.871  0.00  0.00    -0.646 OA
ENDBRANCH   5   6
BRANCH   5   9
HETATM    9  C           1     -21.261  -7.543  -5.772  0.00  0.00     0.147 C 
HETATM   10  C           1     -22.002  -6.352  -5.177  0.00  0.00     0.042 C 
BRANCH   9  11
HETATM   11  O           1     -20.057  -7.107  -6.342  0.00  0.00    -0.393 OA
HETATM   12  H           1     -20.201  -7.042  -7.271  0.00  0.00     0.210 HD
ENDBRANCH   9  11
ENDBRANCH   5   9
ENDBRANCH   2   5
BRANCH   4  13
HETATM   13  C           1     -21.456  -7.800  -0.950  0.00  0.00     0.278 C 
BRANCH  13  14
HETATM   14  C           1     -22.019  -8.729   0.119  0.00  0.00     0.017 C 
HETATM   15  C           1     -21.043  -8.812   1.285  0.00  0.00     0.012 C 
HETATM   16  C           1     -23.353  -8.183   0.612  0.00  0.00     0.012 C 
ENDBRANCH  13  14
BRANCH  13  17
HETATM   17  N           1     -22.294  -6.559  -1.024  0.00  0.00    -0.066 N 
HETATM   18  H           1     -22.397  -6.268  -2.023  0.00  0.00     0.275 HD
HETATM   19  H           1     -23.238  -6.751  -0.617  0.00  0.00     0.275 HD
HETATM   20  H           1     -21.832  -5.793  -0.485  0.00  0.00     0.275 HD
ENDBRANCH  13  17
ENDBRANCH   4  13
TORSDOF 7
ENDMDL
