MODEL 1
REMARK VINA RESULT:      -6.5      0.000      0.000
REMARK  8 active torsions:
REMARK  status: ('A' for Active; 'I' for Inactive)
REMARK    1  A    between atoms: C_3  and  C_18 
REMARK    2  A    between atoms: N_4  and  C_16 
REMARK       I    between atoms: N_4  and  C_19 
REMARK    3  A    between atoms: C_5  and  C_19 
REMARK    4  A    between atoms: C_5  and  C_6 
REMARK    5  A    between atoms: C_5  and  N_20 
REMARK    6  A    between atoms: C_6  and  C_9 
REMARK    7  A    between atoms: C_13  and  C_16 
REMARK    8  A    between atoms: C_16  and  C_18 
ROOT
HETATM    1  N           1     -23.335  -4.374  -8.902  0.00  0.00    -0.345 N 
HETATM    2  H           1     -24.056  -5.061  -8.721  0.00  0.00     0.163 HD
HETATM    3  C           1     -22.415  -4.076  -7.934  0.00  0.00     0.249 C 
HETATM    4  O           1     -21.555  -3.256  -8.149  0.00  0.00    -0.271 OA
ENDROOT
BRANCH   3   5
HETATM    5  C           1     -22.474  -4.773  -6.596  0.00  0.00     0.275 C 
BRANCH   5   6
HETATM    6  C           1     -21.663  -6.061  -6.658  0.00  0.00     0.046 C 
BRANCH   6   7
HETATM    7  C           1     -20.651  -6.080  -5.521  0.00  0.00    -0.020 C 
HETATM    8  C           1     -20.074  -4.684  -5.331  0.00  0.00     0.009 C 
HETATM    9  C           1     -21.339  -6.523  -4.237  0.00  0.00     0.009 C 
ENDBRANCH   6   7
ENDBRANCH   5   6
BRANCH   5  10
HETATM   10  N           1     -23.901  -5.097  -6.266  0.00  0.00    -0.066 N 
HETATM   11  H           1     -24.393  -5.420  -7.129  0.00  0.00     0.275 HD
HETATM   12  H           1     -23.929  -5.852  -5.544  0.00  0.00     0.275 HD
HETATM   13  H           1     -24.375  -4.242  -5.894  0.00  0.00     0.275 HD
ENDBRANCH   5  10
ENDBRANCH   3   5
BRANCH   1  14
HETATM   14  C           1     -23.279  -3.704 -10.186  0.00  0.00     0.185 C 
BRANCH  14  15
HETATM   15  C           1     -24.672  -3.307 -10.607  0.00  0.00     0.196 C 
HETATM   16  O           1     -25.576  -3.191  -9.750  0.00  0.00    -0.646 OA
HETATM   17  O           1     -24.925  -3.095 -11.813  0.00  0.00    -0.646 OA
ENDBRANCH  14  15
BRANCH  14  18
HETATM   18  C           1     -22.682  -4.645 -11.225  0.00  0.00     0.040 C 
BRANCH  18  19
HETATM   19  C           1     -21.343  -4.096 -11.697  0.00  0.00    -0.020 C 
HETATM   20  C           1     -21.345  -2.579 -11.571  0.00  0.00     0.009 C 
HETATM   21  C           1     -20.226  -4.676 -10.839  0.00  0.00     0.009 C 
ENDBRANCH  18  19
ENDBRANCH  14  18
ENDBRANCH   1  14
TORSDOF 8
ENDMDL
MODEL 2
REMARK VINA RESULT:      -6.3     11.895     13.624
REMARK  8 active torsions:
REMARK  status: ('A' for Active; 'I' for Inactive)
REMARK    1  A    between atoms: C_3  and  C_18 
REMARK    2  A    between atoms: N_4  and  C_16 
REMARK       I    between atoms: N_4  and  C_19 
REMARK    3  A    between atoms: C_5  and  C_19 
REMARK    4  A    between atoms: C_5  and  C_6 
REMARK    5  A    between atoms: C_5  and  N_20 
REMARK    6  A    between atoms: C_6  and  C_9 
REMARK    7  A    between atoms: C_13  and  C_16 
REMARK    8  A    between atoms: C_16  and  C_18 
ROOT
HETATM    1  N           1     -35.392  -2.074 -12.015  0.00  0.00    -0.345 N 
HETATM    2  H           1     -35.973  -2.699 -12.559  0.00  0.00     0.163 HD
HETATM    3  C           1     -34.218  -2.526 -11.476  0.00  0.00     0.249 C 
HETATM    4  O           1     -33.524  -1.781 -10.826  0.00  0.00    -0.271 OA
ENDROOT
BRANCH   3   5
HETATM    5  C           1     -33.790  -3.958 -11.691  0.00  0.00     0.275 C 
BRANCH   5   6
HETATM    6  C           1     -34.090  -4.772 -10.439  0.00  0.00     0.046 C 
BRANCH   6   7
HETATM    7  C           1     -34.240  -6.240 -10.811  0.00  0.00    -0.020 C 
HETATM    8  C           1     -34.883  -6.994  -9.654  0.00  0.00     0.009 C 
HETATM    9  C           1     -35.121  -6.363 -12.047  0.00  0.00     0.009 C 
ENDBRANCH   6   7
ENDBRANCH   5   6
BRANCH   5  10
HETATM   10  N           1     -32.318  -4.000 -11.974  0.00  0.00    -0.066 N 
HETATM   11  H           1     -31.889  -3.082 -11.723  0.00  0.00     0.275 HD
HETATM   12  H           1     -31.875  -4.759 -11.407  0.00  0.00     0.275 HD
HETATM   13  H           1     -32.163  -4.190 -12.990  0.00  0.00     0.275 HD
ENDBRANCH   5  10
ENDBRANCH   3   5
BRANCH   1  14
HETATM   14  C           1     -35.804  -0.700 -11.807  0.00  0.00     0.185 C 
BRANCH  14  15
HETATM   15  C           1     -36.788  -0.638 -10.666  0.00  0.00     0.196 C 
HETATM   16  O           1     -37.997  -0.890 -10.868  0.00  0.00    -0.646 OA
HETATM   17  O           1     -36.397  -0.334  -9.518  0.00  0.00    -0.646 OA
ENDBRANCH  14  15
BRANCH  14  18
HETATM   18  C           1     -36.460  -0.169 -13.074  0.00  0.00     0.040 C 
BRANCH  18  19
HETATM   19  C           1     -35.408  -0.013 -14.164  0.00  0.00    -0.020 C 
HETATM   20  C           1     -36.097   0.160 -15.512  0.00  0.00     0.009 C 
HETATM   21  C           1     -34.551   1.211 -13.871  0.00  0.00     0.009 C 
ENDBRANCH  18  19
ENDBRANCH  14  18
ENDBRANCH   1  14
TORSDOF 8
ENDMDL
MODEL 3
REMARK VINA RESULT:      -6.1      1.465      1.934
REMARK  8 active torsions:
REMARK  status: ('A' for Active; 'I' for Inactive)
REMARK    1  A    between atoms: C_3  and  C_18 
REMARK    2  A    between atoms: N_4  and  C_16 
REMARK       I    between atoms: N_4  and  C_19 
REMARK    3  A    between atoms: C_5  and  C_19 
REMARK    4  A    between atoms: C_5  and  C_6 
REMARK    5  A    between atoms: C_5  and  N_20 
REMARK    6  A    between atoms: C_6  and  C_9 
REMARK    7  A    between atoms: C_13  and  C_16 
REMARK    8  A    between atoms: C_16  and  C_18 
ROOT
HETATM    1  N           1     -22.563  -4.763  -8.538  0.00  0.00    -0.345 N 
HETATM    2  H           1     -22.738  -5.680  -8.927  0.00  0.00     0.163 HD
HETATM    3  C           1     -21.767  -4.629  -7.432  0.00  0.00     0.249 C 
HETATM    4  O           1     -21.559  -3.534  -6.966  0.00  0.00    -0.271 OA
ENDROOT
BRANCH   3   5
HETATM    5  C           1     -21.151  -5.850  -6.794  0.00  0.00     0.275 C 
BRANCH   5   6
HETATM    6  C           1     -20.885  -5.573  -5.319  0.00  0.00     0.046 C 
BRANCH   6   7
HETATM    7  C           1     -21.811  -6.428  -4.466  0.00  0.00    -0.020 C 
HETATM    8  C           1     -21.609  -7.897  -4.813  0.00  0.00     0.009 C 
HETATM    9  C           1     -21.494  -6.206  -2.994  0.00  0.00     0.009 C 
ENDBRANCH   6   7
ENDBRANCH   5   6
BRANCH   5  10
HETATM   10  N           1     -19.858  -6.173  -7.482  0.00  0.00    -0.066 N 
HETATM   11  H           1     -20.012  -6.945  -8.168  0.00  0.00     0.275 HD
HETATM   12  H           1     -19.508  -5.325  -7.983  0.00  0.00     0.275 HD
HETATM   13  H           1     -19.151  -6.473  -6.772  0.00  0.00     0.275 HD
ENDBRANCH   5  10
ENDBRANCH   3   5
BRANCH   1  14
HETATM   14  C           1     -23.157  -3.591  -9.150  0.00  0.00     0.185 C 
BRANCH  14  15
HETATM   15  C           1     -24.474  -3.966  -9.781  0.00  0.00     0.196 C 
HETATM   16  O           1     -25.222  -3.077 -10.244  0.00  0.00    -0.646 OA
HETATM   17  O           1     -24.820  -5.166  -9.840  0.00  0.00    -0.646 OA
ENDBRANCH  14  15
BRANCH  14  18
HETATM   18  C           1     -22.218  -3.046 -10.219  0.00  0.00     0.040 C 
BRANCH  18  19
HETATM   19  C           1     -21.808  -4.172 -11.158  0.00  0.00    -0.020 C 
HETATM   20  C           1     -22.171  -3.796 -12.588  0.00  0.00     0.009 C 
HETATM   21  C           1     -20.305  -4.395 -11.057  0.00  0.00     0.009 C 
ENDBRANCH  18  19
ENDBRANCH  14  18
ENDBRANCH   1  14
TORSDOF 8
ENDMDL
MODEL 4
REMARK VINA RESULT:      -5.7      3.334      6.939
REMARK  8 active torsions:
REMARK  status: ('A' for Active; 'I' for Inactive)
REMARK    1  A    between atoms: C_3  and  C_18 
REMARK    2  A    between atoms: N_4  and  C_16 
REMARK       I    between atoms: N_4  and  C_19 
REMARK    3  A    between atoms: C_5  and  C_19 
REMARK    4  A    between atoms: C_5  and  C_6 
REMARK    5  A    between atoms: C_5  and  N_20 
REMARK    6  A    between atoms: C_6  and  C_9 
REMARK    7  A    between atoms: C_13  and  C_16 
REMARK    8  A    between atoms: C_16  and  C_18 
ROOT
HETATM    1  N           1     -20.764  -6.350  -6.171  0.00  0.00    -0.345 N 
HETATM    2  H           1     -21.173  -6.766  -6.997  0.00  0.00     0.163 HD
HETATM    3  C           1     -20.497  -5.008  -6.140  0.00  0.00     0.249 C 
HETATM    4  O           1     -20.007  -4.511  -5.153  0.00  0.00    -0.271 OA
ENDROOT
BRANCH   3   5
HETATM    5  C           1     -20.813  -4.147  -7.339  0.00  0.00     0.275 C 
BRANCH   5   6
HETATM    6  C           1     -21.787  -4.884  -8.250  0.00  0.00     0.046 C 
BRANCH   6   7
HETATM    7  C           1     -22.365  -3.912  -9.269  0.00  0.00    -0.020 C 
HETATM    8  C           1     -22.002  -4.374 -10.674  0.00  0.00     0.009 C 
HETATM    9  C           1     -23.880  -3.868  -9.125  0.00  0.00     0.009 C 
ENDBRANCH   6   7
ENDBRANCH   5   6
BRANCH   5  10
HETATM   10  N           1     -19.548  -3.857  -8.091  0.00  0.00    -0.066 N 
HETATM   11  H           1     -19.645  -4.190  -9.076  0.00  0.00     0.275 HD
HETATM   12  H           1     -19.368  -2.828  -8.087  0.00  0.00     0.275 HD
HETATM   13  H           1     -18.749  -4.352  -7.633  0.00  0.00     0.275 HD
ENDBRANCH   5  10
ENDBRANCH   3   5
BRANCH   1  14
HETATM   14  C           1     -20.459  -7.176  -5.019  0.00  0.00     0.185 C 
BRANCH  14  15
HETATM   15  C           1     -20.100  -8.567  -5.480  0.00  0.00     0.196 C 
HETATM   16  O           1     -18.908  -8.857  -5.725  0.00  0.00    -0.646 OA
HETATM   17  O           1     -20.993  -9.430  -5.618  0.00  0.00    -0.646 OA
ENDBRANCH  14  15
BRANCH  14  18
HETATM   18  C           1     -21.675  -7.241  -4.104  0.00  0.00     0.040 C 
BRANCH  18  19
HETATM   19  C           1     -21.234  -7.049  -2.660  0.00  0.00    -0.020 C 
HETATM   20  C           1     -22.218  -6.129  -1.949  0.00  0.00     0.009 C 
HETATM   21  C           1     -21.202  -8.399  -1.955  0.00  0.00     0.009 C 
ENDBRANCH  18  19
ENDBRANCH  14  18
ENDBRANCH   1  14
TORSDOF 8
ENDMDL
MODEL 5
REMARK VINA RESULT:      -5.4      4.464      8.254
REMARK  8 active torsions:
REMARK  status: ('A' for Active; 'I' for Inactive)
REMARK    1  A    between atoms: C_3  and  C_18 
REMARK    2  A    between atoms: N_4  and  C_16 
REMARK       I    between atoms: N_4  and  C_19 
REMARK    3  A    between atoms: C_5  and  C_19 
REMARK    4  A    between atoms: C_5  and  C_6 
REMARK    5  A    between atoms: C_5  and  N_20 
REMARK    6  A    between atoms: C_6  and  C_9 
REMARK    7  A    between atoms: C_13  and  C_16 
REMARK    8  A    between atoms: C_16  and  C_18 
ROOT
HETATM    1  N           1     -21.396  -7.953  -3.627  0.00  0.00    -0.345 N 
HETATM    2  H           1     -22.317  -7.603  -3.395  0.00  0.00     0.163 HD
HETATM    3  C           1     -20.766  -7.522  -4.763  0.00  0.00     0.249 C 
HETATM    4  O           1     -19.667  -7.940  -5.040  0.00  0.00    -0.271 OA
ENDROOT
BRANCH   3   5
HETATM    5  C           1     -21.445  -6.526  -5.671  0.00  0.00     0.275 C 
BRANCH   5   6
HETATM    6  C           1     -20.583  -5.275  -5.787  0.00  0.00     0.046 C 
BRANCH   6   7
HETATM    7  C           1     -20.537  -4.822  -7.239  0.00  0.00    -0.020 C 
HETATM    8  C           1     -21.478  -3.640  -7.433  0.00  0.00     0.009 C 
HETATM    9  C           1     -19.117  -4.402  -7.595  0.00  0.00     0.009 C 
ENDBRANCH   6   7
ENDBRANCH   5   6
BRANCH   5  10
HETATM   10  N           1     -22.782  -6.161  -5.099  0.00  0.00    -0.066 N 
HETATM   11  H           1     -22.660  -5.824  -4.118  0.00  0.00     0.275 HD
HETATM   12  H           1     -23.214  -5.405  -5.676  0.00  0.00     0.275 HD
HETATM   13  H           1     -23.404  -7.001  -5.103  0.00  0.00     0.275 HD
ENDBRANCH   5  10
ENDBRANCH   3   5
BRANCH   1  14
HETATM   14  C           1     -20.745  -8.911  -2.755  0.00  0.00     0.185 C 
BRANCH  14  15
HETATM   15  C           1     -21.517 -10.206  -2.766  0.00  0.00     0.196 C 
HETATM   16  O           1     -22.408 -10.396  -3.623  0.00  0.00    -0.646 OA
HETATM   17  O           1     -21.267 -11.091  -1.919  0.00  0.00    -0.646 OA
ENDBRANCH  14  15
BRANCH  14  18
HETATM   18  C           1     -20.698  -8.358  -1.337  0.00  0.00     0.040 C 
BRANCH  18  19
HETATM   19  C           1     -22.093  -7.914  -0.919  0.00  0.00    -0.020 C 
HETATM   20  C           1     -22.298  -8.214   0.560  0.00  0.00     0.009 C 
HETATM   21  C           1     -22.243  -6.417  -1.159  0.00  0.00     0.009 C 
ENDBRANCH  18  19
ENDBRANCH  14  18
ENDBRANCH   1  14
TORSDOF 8
ENDMDL
MODEL 6
REMARK VINA RESULT:      -5.4      4.332      8.148
REMARK  8 active torsions:
REMARK  status: ('A' for Active; 'I' for Inactive)
REMARK    1  A    between atoms: C_3  and  C_18 
REMARK    2  A    between atoms: N_4  and  C_16 
REMARK       I    between atoms: N_4  and  C_19 
REMARK    3  A    between atoms: C_5  and  C_19 
REMARK    4  A    between atoms: C_5  and  C_6 
REMARK    5  A    between atoms: C_5  and  N_20 
REMARK    6  A    between atoms: C_6  and  C_9 
REMARK    7  A    between atoms: C_13  and  C_16 
REMARK    8  A    between atoms: C_16  and  C_18 
ROOT
HETATM    1  N           1     -20.796  -7.523  -3.256  0.00  0.00    -0.345 N 
HETATM    2  H           1     -19.829  -7.409  -2.979  0.00  0.00     0.163 HD
HETATM    3  C           1     -21.178  -7.248  -4.541  0.00  0.00     0.249 C 
HETATM    4  O           1     -22.332  -7.384  -4.871  0.00  0.00    -0.271 OA
ENDROOT
BRANCH   3   5
HETATM    5  C           1     -20.157  -6.774  -5.547  0.00  0.00     0.275 C 
BRANCH   5   6
HETATM    6  C           1     -20.868  -6.084  -6.704  0.00  0.00     0.046 C 
BRANCH   6   7
HETATM    7  C           1     -20.476  -4.613  -6.737  0.00  0.00    -0.020 C 
HETATM    8  C           1     -19.186  -4.449  -7.530  0.00  0.00     0.009 C 
HETATM    9  C           1     -21.585  -3.809  -7.402  0.00  0.00     0.009 C 
ENDBRANCH   6   7
ENDBRANCH   5   6
BRANCH   5  10
HETATM   10  N           1     -19.385  -7.951  -6.065  0.00  0.00    -0.066 N 
HETATM   11  H           1     -20.012  -8.783  -6.117  0.00  0.00     0.275 HD
HETATM   12  H           1     -19.013  -7.733  -7.017  0.00  0.00     0.275 HD
HETATM   13  H           1     -18.588  -8.156  -5.419  0.00  0.00     0.275 HD
ENDBRANCH   5  10
ENDBRANCH   3   5
BRANCH   1  14
HETATM   14  C           1     -21.776  -7.977  -2.289  0.00  0.00     0.185 C 
BRANCH  14  15
HETATM   15  C           1     -22.270  -6.802  -1.483  0.00  0.00     0.196 C 
HETATM   16  O           1     -22.123  -5.639  -1.919  0.00  0.00    -0.646 OA
HETATM   17  O           1     -22.826  -6.989  -0.380  0.00  0.00    -0.646 OA
ENDBRANCH  14  15
BRANCH  14  18
HETATM   18  C           1     -21.136  -8.999  -1.358  0.00  0.00     0.040 C 
BRANCH  18  19
HETATM   19  C           1     -21.880 -10.323  -1.469  0.00  0.00    -0.020 C 
HETATM   20  C           1     -23.080 -10.310  -0.531  0.00  0.00     0.009 C 
HETATM   21  C           1     -22.357 -10.519  -2.902  0.00  0.00     0.009 C 
ENDBRANCH  18  19
ENDBRANCH  14  18
ENDBRANCH   1  14
TORSDOF 8
ENDMDL
MODEL 7
REMARK VINA RESULT:      -5.4      2.357      3.605
REMARK  8 active torsions:
REMARK  status: ('A' for Active; 'I' for Inactive)
REMARK    1  A    between atoms: C_3  and  C_18 
REMARK    2  A    between atoms: N_4  and  C_16 
REMARK       I    between atoms: N_4  and  C_19 
REMARK    3  A    between atoms: C_5  and  C_19 
REMARK    4  A    between atoms: C_5  and  C_6 
REMARK    5  A    between atoms: C_5  and  N_20 
REMARK    6  A    between atoms: C_6  and  C_9 
REMARK    7  A    between atoms: C_13  and  C_16 
REMARK    8  A    between atoms: C_16  and  C_18 
ROOT
HETATM    1  N           1     -21.137  -4.706  -7.459  0.00  0.00    -0.345 N 
HETATM    2  H           1     -20.791  -3.849  -7.047  0.00  0.00     0.163 HD
HETATM    3  C           1     -21.138  -5.864  -6.730  0.00  0.00     0.249 C 
HETATM    4  O           1     -21.551  -6.888  -7.222  0.00  0.00    -0.271 OA
ENDROOT
BRANCH   3   5
HETATM    5  C           1     -20.623  -5.864  -5.311  0.00  0.00     0.275 C 
BRANCH   5   6
HETATM    6  C           1     -21.761  -6.205  -4.358  0.00  0.00     0.046 C 
BRANCH   6   7
HETATM    7  C           1     -21.189  -6.598  -3.003  0.00  0.00    -0.020 C 
HETATM    8  C           1     -22.174  -6.217  -1.905  0.00  0.00     0.009 C 
HETATM    9  C           1     -20.950  -8.101  -2.970  0.00  0.00     0.009 C 
ENDBRANCH   6   7
ENDBRANCH   5   6
BRANCH   5  10
HETATM   10  N           1     -20.082  -4.506  -4.978  0.00  0.00    -0.066 N 
HETATM   11  H           1     -19.230  -4.320  -5.553  0.00  0.00     0.275 HD
HETATM   12  H           1     -20.807  -3.781  -5.184  0.00  0.00     0.275 HD
HETATM   13  H           1     -19.832  -4.469  -3.963  0.00  0.00     0.275 HD
ENDBRANCH   5  10
ENDBRANCH   3   5
BRANCH   1  14
HETATM   14  C           1     -21.631  -4.706  -8.822  0.00  0.00     0.185 C 
BRANCH  14  15
HETATM   15  C           1     -20.493  -4.414  -9.768  0.00  0.00     0.196 C 
HETATM   16  O           1     -19.549  -5.226  -9.881  0.00  0.00    -0.646 OA
HETATM   17  O           1     -20.494  -3.360 -10.441  0.00  0.00    -0.646 OA
ENDBRANCH  14  15
BRANCH  14  18
HETATM   18  C           1     -22.706  -3.638  -8.973  0.00  0.00     0.040 C 
BRANCH  18  19
HETATM   19  C           1     -24.004  -4.285  -9.435  0.00  0.00    -0.020 C 
HETATM   20  C           1     -25.054  -3.206  -9.666  0.00  0.00     0.009 C 
HETATM   21  C           1     -23.760  -5.043 -10.734  0.00  0.00     0.009 C 
ENDBRANCH  18  19
ENDBRANCH  14  18
ENDBRANCH   1  14
TORSDOF 8
ENDMDL
MODEL 8
REMARK VINA RESULT:      -5.3      6.712      9.935
REMARK  8 active torsions:
REMARK  status: ('A' for Active; 'I' for Inactive)
REMARK    1  A    between atoms: C_3  and  C_18 
REMARK    2  A    between atoms: N_4  and  C_16 
REMARK       I    between atoms: N_4  and  C_19 
REMARK    3  A    between atoms: C_5  and  C_19 
REMARK    4  A    between atoms: C_5  and  C_6 
REMARK    5  A    between atoms: C_5  and  N_20 
REMARK    6  A    between atoms: C_6  and  C_9 
REMARK    7  A    between atoms: C_13  and  C_16 
REMARK    8  A    between atoms: C_16  and  C_18 
ROOT
HETATM    1  N           1     -20.751  -9.628  -2.126  0.00  0.00    -0.345 N 
HETATM    2  H           1     -21.726  -9.549  -2.383  0.00  0.00     0.163 HD
HETATM    3  C           1     -19.788  -9.053  -2.912  0.00  0.00     0.249 C 
HETATM    4  O           1     -18.623  -9.147  -2.606  0.00  0.00    -0.271 OA
ENDROOT
BRANCH   3   5
HETATM    5  C           1     -20.181  -8.303  -4.161  0.00  0.00     0.275 C 
BRANCH   5   6
HETATM    6  C           1     -21.684  -8.051  -4.150  0.00  0.00     0.046 C 
BRANCH   6   7
HETATM    7  C           1     -21.948  -6.561  -3.986  0.00  0.00    -0.020 C 
HETATM    8  C           1     -21.855  -6.188  -2.512  0.00  0.00     0.009 C 
HETATM    9  C           1     -20.912  -5.772  -4.775  0.00  0.00     0.009 C 
ENDBRANCH   6   7
ENDBRANCH   5   6
BRANCH   5  10
HETATM   10  N           1     -19.821  -9.119  -5.366  0.00  0.00    -0.066 N 
HETATM   11  H           1     -20.446  -8.860  -6.162  0.00  0.00     0.275 HD
HETATM   12  H           1     -18.826  -8.934  -5.629  0.00  0.00     0.275 HD
HETATM   13  H           1     -19.939 -10.135  -5.147  0.00  0.00     0.275 HD
ENDBRANCH   5  10
ENDBRANCH   3   5
BRANCH   1  14
HETATM   14  C           1     -20.373 -10.350  -0.927  0.00  0.00     0.185 C 
BRANCH  14  15
HETATM   15  C           1     -20.470 -11.833  -1.182  0.00  0.00     0.196 C 
HETATM   16  O           1     -19.954 -12.641  -0.378  0.00  0.00    -0.646 OA
HETATM   17  O           1     -21.066 -12.256  -2.196  0.00  0.00    -0.646 OA
ENDBRANCH  14  15
BRANCH  14  18
HETATM   18  C           1     -21.308  -9.966   0.212  0.00  0.00     0.040 C 
BRANCH  18  19
HETATM   19  C           1     -22.613  -9.429  -0.360  0.00  0.00    -0.020 C 
HETATM   20  C           1     -23.701 -10.484  -0.214  0.00  0.00     0.009 C 
HETATM   21  C           1     -23.020  -8.172   0.398  0.00  0.00     0.009 C 
ENDBRANCH  18  19
ENDBRANCH  14  18
ENDBRANCH   1  14
TORSDOF 8
ENDMDL
MODEL 9
REMARK VINA RESULT:      -5.3      2.615      3.793
REMARK  8 active torsions:
REMARK  status: ('A' for Active; 'I' for Inactive)
REMARK    1  A    between atoms: C_3  and  C_18 
REMARK    2  A    between atoms: N_4  and  C_16 
REMARK       I    between atoms: N_4  and  C_19 
REMARK    3  A    between atoms: C_5  and  C_19 
REMARK    4  A    between atoms: C_5  and  C_6 
REMARK    5  A    between atoms: C_5  and  N_20 
REMARK    6  A    between atoms: C_6  and  C_9 
REMARK    7  A    between atoms: C_13  and  C_16 
REMARK    8  A    between atoms: C_16  and  C_18 
ROOT
HETATM    1  N           1     -21.638  -4.901  -6.828  0.00  0.00    -0.345 N 
HETATM    2  H           1     -22.100  -4.105  -6.407  0.00  0.00     0.163 HD
HETATM    3  C           1     -21.561  -6.087  -6.147  0.00  0.00     0.249 C 
HETATM    4  O           1     -21.009  -7.037  -6.649  0.00  0.00    -0.271 OA
ENDROOT
BRANCH   3   5
HETATM    5  C           1     -22.165  -6.207  -4.769  0.00  0.00     0.275 C 
BRANCH   5   6
HETATM    6  C           1     -21.661  -7.481  -4.103  0.00  0.00     0.046 C 
BRANCH   6   7
HETATM    7  C           1     -21.113  -7.150  -2.722  0.00  0.00    -0.020 C 
HETATM    8  C           1     -22.091  -6.238  -1.992  0.00  0.00     0.009 C 
HETATM    9  C           1     -20.930  -8.435  -1.928  0.00  0.00     0.009 C 
ENDBRANCH   6   7
ENDBRANCH   5   6
BRANCH   5  10
HETATM   10  N           1     -23.660  -6.261  -4.884  0.00  0.00    -0.066 N 
HETATM   11  H           1     -23.937  -6.132  -5.883  0.00  0.00     0.275 HD
HETATM   12  H           1     -24.003  -7.187  -4.543  0.00  0.00     0.275 HD
HETATM   13  H           1     -24.082  -5.499  -4.305  0.00  0.00     0.275 HD
ENDBRANCH   5  10
ENDBRANCH   3   5
BRANCH   1  14
HETATM   14  C           1     -21.057  -4.785  -8.151  0.00  0.00     0.185 C 
BRANCH  14  15
HETATM   15  C           1     -19.690  -4.156  -8.045  0.00  0.00     0.196 C 
HETATM   16  O           1     -18.837  -4.640  -7.269  0.00  0.00    -0.646 OA
HETATM   17  O           1     -19.409  -3.152  -8.734  0.00  0.00    -0.646 OA
ENDBRANCH  14  15
BRANCH  14  18
HETATM   18  C           1     -21.951  -3.916  -9.024  0.00  0.00     0.040 C 
BRANCH  18  19
HETATM   19  C           1     -22.234  -4.634 -10.336  0.00  0.00    -0.020 C 
HETATM   20  C           1     -23.739  -4.700 -10.563  0.00  0.00     0.009 C 
HETATM   21  C           1     -21.580  -3.874 -11.483  0.00  0.00     0.009 C 
ENDBRANCH  18  19
ENDBRANCH  14  18
ENDBRANCH   1  14
TORSDOF 8
ENDMDL
