MODEL 1
REMARK VINA RESULT:      -6.0      0.000      0.000
REMARK  5 active torsions:
REMARK  status: ('A' for Active; 'I' for Inactive)
REMARK    1  A    between atoms: C_1  and  C_3 
REMARK    2  A    between atoms: C_1  and  C_4 
REMARK    3  A    between atoms: C_1  and  N_13 
REMARK       I    between atoms: C_3  and  N_11 
REMARK    4  A    between atoms: C_7  and  C_12 
REMARK    5  A    between atoms: N_11  and  C_12 
ROOT
HETATM    1  C           1     -23.015  -3.495  -9.582  0.00  0.00     0.278 C 
ENDROOT
BRANCH   1   2
HETATM    2  C           1     -23.438  -3.990 -10.943  0.00  0.00     0.249 C 
HETATM    3  N           1     -23.452  -3.133 -12.010  0.00  0.00    -0.349 N 
HETATM    4  H           1     -23.179  -2.166 -11.886  0.00  0.00     0.163 HD
HETATM    5  O           1     -23.765  -5.144 -11.091  0.00  0.00    -0.271 OA
BRANCH   3   6
HETATM    6  C           1     -23.859  -3.609 -13.318  0.00  0.00     0.235 C 
BRANCH   6   7
HETATM    7  C           1     -23.472  -2.596 -14.367  0.00  0.00     0.191 C 
HETATM    8  O           1     -22.545  -2.848 -15.166  0.00  0.00    -0.647 OA
HETATM    9  O           1     -24.077  -1.505 -14.436  0.00  0.00    -0.647 OA
ENDBRANCH   6   7
ENDBRANCH   3   6
ENDBRANCH   1   2
BRANCH   1  10
HETATM   10  C           1     -21.840  -4.326  -9.081  0.00  0.00     0.017 C 
HETATM   11  C           1     -20.624  -4.067  -9.959  0.00  0.00     0.012 C 
HETATM   12  C           1     -21.520  -3.936  -7.643  0.00  0.00     0.012 C 
ENDBRANCH   1  10
BRANCH   1  13
HETATM   13  N           1     -24.162  -3.624  -8.625  0.00  0.00    -0.066 N 
HETATM   14  H           1     -24.693  -4.500  -8.833  0.00  0.00     0.275 HD
HETATM   15  H           1     -23.797  -3.662  -7.646  0.00  0.00     0.275 HD
HETATM   16  H           1     -24.796  -2.800  -8.728  0.00  0.00     0.275 HD
ENDBRANCH   1  13
TORSDOF 5
ENDMDL
MODEL 2
REMARK VINA RESULT:      -5.7      1.367      1.686
REMARK  5 active torsions:
REMARK  status: ('A' for Active; 'I' for Inactive)
REMARK    1  A    between atoms: C_1  and  C_3 
REMARK    2  A    between atoms: C_1  and  C_4 
REMARK    3  A    between atoms: C_1  and  N_13 
REMARK       I    between atoms: C_3  and  N_11 
REMARK    4  A    between atoms: C_7  and  C_12 
REMARK    5  A    between atoms: N_11  and  C_12 
ROOT
HETATM    1  C           1     -22.484  -3.871  -8.637  0.00  0.00     0.278 C 
ENDROOT
BRANCH   1   2
HETATM    2  C           1     -22.812  -4.176 -10.079  0.00  0.00     0.249 C 
HETATM    3  N           1     -22.509  -3.268 -11.057  0.00  0.00    -0.349 N 
HETATM    4  H           1     -22.065  -2.391 -10.814  0.00  0.00     0.163 HD
HETATM    5  O           1     -23.341  -5.223 -10.369  0.00  0.00    -0.271 OA
BRANCH   3   6
HETATM    6  C           1     -22.824  -3.562 -12.442  0.00  0.00     0.235 C 
BRANCH   6   7
HETATM    7  C           1     -24.088  -2.839 -12.836  0.00  0.00     0.191 C 
HETATM    8  O           1     -25.121  -2.964 -12.143  0.00  0.00    -0.647 OA
HETATM    9  O           1     -24.102  -2.115 -13.854  0.00  0.00    -0.647 OA
ENDBRANCH   6   7
ENDBRANCH   3   6
ENDBRANCH   1   2
BRANCH   1  10
HETATM   10  C           1     -21.359  -4.784  -8.167  0.00  0.00     0.017 C 
HETATM   11  C           1     -20.029  -4.052  -8.283  0.00  0.00     0.012 C 
HETATM   12  C           1     -21.598  -5.175  -6.714  0.00  0.00     0.012 C 
ENDBRANCH   1  10
BRANCH   1  13
HETATM   13  N           1     -23.700  -4.100  -7.790  0.00  0.00    -0.066 N 
HETATM   14  H           1     -23.451  -3.982  -6.782  0.00  0.00     0.275 HD
HETATM   15  H           1     -24.441  -3.410  -8.049  0.00  0.00     0.275 HD
HETATM   16  H           1     -24.057  -5.069  -7.949  0.00  0.00     0.275 HD
ENDBRANCH   1  13
TORSDOF 5
ENDMDL
MODEL 3
REMARK VINA RESULT:      -5.5      2.073      3.091
REMARK  5 active torsions:
REMARK  status: ('A' for Active; 'I' for Inactive)
REMARK    1  A    between atoms: C_1  and  C_3 
REMARK    2  A    between atoms: C_1  and  C_4 
REMARK    3  A    between atoms: C_1  and  N_13 
REMARK       I    between atoms: C_3  and  N_11 
REMARK    4  A    between atoms: C_7  and  C_12 
REMARK    5  A    between atoms: N_11  and  C_12 
ROOT
HETATM    1  C           1     -22.111  -4.250  -7.217  0.00  0.00     0.278 C 
ENDROOT
BRANCH   1   2
HETATM    2  C           1     -22.057  -4.234  -8.725  0.00  0.00     0.249 C 
HETATM    3  N           1     -23.214  -4.313  -9.452  0.00  0.00    -0.349 N 
HETATM    4  H           1     -24.106  -4.382  -8.979  0.00  0.00     0.163 HD
HETATM    5  O           1     -20.993  -4.151  -9.291  0.00  0.00    -0.271 OA
BRANCH   3   6
HETATM    6  C           1     -23.162  -4.297 -10.902  0.00  0.00     0.235 C 
BRANCH   6   7
HETATM    7  C           1     -24.262  -3.414 -11.436  0.00  0.00     0.191 C 
HETATM    8  O           1     -24.181  -2.945 -12.592  0.00  0.00    -0.647 OA
HETATM    9  O           1     -25.254  -3.151 -10.724  0.00  0.00    -0.647 OA
ENDBRANCH   6   7
ENDBRANCH   3   6
ENDBRANCH   1   2
BRANCH   1  10
HETATM   10  C           1     -21.209  -5.358  -6.688  0.00  0.00     0.017 C 
HETATM   11  C           1     -19.962  -4.744  -6.067  0.00  0.00     0.012 C 
HETATM   12  C           1     -21.959  -6.161  -5.632  0.00  0.00     0.012 C 
ENDBRANCH   1  10
BRANCH   1  13
HETATM   13  N           1     -23.521  -4.498  -6.771  0.00  0.00    -0.066 N 
HETATM   14  H           1     -23.518  -5.138  -5.944  0.00  0.00     0.275 HD
HETATM   15  H           1     -23.968  -3.592  -6.508  0.00  0.00     0.275 HD
HETATM   16  H           1     -24.060  -4.939  -7.550  0.00  0.00     0.275 HD
ENDBRANCH   1  13
TORSDOF 5
ENDMDL
MODEL 4
REMARK VINA RESULT:      -5.4      1.757      2.196
REMARK  5 active torsions:
REMARK  status: ('A' for Active; 'I' for Inactive)
REMARK    1  A    between atoms: C_1  and  C_3 
REMARK    2  A    between atoms: C_1  and  C_4 
REMARK    3  A    between atoms: C_1  and  N_13 
REMARK       I    between atoms: C_3  and  N_11 
REMARK    4  A    between atoms: C_7  and  C_12 
REMARK    5  A    between atoms: N_11  and  C_12 
ROOT
HETATM    1  C           1     -21.467  -4.481  -9.997  0.00  0.00     0.278 C 
ENDROOT
BRANCH   1   2
HETATM    2  C           1     -22.352  -3.582 -10.826  0.00  0.00     0.249 C 
HETATM    3  N           1     -21.907  -3.105 -12.029  0.00  0.00    -0.349 N 
HETATM    4  H           1     -20.985  -3.354 -12.364  0.00  0.00     0.163 HD
HETATM    5  O           1     -23.453  -3.284 -10.428  0.00  0.00    -0.271 OA
BRANCH   3   6
HETATM    6  C           1     -22.758  -2.241 -12.826  0.00  0.00     0.235 C 
BRANCH   6   7
HETATM    7  C           1     -23.249  -2.995 -14.038  0.00  0.00     0.191 C 
HETATM    8  O           1     -24.230  -3.762 -13.940  0.00  0.00    -0.647 OA
HETATM    9  O           1     -22.674  -2.852 -15.138  0.00  0.00    -0.647 OA
ENDBRANCH   6   7
ENDBRANCH   3   6
ENDBRANCH   1   2
BRANCH   1  10
HETATM   10  C           1     -21.286  -3.877  -8.610  0.00  0.00     0.017 C 
HETATM   11  C           1     -22.113  -4.663  -7.602  0.00  0.00     0.012 C 
HETATM   12  C           1     -19.815  -3.939  -8.219  0.00  0.00     0.012 C 
ENDBRANCH   1  10
BRANCH   1  13
HETATM   13  N           1     -20.130  -4.615 -10.662  0.00  0.00    -0.066 N 
HETATM   14  H           1     -19.844  -5.620 -10.671  0.00  0.00     0.275 HD
HETATM   15  H           1     -20.191  -4.262 -11.643  0.00  0.00     0.275 HD
HETATM   16  H           1     -19.421  -4.056 -10.134  0.00  0.00     0.275 HD
ENDBRANCH   1  13
TORSDOF 5
ENDMDL
MODEL 5
REMARK VINA RESULT:      -5.1      3.819      6.326
REMARK  5 active torsions:
REMARK  status: ('A' for Active; 'I' for Inactive)
REMARK    1  A    between atoms: C_1  and  C_3 
REMARK    2  A    between atoms: C_1  and  C_4 
REMARK    3  A    between atoms: C_1  and  N_13 
REMARK       I    between atoms: C_3  and  N_11 
REMARK    4  A    between atoms: C_7  and  C_12 
REMARK    5  A    between atoms: N_11  and  C_12 
ROOT
HETATM    1  C           1     -22.881  -4.407  -9.137  0.00  0.00     0.278 C 
ENDROOT
BRANCH   1   2
HETATM    2  C           1     -21.768  -4.407  -8.118  0.00  0.00     0.249 C 
HETATM    3  N           1     -21.005  -5.529  -7.938  0.00  0.00    -0.349 N 
HETATM    4  H           1     -21.187  -6.359  -8.487  0.00  0.00     0.163 HD
HETATM    5  O           1     -21.550  -3.416  -7.462  0.00  0.00    -0.271 OA
BRANCH   3   6
HETATM    6  C           1     -19.935  -5.528  -6.959  0.00  0.00     0.235 C 
BRANCH   6   7
HETATM    7  C           1     -20.316  -6.410  -5.795  0.00  0.00     0.191 C 
HETATM    8  O           1     -20.035  -7.628  -5.815  0.00  0.00    -0.647 OA
HETATM    9  O           1     -20.912  -5.923  -4.811  0.00  0.00    -0.647 OA
ENDBRANCH   6   7
ENDBRANCH   3   6
ENDBRANCH   1   2
BRANCH   1  10
HETATM   10  C           1     -22.481  -3.546 -10.328  0.00  0.00     0.017 C 
HETATM   11  C           1     -21.512  -4.320 -11.212  0.00  0.00     0.012 C 
HETATM   12  C           1     -23.723  -3.185 -11.132  0.00  0.00     0.012 C 
ENDBRANCH   1  10
BRANCH   1  13
HETATM   13  N           1     -24.127  -3.851  -8.515  0.00  0.00    -0.066 N 
HETATM   14  H           1     -24.311  -4.337  -7.608  0.00  0.00     0.275 HD
HETATM   15  H           1     -24.004  -2.828  -8.343  0.00  0.00     0.275 HD
HETATM   16  H           1     -24.935  -4.000  -9.161  0.00  0.00     0.275 HD
ENDBRANCH   1  13
TORSDOF 5
ENDMDL
MODEL 6
REMARK VINA RESULT:      -5.0      2.556      3.628
REMARK  5 active torsions:
REMARK  status: ('A' for Active; 'I' for Inactive)
REMARK    1  A    between atoms: C_1  and  C_3 
REMARK    2  A    between atoms: C_1  and  C_4 
REMARK    3  A    between atoms: C_1  and  N_13 
REMARK       I    between atoms: C_3  and  N_11 
REMARK    4  A    between atoms: C_7  and  C_12 
REMARK    5  A    between atoms: N_11  and  C_12 
ROOT
HETATM    1  C           1     -21.223  -5.347  -7.670  0.00  0.00     0.278 C 
ENDROOT
BRANCH   1   2
HETATM    2  C           1     -22.502  -4.642  -8.051  0.00  0.00     0.249 C 
HETATM    3  N           1     -22.707  -4.249  -9.346  0.00  0.00    -0.349 N 
HETATM    4  H           1     -22.001  -4.431 -10.048  0.00  0.00     0.163 HD
HETATM    5  O           1     -23.345  -4.424  -7.213  0.00  0.00    -0.271 OA
BRANCH   3   6
HETATM    6  C           1     -23.936  -3.572  -9.712  0.00  0.00     0.235 C 
BRANCH   6   7
HETATM    7  C           1     -23.912  -3.245 -11.185  0.00  0.00     0.191 C 
HETATM    8  O           1     -24.979  -3.000 -11.788  0.00  0.00    -0.647 OA
HETATM    9  O           1     -22.826  -3.221 -11.802  0.00  0.00    -0.647 OA
ENDBRANCH   6   7
ENDBRANCH   3   6
ENDBRANCH   1   2
BRANCH   1  10
HETATM   10  C           1     -21.172  -5.525  -6.158  0.00  0.00     0.017 C 
HETATM   11  C           1     -20.846  -6.976  -5.828  0.00  0.00     0.012 C 
HETATM   12  C           1     -20.094  -4.618  -5.576  0.00  0.00     0.012 C 
ENDBRANCH   1  10
BRANCH   1  13
HETATM   13  N           1     -20.049  -4.527  -8.115  0.00  0.00    -0.066 N 
HETATM   14  H           1     -19.909  -4.648  -9.144  0.00  0.00     0.275 HD
HETATM   15  H           1     -20.227  -3.519  -7.904  0.00  0.00     0.275 HD
HETATM   16  H           1     -19.192  -4.842  -7.607  0.00  0.00     0.275 HD
ENDBRANCH   1  13
TORSDOF 5
ENDMDL
MODEL 7
REMARK VINA RESULT:      -4.9     16.285     17.880
REMARK  5 active torsions:
REMARK  status: ('A' for Active; 'I' for Inactive)
REMARK    1  A    between atoms: C_1  and  C_3 
REMARK    2  A    between atoms: C_1  and  C_4 
REMARK    3  A    between atoms: C_1  and  N_13 
REMARK       I    between atoms: C_3  and  N_11 
REMARK    4  A    between atoms: C_7  and  C_12 
REMARK    5  A    between atoms: N_11  and  C_12 
ROOT
HETATM    1  C           1     -12.024   4.740 -21.401  0.00  0.00     0.278 C 
ENDROOT
BRANCH   1   2
HETATM    2  C           1     -12.024   5.852 -20.380  0.00  0.00     0.249 C 
HETATM    3  N           1     -11.877   7.151 -20.784  0.00  0.00    -0.349 N 
HETATM    4  H           1     -11.768   7.367 -21.767  0.00  0.00     0.163 HD
HETATM    5  O           1     -12.154   5.595 -19.207  0.00  0.00    -0.271 OA
BRANCH   3   6
HETATM    6  C           1     -11.877   8.219 -19.803  0.00  0.00     0.235 C 
BRANCH   6   7
HETATM    7  C           1     -10.456   8.543 -19.411  0.00  0.00     0.191 C 
HETATM    8  O           1     -10.207   8.974 -18.264  0.00  0.00    -0.647 OA
HETATM    9  O           1      -9.528   8.381 -20.232  0.00  0.00    -0.647 OA
ENDBRANCH   6   7
ENDBRANCH   3   6
ENDBRANCH   1   2
BRANCH   1  10
HETATM   10  C           1     -12.302   3.412 -20.707  0.00  0.00     0.017 C 
HETATM   11  C           1     -13.402   2.669 -21.452  0.00  0.00     0.012 C 
HETATM   12  C           1     -11.033   2.569 -20.702  0.00  0.00     0.012 C 
ENDBRANCH   1  10
BRANCH   1  13
HETATM   13  N           1     -10.686   4.680 -22.075  0.00  0.00    -0.066 N 
HETATM   14  H           1     -10.122   3.904 -21.662  0.00  0.00     0.275 HD
HETATM   15  H           1     -10.817   4.510 -23.097  0.00  0.00     0.275 HD
HETATM   16  H           1     -10.186   5.587 -21.935  0.00  0.00     0.275 HD
ENDBRANCH   1  13
TORSDOF 5
ENDMDL
MODEL 8
REMARK VINA RESULT:      -4.8      5.273      7.757
REMARK  5 active torsions:
REMARK  status: ('A' for Active; 'I' for Inactive)
REMARK    1  A    between atoms: C_1  and  C_3 
REMARK    2  A    between atoms: C_1  and  C_4 
REMARK    3  A    between atoms: C_1  and  N_13 
REMARK       I    between atoms: C_3  and  N_11 
REMARK    4  A    between atoms: C_7  and  C_12 
REMARK    5  A    between atoms: N_11  and  C_12 
ROOT
HETATM    1  C           1     -20.777  -4.542  -7.427  0.00  0.00     0.278 C 
ENDROOT
BRANCH   1   2
HETATM    2  C           1     -21.148  -5.750  -6.602  0.00  0.00     0.249 C 
HETATM    3  N           1     -22.040  -5.628  -5.572  0.00  0.00    -0.349 N 
HETATM    4  H           1     -22.453  -4.727  -5.363  0.00  0.00     0.163 HD
HETATM    5  O           1     -20.656  -6.825  -6.850  0.00  0.00    -0.271 OA
BRANCH   3   6
HETATM    6  C           1     -22.396  -6.789  -4.779  0.00  0.00     0.235 C 
BRANCH   6   7
HETATM    7  C           1     -21.825  -6.645  -3.390  0.00  0.00     0.191 C 
HETATM    8  O           1     -22.398  -5.917  -2.551  0.00  0.00    -0.647 OA
HETATM    9  O           1     -20.779  -7.253  -3.078  0.00  0.00    -0.647 OA
ENDBRANCH   6   7
ENDBRANCH   3   6
ENDBRANCH   1   2
BRANCH   1  10
HETATM   10  C           1     -21.422  -4.649  -8.803  0.00  0.00     0.017 C 
HETATM   11  C           1     -22.704  -3.828  -8.829  0.00  0.00     0.012 C 
HETATM   12  C           1     -20.458  -4.117  -9.857  0.00  0.00     0.012 C 
ENDBRANCH   1  10
BRANCH   1  13
HETATM   13  N           1     -19.286  -4.479  -7.578  0.00  0.00    -0.066 N 
HETATM   14  H           1     -19.046  -4.239  -8.566  0.00  0.00     0.275 HD
HETATM   15  H           1     -18.902  -3.747  -6.939  0.00  0.00     0.275 HD
HETATM   16  H           1     -18.872  -5.407  -7.333  0.00  0.00     0.275 HD
ENDBRANCH   1  13
TORSDOF 5
ENDMDL
MODEL 9
REMARK VINA RESULT:      -4.7      8.459     10.769
REMARK  5 active torsions:
REMARK  status: ('A' for Active; 'I' for Inactive)
REMARK    1  A    between atoms: C_1  and  C_3 
REMARK    2  A    between atoms: C_1  and  C_4 
REMARK    3  A    between atoms: C_1  and  N_13 
REMARK       I    between atoms: C_3  and  N_11 
REMARK    4  A    between atoms: C_7  and  C_12 
REMARK    5  A    between atoms: N_11  and  C_12 
ROOT
HETATM    1  C           1     -22.254  -8.317  -0.025  0.00  0.00     0.278 C 
ENDROOT
BRANCH   1   2
HETATM    2  C           1     -22.056  -7.317  -1.138  0.00  0.00     0.249 C 
HETATM    3  N           1     -21.259  -7.631  -2.206  0.00  0.00    -0.349 N 
HETATM    4  H           1     -20.803  -8.533  -2.250  0.00  0.00     0.163 HD
HETATM    5  O           1     -22.601  -6.240  -1.087  0.00  0.00    -0.271 OA
BRANCH   3   6
HETATM    6  C           1     -21.069  -6.670  -3.276  0.00  0.00     0.235 C 
BRANCH   6   7
HETATM    7  C           1     -21.914  -7.064  -4.463  0.00  0.00     0.191 C 
HETATM    8  O           1     -22.788  -6.281  -4.894  0.00  0.00    -0.647 OA
HETATM    9  O           1     -21.740  -8.172  -5.014  0.00  0.00    -0.647 OA
ENDBRANCH   6   7
ENDBRANCH   3   6
ENDBRANCH   1   2
BRANCH   1  10
HETATM   10  C           1     -22.272  -9.726  -0.603  0.00  0.00     0.017 C 
HETATM   11  C           1     -21.139 -10.540   0.007  0.00  0.00     0.012 C 
HETATM   12  C           1     -23.605 -10.389  -0.280  0.00  0.00     0.012 C 
ENDBRANCH   1  10
BRANCH   1  13
HETATM   13  N           1     -23.557  -8.043   0.665  0.00  0.00    -0.066 N 
HETATM   14  H           1     -23.509  -8.388   1.650  0.00  0.00     0.275 HD
HETATM   15  H           1     -23.743  -7.015   0.665  0.00  0.00     0.275 HD
HETATM   16  H           1     -24.328  -8.537   0.160  0.00  0.00     0.275 HD
ENDBRANCH   1  13
TORSDOF 5
ENDMDL
