MODEL 1
REMARK VINA RESULT:      -5.9      0.000      0.000
REMARK  8 active torsions:
REMARK  status: ('A' for Active; 'I' for Inactive)
REMARK    1  A    between atoms: N_1  and  C_16 
REMARK       I    between atoms: N_1  and  C_3 
REMARK    2  A    between atoms: C_3  and  C_18 
REMARK    3  A    between atoms: C_10  and  C_16 
REMARK    4  A    between atoms: C_13  and  C_15 
REMARK    5  A    between atoms: C_15  and  C_16 
REMARK    6  A    between atoms: C_17  and  C_19 
REMARK    7  A    between atoms: C_18  and  C_19 
REMARK    8  A    between atoms: C_18  and  N_20 
ROOT
HETATM    1  N           1     -22.309  -4.937  -8.964  0.00  0.00    -0.344 N 
HETATM    2  C           1     -21.719  -4.802  -7.737  0.00  0.00     0.249 C 
HETATM    3  O           1     -21.611  -3.707  -7.236  0.00  0.00    -0.271 OA
HETATM    4  H           1     -22.399  -5.853  -9.384  0.00  0.00     0.163 HD
ENDROOT
BRANCH   2   5
HETATM    5  C           1     -21.204  -6.019  -7.009  0.00  0.00     0.278 C 
BRANCH   5   6
HETATM    6  C           1     -21.521  -5.895  -5.525  0.00  0.00     0.021 C 
HETATM    7  C           1     -22.980  -6.260  -5.284  0.00  0.00     0.012 C 
BRANCH   6   8
HETATM    8  C           1     -20.625  -6.841  -4.734  0.00  0.00     0.002 C 
HETATM    9  C           1     -21.202  -7.039  -3.339  0.00  0.00     0.005 C 
ENDBRANCH   6   8
ENDBRANCH   5   6
BRANCH   5  10
HETATM   10  N           1     -19.719  -6.121  -7.196  0.00  0.00    -0.066 N 
HETATM   11  H           1     -19.354  -5.220  -7.578  0.00  0.00     0.275 HD
HETATM   12  H           1     -19.504  -6.895  -7.864  0.00  0.00     0.275 HD
HETATM   13  H           1     -19.265  -6.318  -6.276  0.00  0.00     0.275 HD
ENDBRANCH   5  10
ENDBRANCH   2   5
BRANCH   1  14
HETATM   14  C           1     -22.804  -3.767  -9.664  0.00  0.00     0.195 C 
BRANCH  14  15
HETATM   15  C           1     -24.313  -3.798  -9.689  0.00  0.00     0.197 C 
HETATM   16  O           1     -24.962  -2.743  -9.525  0.00  0.00    -0.646 OA
HETATM   17  O           1     -24.913  -4.879  -9.873  0.00  0.00    -0.646 OA
ENDBRANCH  14  15
BRANCH  14  18
HETATM   18  C           1     -22.273  -3.767 -11.091  0.00  0.00     0.149 C 
BRANCH  18  19
HETATM   19  C           1     -20.768  -3.653 -11.068  0.00  0.00     0.175 C 
HETATM   20  O           1     -20.068  -4.662 -10.835  0.00  0.00    -0.648 OA
HETATM   21  O           1     -20.221  -2.549 -11.283  0.00  0.00    -0.648 OA
ENDBRANCH  18  19
ENDBRANCH  14  18
ENDBRANCH   1  14
TORSDOF 8
ENDMDL
MODEL 2
REMARK VINA RESULT:      -5.6      2.184      6.179
REMARK  8 active torsions:
REMARK  status: ('A' for Active; 'I' for Inactive)
REMARK    1  A    between atoms: N_1  and  C_16 
REMARK       I    between atoms: N_1  and  C_3 
REMARK    2  A    between atoms: C_3  and  C_18 
REMARK    3  A    between atoms: C_10  and  C_16 
REMARK    4  A    between atoms: C_13  and  C_15 
REMARK    5  A    between atoms: C_15  and  C_16 
REMARK    6  A    between atoms: C_17  and  C_19 
REMARK    7  A    between atoms: C_18  and  C_19 
REMARK    8  A    between atoms: C_18  and  N_20 
ROOT
HETATM    1  N           1     -21.718  -5.071  -8.370  0.00  0.00    -0.344 N 
HETATM    2  C           1     -22.955  -4.533  -8.603  0.00  0.00     0.249 C 
HETATM    3  O           1     -23.560  -4.000  -7.704  0.00  0.00    -0.271 OA
HETATM    4  H           1     -21.211  -5.518  -9.123  0.00  0.00     0.163 HD
ENDROOT
BRANCH   2   5
HETATM    5  C           1     -23.562  -4.607  -9.982  0.00  0.00     0.278 C 
BRANCH   5   6
HETATM    6  C           1     -22.911  -3.563 -10.880  0.00  0.00     0.021 C 
HETATM    7  C           1     -21.795  -4.212 -11.689  0.00  0.00     0.012 C 
BRANCH   6   8
HETATM    8  C           1     -23.955  -2.989 -11.829  0.00  0.00     0.002 C 
HETATM    9  C           1     -23.321  -2.737 -13.191  0.00  0.00     0.005 C 
ENDBRANCH   6   8
ENDBRANCH   5   6
BRANCH   5  10
HETATM   10  N           1     -25.035  -4.341  -9.894  0.00  0.00    -0.066 N 
HETATM   11  H           1     -25.253  -3.889  -8.977  0.00  0.00     0.275 HD
HETATM   12  H           1     -25.558  -5.243  -9.970  0.00  0.00     0.275 HD
HETATM   13  H           1     -25.322  -3.705 -10.672  0.00  0.00     0.275 HD
ENDBRANCH   5  10
ENDBRANCH   2   5
BRANCH   1  14
HETATM   14  C           1     -21.134  -5.000  -7.045  0.00  0.00     0.195 C 
BRANCH  14  15
HETATM   15  C           1     -19.726  -4.465  -7.144  0.00  0.00     0.197 C 
HETATM   16  O           1     -19.372  -3.821  -8.155  0.00  0.00    -0.646 OA
HETATM   17  O           1     -18.914  -4.667  -6.216  0.00  0.00    -0.646 OA
ENDBRANCH  14  15
BRANCH  14  18
HETATM   18  C           1     -21.107  -6.392  -6.428  0.00  0.00     0.149 C 
BRANCH  18  19
HETATM   19  C           1     -21.819  -6.367  -5.097  0.00  0.00     0.175 C 
HETATM   20  O           1     -21.181  -6.584  -4.044  0.00  0.00    -0.648 OA
HETATM   21  O           1     -23.045  -6.131  -5.049  0.00  0.00    -0.648 OA
ENDBRANCH  18  19
ENDBRANCH  14  18
ENDBRANCH   1  14
TORSDOF 8
ENDMDL
MODEL 3
REMARK VINA RESULT:      -5.5      4.807      7.210
REMARK  8 active torsions:
REMARK  status: ('A' for Active; 'I' for Inactive)
REMARK    1  A    between atoms: N_1  and  C_16 
REMARK       I    between atoms: N_1  and  C_3 
REMARK    2  A    between atoms: C_3  and  C_18 
REMARK    3  A    between atoms: C_10  and  C_16 
REMARK    4  A    between atoms: C_13  and  C_15 
REMARK    5  A    between atoms: C_15  and  C_16 
REMARK    6  A    between atoms: C_17  and  C_19 
REMARK    7  A    between atoms: C_18  and  C_19 
REMARK    8  A    between atoms: C_18  and  N_20 
ROOT
HETATM    1  N           1     -20.809  -7.909  -3.359  0.00  0.00    -0.344 N 
HETATM    2  C           1     -21.189  -8.629  -2.259  0.00  0.00     0.249 C 
HETATM    3  O           1     -21.420  -9.810  -2.361  0.00  0.00    -0.271 OA
HETATM    4  H           1     -20.616  -6.919  -3.273  0.00  0.00     0.163 HD
ENDROOT
BRANCH   2   5
HETATM    5  C           1     -21.318  -7.948  -0.918  0.00  0.00     0.278 C 
BRANCH   5   6
HETATM    6  C           1     -21.753  -8.965   0.129  0.00  0.00     0.021 C 
HETATM    7  C           1     -21.071  -8.654   1.455  0.00  0.00     0.012 C 
BRANCH   6   8
HETATM    8  C           1     -23.264  -8.895   0.307  0.00  0.00     0.002 C 
HETATM    9  C           1     -23.872 -10.265   0.038  0.00  0.00     0.005 C 
ENDBRANCH   6   8
ENDBRANCH   5   6
BRANCH   5  10
HETATM   10  N           1     -22.342  -6.856  -1.009  0.00  0.00    -0.066 N 
HETATM   11  H           1     -22.446  -6.560  -2.006  0.00  0.00     0.275 HD
HETATM   12  H           1     -22.034  -6.041  -0.434  0.00  0.00     0.275 HD
HETATM   13  H           1     -23.259  -7.208  -0.653  0.00  0.00     0.275 HD
ENDBRANCH   5  10
ENDBRANCH   2   5
BRANCH   1  14
HETATM   14  C           1     -20.685  -8.563  -4.647  0.00  0.00     0.195 C 
BRANCH  14  15
HETATM   15  C           1     -19.226  -8.781  -4.961  0.00  0.00     0.197 C 
HETATM   16  O           1     -18.805  -8.612  -6.125  0.00  0.00    -0.646 OA
HETATM   17  O           1     -18.437  -9.130  -4.055  0.00  0.00    -0.646 OA
ENDBRANCH  14  15
BRANCH  14  18
HETATM   18  C           1     -21.311  -7.686  -5.723  0.00  0.00     0.149 C 
BRANCH  18  19
HETATM   19  C           1     -21.685  -6.349  -5.130  0.00  0.00     0.175 C 
HETATM   20  O           1     -22.849  -6.150  -4.722  0.00  0.00    -0.648 OA
HETATM   21  O           1     -20.830  -5.440  -5.047  0.00  0.00    -0.648 OA
ENDBRANCH  18  19
ENDBRANCH  14  18
ENDBRANCH   1  14
TORSDOF 8
ENDMDL
MODEL 4
REMARK VINA RESULT:      -5.5      3.332      6.362
REMARK  8 active torsions:
REMARK  status: ('A' for Active; 'I' for Inactive)
REMARK    1  A    between atoms: N_1  and  C_16 
REMARK       I    between atoms: N_1  and  C_3 
REMARK    2  A    between atoms: C_3  and  C_18 
REMARK    3  A    between atoms: C_10  and  C_16 
REMARK    4  A    between atoms: C_13  and  C_15 
REMARK    5  A    between atoms: C_15  and  C_16 
REMARK    6  A    between atoms: C_17  and  C_19 
REMARK    7  A    between atoms: C_18  and  C_19 
REMARK    8  A    between atoms: C_18  and  N_20 
ROOT
HETATM    1  N           1     -20.898  -6.458  -4.692  0.00  0.00    -0.344 N 
HETATM    2  C           1     -21.668  -5.704  -5.535  0.00  0.00     0.249 C 
HETATM    3  O           1     -22.865  -5.862  -5.562  0.00  0.00    -0.271 OA
HETATM    4  H           1     -19.895  -6.327  -4.669  0.00  0.00     0.163 HD
ENDROOT
BRANCH   2   5
HETATM    5  C           1     -21.022  -4.676  -6.430  0.00  0.00     0.278 C 
BRANCH   5   6
HETATM    6  C           1     -21.376  -4.971  -7.881  0.00  0.00     0.021 C 
HETATM    7  C           1     -22.371  -3.932  -8.383  0.00  0.00     0.012 C 
BRANCH   6   8
HETATM    8  C           1     -20.114  -4.916  -8.733  0.00  0.00     0.002 C 
HETATM    9  C           1     -20.451  -4.342 -10.103  0.00  0.00     0.005 C 
ENDBRANCH   6   8
ENDBRANCH   5   6
BRANCH   5  10
HETATM   10  N           1     -19.532  -4.730  -6.259  0.00  0.00    -0.066 N 
HETATM   11  H           1     -19.132  -5.431  -6.922  0.00  0.00     0.275 HD
HETATM   12  H           1     -19.304  -5.009  -5.278  0.00  0.00     0.275 HD
HETATM   13  H           1     -19.124  -3.789  -6.458  0.00  0.00     0.275 HD
ENDBRANCH   5  10
ENDBRANCH   2   5
BRANCH   1  14
HETATM   14  C           1     -21.518  -7.447  -3.831  0.00  0.00     0.195 C 
BRANCH  14  15
HETATM   15  C           1     -21.639  -6.891  -2.433  0.00  0.00     0.197 C 
HETATM   16  O           1     -22.385  -5.913  -2.212  0.00  0.00    -0.646 OA
HETATM   17  O           1     -20.993  -7.409  -1.497  0.00  0.00    -0.646 OA
ENDBRANCH  14  15
BRANCH  14  18
HETATM   18  C           1     -20.662  -8.706  -3.806  0.00  0.00     0.149 C 
BRANCH  18  19
HETATM   19  C           1     -20.274  -9.080  -5.215  0.00  0.00     0.175 C 
HETATM   20  O           1     -19.225  -8.620  -5.716  0.00  0.00    -0.648 OA
HETATM   21  O           1     -21.000  -9.850  -5.881  0.00  0.00    -0.648 OA
ENDBRANCH  18  19
ENDBRANCH  14  18
ENDBRANCH   1  14
TORSDOF 8
ENDMDL
MODEL 5
REMARK VINA RESULT:      -5.3      3.264      6.547
REMARK  8 active torsions:
REMARK  status: ('A' for Active; 'I' for Inactive)
REMARK    1  A    between atoms: N_1  and  C_16 
REMARK       I    between atoms: N_1  and  C_3 
REMARK    2  A    between atoms: C_3  and  C_18 
REMARK    3  A    between atoms: C_10  and  C_16 
REMARK    4  A    between atoms: C_13  and  C_15 
REMARK    5  A    between atoms: C_15  and  C_16 
REMARK    6  A    between atoms: C_17  and  C_19 
REMARK    7  A    between atoms: C_18  and  C_19 
REMARK    8  A    between atoms: C_18  and  N_20 
ROOT
HETATM    1  N           1     -21.581  -6.542  -5.942  0.00  0.00    -0.344 N 
HETATM    2  C           1     -21.269  -5.228  -6.164  0.00  0.00     0.249 C 
HETATM    3  O           1     -20.412  -4.691  -5.503  0.00  0.00    -0.271 OA
HETATM    4  H           1     -22.299  -6.992  -6.495  0.00  0.00     0.163 HD
ENDROOT
BRANCH   2   5
HETATM    5  C           1     -21.997  -4.450  -7.233  0.00  0.00     0.278 C 
BRANCH   5   6
HETATM    6  C           1     -21.686  -5.050  -8.598  0.00  0.00     0.021 C 
HETATM    7  C           1     -22.783  -4.669  -9.583  0.00  0.00     0.012 C 
BRANCH   6   8
HETATM    8  C           1     -20.349  -4.514  -9.095  0.00  0.00     0.002 C 
HETATM    9  C           1     -20.430  -4.263 -10.595  0.00  0.00     0.005 C 
ENDBRANCH   6   8
ENDBRANCH   5   6
BRANCH   5  10
HETATM   10  N           1     -21.547  -3.020  -7.202  0.00  0.00    -0.066 N 
HETATM   11  H           1     -21.770  -2.566  -8.117  0.00  0.00     0.275 HD
HETATM   12  H           1     -20.516  -2.981  -7.036  0.00  0.00     0.275 HD
HETATM   13  H           1     -22.043  -2.515  -6.433  0.00  0.00     0.275 HD
ENDBRANCH   5  10
ENDBRANCH   2   5
BRANCH   1  14
HETATM   14  C           1     -20.882  -7.290  -4.915  0.00  0.00     0.195 C 
BRANCH  14  15
HETATM   15  C           1     -20.255  -8.519  -5.527  0.00  0.00     0.197 C 
HETATM   16  O           1     -19.035  -8.531  -5.794  0.00  0.00    -0.646 OA
HETATM   17  O           1     -20.957  -9.525  -5.766  0.00  0.00    -0.646 OA
ENDBRANCH  14  15
BRANCH  14  18
HETATM   18  C           1     -21.869  -7.708  -3.832  0.00  0.00     0.149 C 
BRANCH  18  19
HETATM   19  C           1     -21.597  -6.923  -2.573  0.00  0.00     0.175 C 
HETATM   20  O           1     -22.237  -5.875  -2.339  0.00  0.00    -0.648 OA
HETATM   21  O           1     -20.732  -7.321  -1.762  0.00  0.00    -0.648 OA
ENDBRANCH  18  19
ENDBRANCH  14  18
ENDBRANCH   1  14
TORSDOF 8
ENDMDL
MODEL 6
REMARK VINA RESULT:      -5.2      2.341      4.115
REMARK  8 active torsions:
REMARK  status: ('A' for Active; 'I' for Inactive)
REMARK    1  A    between atoms: N_1  and  C_16 
REMARK       I    between atoms: N_1  and  C_3 
REMARK    2  A    between atoms: C_3  and  C_18 
REMARK    3  A    between atoms: C_10  and  C_16 
REMARK    4  A    between atoms: C_13  and  C_15 
REMARK    5  A    between atoms: C_15  and  C_16 
REMARK    6  A    between atoms: C_17  and  C_19 
REMARK    7  A    between atoms: C_18  and  C_19 
REMARK    8  A    between atoms: C_18  and  N_20 
ROOT
HETATM    1  N           1     -21.795  -5.811  -5.689  0.00  0.00    -0.344 N 
HETATM    2  C           1     -21.583  -7.141  -5.443  0.00  0.00     0.249 C 
HETATM    3  O           1     -21.097  -7.843  -6.297  0.00  0.00    -0.271 OA
HETATM    4  H           1     -22.203  -5.223  -4.974  0.00  0.00     0.163 HD
ENDROOT
BRANCH   2   5
HETATM    5  C           1     -21.959  -7.729  -4.105  0.00  0.00     0.278 C 
BRANCH   5   6
HETATM    6  C           1     -21.170  -7.033  -3.004  0.00  0.00     0.021 C 
HETATM    7  C           1     -22.113  -6.182  -2.163  0.00  0.00     0.012 C 
BRANCH   6   8
HETATM    8  C           1     -20.505  -8.078  -2.118  0.00  0.00     0.002 C 
HETATM    9  C           1     -21.145  -8.054  -0.736  0.00  0.00     0.005 C 
ENDBRANCH   6   8
ENDBRANCH   5   6
BRANCH   5  10
HETATM   10  N           1     -21.640  -9.195  -4.097  0.00  0.00    -0.066 N 
HETATM   11  H           1     -20.607  -9.325  -4.006  0.00  0.00     0.275 HD
HETATM   12  H           1     -21.969  -9.628  -4.989  0.00  0.00     0.275 HD
HETATM   13  H           1     -22.120  -9.651  -3.289  0.00  0.00     0.275 HD
ENDBRANCH   5  10
ENDBRANCH   2   5
BRANCH   1  14
HETATM   14  C           1     -21.434  -5.245  -6.974  0.00  0.00     0.195 C 
BRANCH  14  15
HETATM   15  C           1     -20.014  -4.736  -6.918  0.00  0.00     0.197 C 
HETATM   16  O           1     -19.450  -4.579  -5.814  0.00  0.00    -0.646 OA
HETATM   17  O           1     -19.403  -4.470  -7.976  0.00  0.00    -0.646 OA
ENDBRANCH  14  15
BRANCH  14  18
HETATM   18  C           1     -22.375  -4.094  -7.304  0.00  0.00     0.149 C 
BRANCH  18  19
HETATM   19  C           1     -22.931  -4.280  -8.694  0.00  0.00     0.175 C 
HETATM   20  O           1     -24.034  -3.776  -8.998  0.00  0.00    -0.648 OA
HETATM   21  O           1     -22.290  -4.938  -9.542  0.00  0.00    -0.648 OA
ENDBRANCH  18  19
ENDBRANCH  14  18
ENDBRANCH   1  14
TORSDOF 8
ENDMDL
MODEL 7
REMARK VINA RESULT:      -5.2      5.369      7.419
REMARK  8 active torsions:
REMARK  status: ('A' for Active; 'I' for Inactive)
REMARK    1  A    between atoms: N_1  and  C_16 
REMARK       I    between atoms: N_1  and  C_3 
REMARK    2  A    between atoms: C_3  and  C_18 
REMARK    3  A    between atoms: C_10  and  C_16 
REMARK    4  A    between atoms: C_13  and  C_15 
REMARK    5  A    between atoms: C_15  and  C_16 
REMARK    6  A    between atoms: C_17  and  C_19 
REMARK    7  A    between atoms: C_18  and  C_19 
REMARK    8  A    between atoms: C_18  and  N_20 
ROOT
HETATM    1  N           1     -21.473  -8.810  -3.284  0.00  0.00    -0.344 N 
HETATM    2  C           1     -21.901 -10.092  -3.074  0.00  0.00     0.249 C 
HETATM    3  O           1     -22.285 -10.761  -4.004  0.00  0.00    -0.271 OA
HETATM    4  H           1     -21.152  -8.249  -2.505  0.00  0.00     0.163 HD
ENDROOT
BRANCH   2   5
HETATM    5  C           1     -21.895 -10.671  -1.681  0.00  0.00     0.278 C 
BRANCH   5   6
HETATM    6  C           1     -22.937  -9.958  -0.829  0.00  0.00     0.021 C 
HETATM    7  C           1     -23.847 -10.988  -0.171  0.00  0.00     0.012 C 
BRANCH   6   8
HETATM    8  C           1     -22.238  -9.139   0.248  0.00  0.00     0.002 C 
HETATM    9  C           1     -23.125  -7.967   0.650  0.00  0.00     0.005 C 
ENDBRANCH   6   8
ENDBRANCH   5   6
BRANCH   5  10
HETATM   10  N           1     -20.538 -10.485  -1.069  0.00  0.00    -0.066 N 
HETATM   11  H           1     -20.157 -11.413  -0.779  0.00  0.00     0.275 HD
HETATM   12  H           1     -20.615  -9.863  -0.232  0.00  0.00     0.275 HD
HETATM   13  H           1     -19.897 -10.049  -1.769  0.00  0.00     0.275 HD
ENDBRANCH   5  10
ENDBRANCH   2   5
BRANCH   1  14
HETATM   14  C           1     -21.479  -8.253  -4.623  0.00  0.00     0.195 C 
BRANCH  14  15
HETATM   15  C           1     -20.061  -8.135  -5.125  0.00  0.00     0.197 C 
HETATM   16  O           1     -19.130  -8.694  -4.506  0.00  0.00    -0.646 OA
HETATM   17  O           1     -19.816  -7.477  -6.159  0.00  0.00    -0.646 OA
ENDBRANCH  14  15
BRANCH  14  18
HETATM   18  C           1     -22.125  -6.875  -4.596  0.00  0.00     0.149 C 
BRANCH  18  19
HETATM   19  C           1     -21.827  -6.204  -3.278  0.00  0.00     0.175 C 
HETATM   20  O           1     -20.726  -5.639  -3.100  0.00  0.00    -0.648 OA
HETATM   21  O           1     -22.680  -6.212  -2.364  0.00  0.00    -0.648 OA
ENDBRANCH  18  19
ENDBRANCH  14  18
ENDBRANCH   1  14
TORSDOF 8
ENDMDL
MODEL 8
REMARK VINA RESULT:      -5.0      3.872      6.383
REMARK  8 active torsions:
REMARK  status: ('A' for Active; 'I' for Inactive)
REMARK    1  A    between atoms: N_1  and  C_16 
REMARK       I    between atoms: N_1  and  C_3 
REMARK    2  A    between atoms: C_3  and  C_18 
REMARK    3  A    between atoms: C_10  and  C_16 
REMARK    4  A    between atoms: C_13  and  C_15 
REMARK    5  A    between atoms: C_15  and  C_16 
REMARK    6  A    between atoms: C_17  and  C_19 
REMARK    7  A    between atoms: C_18  and  C_19 
REMARK    8  A    between atoms: C_18  and  N_20 
ROOT
HETATM    1  N           1     -19.951  -7.689  -5.048  0.00  0.00    -0.344 N 
HETATM    2  C           1     -20.072  -9.035  -5.265  0.00  0.00     0.249 C 
HETATM    3  O           1     -21.133  -9.497  -5.612  0.00  0.00    -0.271 OA
HETATM    4  H           1     -19.063  -7.302  -4.756  0.00  0.00     0.163 HD
ENDROOT
BRANCH   2   5
HETATM    5  C           1     -18.882  -9.941  -5.069  0.00  0.00     0.278 C 
BRANCH   5   6
HETATM    6  C           1     -18.075  -9.468  -3.867  0.00  0.00     0.021 C 
HETATM    7  C           1     -18.633 -10.100  -2.598  0.00  0.00     0.012 C 
BRANCH   6   8
HETATM    8  C           1     -16.619  -9.880  -4.040  0.00  0.00     0.002 C 
HETATM    9  C           1     -15.867  -9.649  -2.735  0.00  0.00     0.005 C 
ENDBRANCH   6   8
ENDBRANCH   5   6
BRANCH   5  10
HETATM   10  N           1     -18.019  -9.904  -6.295  0.00  0.00    -0.066 N 
HETATM   11  H           1     -17.600  -8.952  -6.397  0.00  0.00     0.275 HD
HETATM   12  H           1     -18.599 -10.120  -7.137  0.00  0.00     0.275 HD
HETATM   13  H           1     -17.256 -10.612  -6.206  0.00  0.00     0.275 HD
ENDBRANCH   5  10
ENDBRANCH   2   5
BRANCH   1  14
HETATM   14  C           1     -21.095  -6.818  -5.236  0.00  0.00     0.195 C 
BRANCH  14  15
HETATM   15  C           1     -20.982  -6.122  -6.570  0.00  0.00     0.197 C 
HETATM   16  O           1     -21.846  -5.287  -6.914  0.00  0.00    -0.646 OA
HETATM   17  O           1     -20.025  -6.381  -7.331  0.00  0.00    -0.646 OA
ENDBRANCH  14  15
BRANCH  14  18
HETATM   18  C           1     -21.130  -5.780  -4.122  0.00  0.00     0.149 C 
BRANCH  18  19
HETATM   19  C           1     -21.614  -6.424  -2.847  0.00  0.00     0.175 C 
HETATM   20  O           1     -22.632  -5.982  -2.271  0.00  0.00    -0.648 OA
HETATM   21  O           1     -20.999  -7.401  -2.366  0.00  0.00    -0.648 OA
ENDBRANCH  18  19
ENDBRANCH  14  18
ENDBRANCH   1  14
TORSDOF 8
ENDMDL
MODEL 9
REMARK VINA RESULT:      -5.0      7.528      9.860
REMARK  8 active torsions:
REMARK  status: ('A' for Active; 'I' for Inactive)
REMARK    1  A    between atoms: N_1  and  C_16 
REMARK       I    between atoms: N_1  and  C_3 
REMARK    2  A    between atoms: C_3  and  C_18 
REMARK    3  A    between atoms: C_10  and  C_16 
REMARK    4  A    between atoms: C_13  and  C_15 
REMARK    5  A    between atoms: C_15  and  C_16 
REMARK    6  A    between atoms: C_17  and  C_19 
REMARK    7  A    between atoms: C_18  and  C_19 
REMARK    8  A    between atoms: C_18  and  N_20 
ROOT
HETATM    1  N           1     -21.497  -9.782  -0.743  0.00  0.00    -0.344 N 
HETATM    2  C           1     -21.152 -10.732   0.180  0.00  0.00     0.249 C 
HETATM    3  O           1     -20.595 -10.408   1.201  0.00  0.00    -0.271 OA
HETATM    4  H           1     -21.963 -10.053  -1.599  0.00  0.00     0.163 HD
ENDROOT
BRANCH   2   5
HETATM    5  C           1     -21.468 -12.185  -0.080  0.00  0.00     0.278 C 
BRANCH   5   6
HETATM    6  C           1     -22.705 -12.585   0.712  0.00  0.00     0.021 C 
HETATM    7  C           1     -23.786 -13.073  -0.244  0.00  0.00     0.012 C 
BRANCH   6   8
HETATM    8  C           1     -22.346 -13.703   1.684  0.00  0.00     0.002 C 
HETATM    9  C           1     -23.595 -14.140   2.439  0.00  0.00     0.005 C 
ENDBRANCH   6   8
ENDBRANCH   5   6
BRANCH   5  10
HETATM   10  N           1     -20.306 -13.032   0.347  0.00  0.00    -0.066 N 
HETATM   11  H           1     -20.551 -14.041   0.233  0.00  0.00     0.275 HD
HETATM   12  H           1     -20.083 -12.839   1.350  0.00  0.00     0.275 HD
HETATM   13  H           1     -19.475 -12.807  -0.245  0.00  0.00     0.275 HD
ENDBRANCH   5  10
ENDBRANCH   2   5
BRANCH   1  14
HETATM   14  C           1     -21.194  -8.386  -0.494  0.00  0.00     0.195 C 
BRANCH  14  15
HETATM   15  C           1     -22.480  -7.619  -0.304  0.00  0.00     0.197 C 
HETATM   16  O           1     -22.711  -6.604  -0.996  0.00  0.00    -0.646 OA
HETATM   17  O           1     -23.315  -7.999   0.546  0.00  0.00    -0.646 OA
ENDBRANCH  14  15
BRANCH  14  18
HETATM   18  C           1     -20.432  -7.813  -1.681  0.00  0.00     0.149 C 
BRANCH  18  19
HETATM   19  C           1     -20.573  -8.738  -2.865  0.00  0.00     0.175 C 
HETATM   20  O           1     -21.590  -8.675  -3.588  0.00  0.00    -0.648 OA
HETATM   21  O           1     -19.673  -9.566  -3.122  0.00  0.00    -0.648 OA
ENDBRANCH  18  19
ENDBRANCH  14  18
ENDBRANCH   1  14
TORSDOF 8
ENDMDL
