MODEL 1
REMARK VINA RESULT:      -7.4      0.000      0.000
REMARK  9 active torsions:
REMARK  status: ('A' for Active; 'I' for Inactive)
REMARK    1  A    between atoms: C_3  and  C_13 
REMARK    2  A    between atoms: C_3  and  C_4 
REMARK    3  A    between atoms: C_3  and  N_21 
REMARK    4  A    between atoms: C_4  and  C_26 
REMARK    5  A    between atoms: O_5  and  C_10 
REMARK    6  A    between atoms: N_12  and  C_22 
REMARK    7  A    between atoms: C_14  and  C_22 
REMARK    8  A    between atoms: C_14  and  C_30 
REMARK       I    between atoms: C_20  and  N_21 
REMARK    9  A    between atoms: C_20  and  C_22 
ROOT
HETATM    1  C           1     -35.036  -2.179 -12.566  0.00  0.00     0.249 C 
HETATM    2  N           1     -36.020  -1.750 -11.717  0.00  0.00    -0.344 N 
HETATM    3  H           1     -36.442  -2.398 -11.064  0.00  0.00     0.163 HD
HETATM    4  O           1     -34.532  -1.407 -13.347  0.00  0.00    -0.271 OA
ENDROOT
BRANCH   1   5
HETATM    5  C           1     -34.580  -3.618 -12.529  0.00  0.00     0.278 C 
BRANCH   5   6
HETATM    6  N           1     -33.791  -3.923 -13.768  0.00  0.00    -0.066 N 
HETATM    7  H           1     -32.847  -3.482 -13.698  0.00  0.00     0.275 HD
HETATM    8  H           1     -33.685  -4.957 -13.868  0.00  0.00     0.275 HD
HETATM    9  H           1     -34.292  -3.541 -14.602  0.00  0.00     0.275 HD
ENDBRANCH   5   6
BRANCH   5  10
HETATM   10  C           1     -33.707  -3.844 -11.303  0.00  0.00     0.081 C 
BRANCH  10  11
HETATM   11  C           1     -33.893  -5.245 -10.809  0.00  0.00    -0.056 A 
HETATM   12  C           1     -35.040  -5.585 -10.091  0.00  0.00     0.010 A 
HETATM   13  C           1     -35.212  -6.890  -9.631  0.00  0.00     0.037 A 
HETATM   14  C           1     -34.239  -7.856  -9.888  0.00  0.00     0.065 A 
HETATM   15  C           1     -33.092  -7.516 -10.606  0.00  0.00     0.037 A 
HETATM   16  C           1     -32.919  -6.210 -11.067  0.00  0.00     0.010 A 
BRANCH  14  17
HETATM   17  O           1     -34.407  -9.124  -9.441  0.00  0.00    -0.361 OA
HETATM   18  H           1     -35.297  -9.191  -9.058  0.00  0.00     0.217 HD
ENDBRANCH  14  17
ENDBRANCH  10  11
ENDBRANCH   5  10
ENDBRANCH   1   5
BRANCH   2  19
HETATM   19  C           1     -36.457  -0.368 -11.754  0.00  0.00     0.191 C 
BRANCH  19  20
HETATM   20  C           1     -36.763   0.100 -10.352  0.00  0.00     0.197 C 
HETATM   21  O           1     -37.709   0.893 -10.151  0.00  0.00    -0.646 OA
HETATM   22  O           1     -36.071  -0.305  -9.393  0.00  0.00    -0.646 OA
ENDBRANCH  19  20
BRANCH  19  23
HETATM   23  C           1     -37.709  -0.254 -12.612  0.00  0.00     0.094 C 
BRANCH  23  24
HETATM   24  C           1     -37.323   0.091 -14.016  0.00  0.00     0.028 A 
HETATM   25  C           1     -38.075  -0.202 -15.129  0.00  0.00     0.114 A 
HETATM   26  N           1     -37.355   0.288 -16.183  0.00  0.00    -0.360 N 
HETATM   27  C           1     -36.218   0.849 -15.677  0.00  0.00     0.180 A 
HETATM   28  H           1     -37.628   0.242 -17.196  0.00  0.00     0.166 HD
HETATM   29  N           1     -36.170   0.745 -14.370  0.00  0.00    -0.354 N 
ATOM     30  HN          1     -35.433   1.079 -13.748  1.00  0.00     0.166 HD
ENDBRANCH  23  24
ENDBRANCH  19  23
ENDBRANCH   2  19
TORSDOF 9
ENDMDL
MODEL 2
REMARK VINA RESULT:      -7.4      4.979      7.142
REMARK  9 active torsions:
REMARK  status: ('A' for Active; 'I' for Inactive)
REMARK    1  A    between atoms: C_3  and  C_13 
REMARK    2  A    between atoms: C_3  and  C_4 
REMARK    3  A    between atoms: C_3  and  N_21 
REMARK    4  A    between atoms: C_4  and  C_26 
REMARK    5  A    between atoms: O_5  and  C_10 
REMARK    6  A    between atoms: N_12  and  C_22 
REMARK    7  A    between atoms: C_14  and  C_22 
REMARK    8  A    between atoms: C_14  and  C_30 
REMARK       I    between atoms: C_20  and  N_21 
REMARK    9  A    between atoms: C_20  and  C_22 
ROOT
HETATM    1  C           1     -33.897  -4.553 -15.303  0.00  0.00     0.249 C 
HETATM    2  N           1     -33.329  -4.005 -14.185  0.00  0.00    -0.344 N 
HETATM    3  H           1     -32.406  -3.593 -14.237  0.00  0.00     0.163 HD
HETATM    4  O           1     -34.998  -5.047 -15.243  0.00  0.00    -0.271 OA
ENDROOT
BRANCH   1   5
HETATM    5  C           1     -33.147  -4.543 -16.613  0.00  0.00     0.278 C 
BRANCH   5   6
HETATM    6  N           1     -33.453  -3.275 -17.354  0.00  0.00    -0.066 N 
HETATM    7  H           1     -32.561  -2.836 -17.677  0.00  0.00     0.275 HD
HETATM    8  H           1     -34.054  -3.490 -18.180  0.00  0.00     0.275 HD
HETATM    9  H           1     -33.955  -2.615 -16.719  0.00  0.00     0.275 HD
ENDBRANCH   5   6
BRANCH   5  10
HETATM   10  C           1     -31.651  -4.626 -16.344  0.00  0.00     0.081 C 
BRANCH  10  11
HETATM   11  C           1     -31.065  -5.763 -17.124  0.00  0.00    -0.056 A 
HETATM   12  C           1     -31.904  -6.680 -17.757  0.00  0.00     0.010 A 
HETATM   13  C           1     -31.358  -7.738 -18.483  0.00  0.00     0.037 A 
HETATM   14  C           1     -29.974  -7.880 -18.577  0.00  0.00     0.065 A 
HETATM   15  C           1     -29.135  -6.962 -17.944  0.00  0.00     0.037 A 
HETATM   16  C           1     -29.681  -5.903 -17.217  0.00  0.00     0.010 A 
BRANCH  14  17
HETATM   17  O           1     -29.443  -8.907 -19.283  0.00  0.00    -0.361 OA
HETATM   18  H           1     -29.126  -8.556 -20.132  0.00  0.00     0.217 HD
ENDBRANCH  14  17
ENDBRANCH  10  11
ENDBRANCH   5  10
ENDBRANCH   1   5
BRANCH   2  19
HETATM   19  C           1     -34.050  -4.015 -12.928  0.00  0.00     0.191 C 
BRANCH  19  20
HETATM   20  C           1     -34.577  -2.631 -12.638  0.00  0.00     0.197 C 
HETATM   21  O           1     -34.642  -2.221 -11.459  0.00  0.00    -0.646 OA
HETATM   22  O           1     -34.949  -1.896 -13.578  0.00  0.00    -0.646 OA
ENDBRANCH  19  20
BRANCH  19  23
HETATM   23  C           1     -33.112  -4.445 -11.808  0.00  0.00     0.094 C 
BRANCH  23  24
HETATM   24  C           1     -33.700  -5.615 -11.084  0.00  0.00     0.028 A 
HETATM   25  C           1     -34.871  -5.581 -10.364  0.00  0.00     0.114 A 
HETATM   26  N           1     -35.027  -6.850  -9.880  0.00  0.00    -0.360 N 
HETATM   27  C           1     -33.965  -7.589 -10.318  0.00  0.00     0.180 A 
HETATM   28  H           1     -35.819  -7.194  -9.283  0.00  0.00     0.166 HD
HETATM   29  N           1     -33.146  -6.868 -11.047  0.00  0.00    -0.354 N 
ATOM     30  HN          1     -32.281  -7.175 -11.492  1.00  0.00     0.166 HD
ENDBRANCH  23  24
ENDBRANCH  19  23
ENDBRANCH   2  19
TORSDOF 9
ENDMDL
MODEL 3
REMARK VINA RESULT:      -7.4     13.905     17.474
REMARK  9 active torsions:
REMARK  status: ('A' for Active; 'I' for Inactive)
REMARK    1  A    between atoms: C_3  and  C_13 
REMARK    2  A    between atoms: C_3  and  C_4 
REMARK    3  A    between atoms: C_3  and  N_21 
REMARK    4  A    between atoms: C_4  and  C_26 
REMARK    5  A    between atoms: O_5  and  C_10 
REMARK    6  A    between atoms: N_12  and  C_22 
REMARK    7  A    between atoms: C_14  and  C_22 
REMARK    8  A    between atoms: C_14  and  C_30 
REMARK       I    between atoms: C_20  and  N_21 
REMARK    9  A    between atoms: C_20  and  C_22 
ROOT
HETATM    1  C           1     -21.279  -5.984  -5.746  0.00  0.00     0.249 C 
HETATM    2  N           1     -21.064  -7.336  -5.707  0.00  0.00    -0.344 N 
HETATM    3  H           1     -21.383  -7.921  -6.469  0.00  0.00     0.163 HD
HETATM    4  O           1     -20.899  -5.285  -4.837  0.00  0.00    -0.271 OA
ENDROOT
BRANCH   1   5
HETATM    5  C           1     -21.991  -5.366  -6.925  0.00  0.00     0.278 C 
BRANCH   5   6
HETATM    6  N           1     -23.365  -4.931  -6.505  0.00  0.00    -0.066 N 
HETATM    7  H           1     -24.080  -5.510  -7.001  0.00  0.00     0.275 HD
HETATM    8  H           1     -23.470  -5.057  -5.474  0.00  0.00     0.275 HD
HETATM    9  H           1     -23.500  -3.925  -6.751  0.00  0.00     0.275 HD
ENDBRANCH   5   6
BRANCH   5  10
HETATM   10  C           1     -21.206  -4.160  -7.419  0.00  0.00     0.081 C 
BRANCH  10  11
HETATM   11  C           1     -21.362  -4.035  -8.903  0.00  0.00    -0.056 A 
HETATM   12  C           1     -22.586  -3.643  -9.445  0.00  0.00     0.010 A 
HETATM   13  C           1     -22.732  -3.528 -10.827  0.00  0.00     0.037 A 
HETATM   14  C           1     -21.653  -3.803 -11.668  0.00  0.00     0.065 A 
HETATM   15  C           1     -20.429  -4.195 -11.126  0.00  0.00     0.037 A 
HETATM   16  C           1     -20.283  -4.311  -9.743  0.00  0.00     0.010 A 
BRANCH  14  17
HETATM   17  O           1     -21.794  -3.690 -13.011  0.00  0.00    -0.361 OA
HETATM   18  H           1     -22.409  -2.959 -13.187  0.00  0.00     0.217 HD
ENDBRANCH  14  17
ENDBRANCH  10  11
ENDBRANCH   5  10
ENDBRANCH   1   5
BRANCH   2  19
HETATM   19  C           1     -20.380  -7.928  -4.575  0.00  0.00     0.191 C 
BRANCH  19  20
HETATM   20  C           1     -19.229  -8.772  -5.067  0.00  0.00     0.197 C 
HETATM   21  O           1     -18.726  -9.638  -4.320  0.00  0.00    -0.646 OA
HETATM   22  O           1     -18.780  -8.603  -6.221  0.00  0.00    -0.646 OA
ENDBRANCH  19  20
BRANCH  19  23
HETATM   23  C           1     -21.352  -8.802  -3.794  0.00  0.00     0.094 C 
BRANCH  23  24
HETATM   24  C           1     -21.690  -8.137  -2.496  0.00  0.00     0.028 A 
HETATM   25  C           1     -21.730  -8.775  -1.279  0.00  0.00     0.114 A 
HETATM   26  N           1     -22.076  -7.803  -0.381  0.00  0.00    -0.360 N 
HETATM   27  C           1     -22.228  -6.638  -1.077  0.00  0.00     0.180 A 
HETATM   28  H           1     -22.200  -7.929   0.653  0.00  0.00     0.166 HD
HETATM   29  N           1     -22.002  -6.809  -2.358  0.00  0.00    -0.354 N 
ATOM     30  HN          1     -22.048  -6.105  -3.095  1.00  0.00     0.166 HD
ENDBRANCH  23  24
ENDBRANCH  19  23
ENDBRANCH   2  19
TORSDOF 9
ENDMDL
MODEL 4
REMARK VINA RESULT:      -7.4     13.824     17.355
REMARK  9 active torsions:
REMARK  status: ('A' for Active; 'I' for Inactive)
REMARK    1  A    between atoms: C_3  and  C_13 
REMARK    2  A    between atoms: C_3  and  C_4 
REMARK    3  A    between atoms: C_3  and  N_21 
REMARK    4  A    between atoms: C_4  and  C_26 
REMARK    5  A    between atoms: O_5  and  C_10 
REMARK    6  A    between atoms: N_12  and  C_22 
REMARK    7  A    between atoms: C_14  and  C_22 
REMARK    8  A    between atoms: C_14  and  C_30 
REMARK       I    between atoms: C_20  and  N_21 
REMARK    9  A    between atoms: C_20  and  C_22 
ROOT
HETATM    1  C           1     -20.287  -5.410  -6.158  0.00  0.00     0.249 C 
HETATM    2  N           1     -20.137  -6.768  -6.232  0.00  0.00    -0.344 N 
HETATM    3  H           1     -20.088  -7.223  -7.134  0.00  0.00     0.163 HD
HETATM    4  O           1     -20.347  -4.865  -5.081  0.00  0.00    -0.271 OA
ENDROOT
BRANCH   1   5
HETATM    5  C           1     -20.379  -4.590  -7.422  0.00  0.00     0.278 C 
BRANCH   5   6
HETATM    6  N           1     -19.014  -4.089  -7.793  0.00  0.00    -0.066 N 
HETATM    7  H           1     -18.786  -4.387  -8.768  0.00  0.00     0.275 HD
HETATM    8  H           1     -18.998  -3.047  -7.735  0.00  0.00     0.275 HD
HETATM    9  H           1     -18.307  -4.487  -7.134  0.00  0.00     0.275 HD
ENDBRANCH   5   6
BRANCH   5  10
HETATM   10  C           1     -20.926  -5.454  -8.550  0.00  0.00     0.081 C 
BRANCH  10  11
HETATM   11  C           1     -21.578  -4.581  -9.577  0.00  0.00    -0.056 A 
HETATM   12  C           1     -22.908  -4.193  -9.419  0.00  0.00     0.010 A 
HETATM   13  C           1     -23.516  -3.380 -10.375  0.00  0.00     0.037 A 
HETATM   14  C           1     -22.794  -2.955 -11.491  0.00  0.00     0.065 A 
HETATM   15  C           1     -21.463  -3.343 -11.649  0.00  0.00     0.037 A 
HETATM   16  C           1     -20.855  -4.157 -10.691  0.00  0.00     0.010 A 
BRANCH  14  17
HETATM   17  O           1     -23.383  -2.165 -12.420  0.00  0.00    -0.361 OA
HETATM   18  H           1     -23.286  -2.595 -13.285  0.00  0.00     0.217 HD
ENDBRANCH  14  17
ENDBRANCH  10  11
ENDBRANCH   5  10
ENDBRANCH   1   5
BRANCH   2  19
HETATM   19  C           1     -20.049  -7.554  -5.017  0.00  0.00     0.191 C 
BRANCH  19  20
HETATM   20  C           1     -19.189  -8.769  -5.264  0.00  0.00     0.197 C 
HETATM   21  O           1     -19.127  -9.676  -4.406  0.00  0.00    -0.646 OA
HETATM   22  O           1     -18.539  -8.868  -6.327  0.00  0.00    -0.646 OA
ENDBRANCH  19  20
BRANCH  19  23
HETATM   23  C           1     -21.443  -7.997  -4.596  0.00  0.00     0.094 C 
BRANCH  23  24
HETATM   24  C           1     -21.725  -7.511  -3.209  0.00  0.00     0.028 A 
HETATM   25  C           1     -21.645  -8.288  -2.077  0.00  0.00     0.114 A 
HETATM   26  N           1     -21.979  -7.452  -1.049  0.00  0.00    -0.360 N 
HETATM   27  C           1     -22.242  -6.224  -1.587  0.00  0.00     0.180 A 
HETATM   28  H           1     -22.024  -7.705  -0.031  0.00  0.00     0.166 HD
HETATM   29  N           1     -22.097  -6.230  -2.892  0.00  0.00    -0.354 N 
ATOM     30  HN          1     -22.233  -5.449  -3.533  1.00  0.00     0.166 HD
ENDBRANCH  23  24
ENDBRANCH  19  23
ENDBRANCH   2  19
TORSDOF 9
ENDMDL
MODEL 5
REMARK VINA RESULT:      -7.3     12.507     14.586
REMARK  9 active torsions:
REMARK  status: ('A' for Active; 'I' for Inactive)
REMARK    1  A    between atoms: C_3  and  C_13 
REMARK    2  A    between atoms: C_3  and  C_4 
REMARK    3  A    between atoms: C_3  and  N_21 
REMARK    4  A    between atoms: C_4  and  C_26 
REMARK    5  A    between atoms: O_5  and  C_10 
REMARK    6  A    between atoms: N_12  and  C_22 
REMARK    7  A    between atoms: C_14  and  C_22 
REMARK    8  A    between atoms: C_14  and  C_30 
REMARK       I    between atoms: C_20  and  N_21 
REMARK    9  A    between atoms: C_20  and  C_22 
ROOT
HETATM    1  C           1     -21.375  -4.432  -7.440  0.00  0.00     0.249 C 
HETATM    2  N           1     -22.252  -4.856  -8.402  0.00  0.00    -0.344 N 
HETATM    3  H           1     -22.604  -5.804  -8.384  0.00  0.00     0.163 HD
HETATM    4  O           1     -20.954  -3.300  -7.461  0.00  0.00    -0.271 OA
ENDROOT
BRANCH   1   5
HETATM    5  C           1     -20.934  -5.380  -6.351  0.00  0.00     0.278 C 
BRANCH   5   6
HETATM    6  N           1     -20.017  -4.662  -5.405  0.00  0.00    -0.066 N 
HETATM    7  H           1     -19.388  -5.353  -4.937  0.00  0.00     0.275 HD
HETATM    8  H           1     -19.441  -3.971  -5.935  0.00  0.00     0.275 HD
HETATM    9  H           1     -20.585  -4.163  -4.683  0.00  0.00     0.275 HD
ENDBRANCH   5   6
BRANCH   5  10
HETATM   10  C           1     -22.152  -5.886  -5.591  0.00  0.00     0.081 C 
BRANCH  10  11
HETATM   11  C           1     -21.708  -6.769  -4.466  0.00  0.00    -0.056 A 
HETATM   12  C           1     -21.123  -8.006  -4.739  0.00  0.00     0.010 A 
HETATM   13  C           1     -20.710  -8.828  -3.691  0.00  0.00     0.037 A 
HETATM   14  C           1     -20.882  -8.414  -2.370  0.00  0.00     0.065 A 
HETATM   15  C           1     -21.466  -7.178  -2.097  0.00  0.00     0.037 A 
HETATM   16  C           1     -21.880  -6.355  -3.146  0.00  0.00     0.010 A 
BRANCH  14  17
HETATM   17  O           1     -20.480  -9.213  -1.352  0.00  0.00    -0.361 OA
HETATM   18  H           1     -19.587  -9.535  -1.558  0.00  0.00     0.217 HD
ENDBRANCH  14  17
ENDBRANCH  10  11
ENDBRANCH   5  10
ENDBRANCH   1   5
BRANCH   2  19
HETATM   19  C           1     -22.675  -3.944  -9.447  0.00  0.00     0.191 C 
BRANCH  19  20
HETATM   20  C           1     -24.180  -3.973  -9.561  0.00  0.00     0.197 C 
HETATM   21  O           1     -24.766  -5.045  -9.824  0.00  0.00    -0.646 OA
HETATM   22  O           1     -24.839  -2.924  -9.394  0.00  0.00    -0.646 OA
ENDBRANCH  19  20
BRANCH  19  23
HETATM   23  C           1     -22.058  -4.369 -10.772  0.00  0.00     0.094 C 
BRANCH  23  24
HETATM   24  C           1     -22.776  -3.693 -11.898  0.00  0.00     0.028 A 
HETATM   25  C           1     -22.673  -2.355 -12.200  0.00  0.00     0.114 A 
HETATM   26  N           1     -23.485  -2.173 -13.285  0.00  0.00    -0.360 N 
HETATM   27  C           1     -24.036  -3.384 -13.593  0.00  0.00     0.180 A 
HETATM   28  H           1     -23.652  -1.269 -13.790  0.00  0.00     0.166 HD
HETATM   29  N           1     -23.626  -4.322 -12.771  0.00  0.00    -0.354 N 
ATOM     30  HN          1     -23.884  -5.309 -12.779  1.00  0.00     0.166 HD
ENDBRANCH  23  24
ENDBRANCH  19  23
ENDBRANCH   2  19
TORSDOF 9
ENDMDL
MODEL 6
REMARK VINA RESULT:      -7.1     13.408     15.469
REMARK  9 active torsions:
REMARK  status: ('A' for Active; 'I' for Inactive)
REMARK    1  A    between atoms: C_3  and  C_13 
REMARK    2  A    between atoms: C_3  and  C_4 
REMARK    3  A    between atoms: C_3  and  N_21 
REMARK    4  A    between atoms: C_4  and  C_26 
REMARK    5  A    between atoms: O_5  and  C_10 
REMARK    6  A    between atoms: N_12  and  C_22 
REMARK    7  A    between atoms: C_14  and  C_22 
REMARK    8  A    between atoms: C_14  and  C_30 
REMARK       I    between atoms: C_20  and  N_21 
REMARK    9  A    between atoms: C_20  and  C_22 
ROOT
HETATM    1  C           1     -21.572  -5.848  -6.582  0.00  0.00     0.249 C 
HETATM    2  N           1     -22.052  -4.761  -7.263  0.00  0.00    -0.344 N 
HETATM    3  H           1     -22.564  -4.041  -6.770  0.00  0.00     0.163 HD
HETATM    4  O           1     -20.962  -6.709  -7.170  0.00  0.00    -0.271 OA
ENDROOT
BRANCH   1   5
HETATM    5  C           1     -21.807  -5.972  -5.096  0.00  0.00     0.278 C 
BRANCH   5   6
HETATM    6  N           1     -23.262  -6.230  -4.841  0.00  0.00    -0.066 N 
HETATM    7  H           1     -23.816  -5.380  -5.090  0.00  0.00     0.275 HD
HETATM    8  H           1     -23.581  -7.035  -5.423  0.00  0.00     0.275 HD
HETATM    9  H           1     -23.403  -6.452  -3.830  0.00  0.00     0.275 HD
ENDBRANCH   5   6
BRANCH   5  10
HETATM   10  C           1     -20.982  -7.127  -4.546  0.00  0.00     0.081 C 
BRANCH  10  11
HETATM   11  C           1     -21.415  -7.426  -3.144  0.00  0.00    -0.056 A 
HETATM   12  C           1     -21.419  -8.742  -2.681  0.00  0.00     0.010 A 
HETATM   13  C           1     -21.822  -9.021  -1.376  0.00  0.00     0.037 A 
HETATM   14  C           1     -22.220  -7.984  -0.532  0.00  0.00     0.065 A 
HETATM   15  C           1     -22.215  -6.668  -0.994  0.00  0.00     0.037 A 
HETATM   16  C           1     -21.812  -6.389  -2.301  0.00  0.00     0.010 A 
BRANCH  14  17
HETATM   17  O           1     -22.611  -8.255   0.737  0.00  0.00    -0.361 OA
HETATM   18  H           1     -21.843  -8.132   1.320  0.00  0.00     0.217 HD
ENDBRANCH  14  17
ENDBRANCH  10  11
ENDBRANCH   5  10
ENDBRANCH   1   5
BRANCH   2  19
HETATM   19  C           1     -21.826  -4.643  -8.690  0.00  0.00     0.191 C 
BRANCH  19  20
HETATM   20  C           1     -20.369  -4.346  -8.947  0.00  0.00     0.197 C 
HETATM   21  O           1     -19.785  -4.874  -9.917  0.00  0.00    -0.646 OA
HETATM   22  O           1     -19.747  -3.572  -8.187  0.00  0.00    -0.646 OA
ENDBRANCH  19  20
BRANCH  19  23
HETATM   23  C           1     -22.680  -3.512  -9.247  0.00  0.00     0.094 C 
BRANCH  23  24
HETATM   24  C           1     -22.804  -3.664 -10.731  0.00  0.00     0.028 A 
HETATM   25  C           1     -23.474  -4.687 -11.359  0.00  0.00     0.114 A 
HETATM   26  N           1     -23.335  -4.434 -12.695  0.00  0.00    -0.360 N 
HETATM   27  C           1     -22.602  -3.289 -12.822  0.00  0.00     0.180 A 
HETATM   28  H           1     -23.723  -5.013 -13.481  0.00  0.00     0.166 HD
HETATM   29  N           1     -22.266  -2.801 -11.651  0.00  0.00    -0.354 N 
ATOM     30  HN          1     -21.721  -1.959 -11.464  1.00  0.00     0.166 HD
ENDBRANCH  23  24
ENDBRANCH  19  23
ENDBRANCH   2  19
TORSDOF 9
ENDMDL
MODEL 7
REMARK VINA RESULT:      -6.8      2.122      3.135
REMARK  9 active torsions:
REMARK  status: ('A' for Active; 'I' for Inactive)
REMARK    1  A    between atoms: C_3  and  C_13 
REMARK    2  A    between atoms: C_3  and  C_4 
REMARK    3  A    between atoms: C_3  and  N_21 
REMARK    4  A    between atoms: C_4  and  C_26 
REMARK    5  A    between atoms: O_5  and  C_10 
REMARK    6  A    between atoms: N_12  and  C_22 
REMARK    7  A    between atoms: C_14  and  C_22 
REMARK    8  A    between atoms: C_14  and  C_30 
REMARK       I    between atoms: C_20  and  N_21 
REMARK    9  A    between atoms: C_20  and  C_22 
ROOT
HETATM    1  C           1     -34.679  -2.513 -12.740  0.00  0.00     0.249 C 
HETATM    2  N           1     -35.328  -1.331 -12.505  0.00  0.00    -0.344 N 
HETATM    3  H           1     -35.325  -0.928 -11.576  0.00  0.00     0.163 HD
HETATM    4  O           1     -34.683  -2.995 -13.848  0.00  0.00    -0.271 OA
ENDROOT
BRANCH   1   5
HETATM    5  C           1     -33.958  -3.215 -11.616  0.00  0.00     0.278 C 
BRANCH   5   6
HETATM    6  N           1     -33.200  -2.208 -10.803  0.00  0.00    -0.066 N 
HETATM    7  H           1     -32.689  -2.695 -10.032  0.00  0.00     0.275 HD
HETATM    8  H           1     -32.515  -1.711 -11.414  0.00  0.00     0.275 HD
HETATM    9  H           1     -33.869  -1.517 -10.394  0.00  0.00     0.275 HD
ENDBRANCH   5   6
BRANCH   5  10
HETATM   10  C           1     -34.969  -3.927 -10.729  0.00  0.00     0.081 C 
BRANCH  10  11
HETATM   11  C           1     -34.549  -5.351 -10.533  0.00  0.00    -0.056 A 
HETATM   12  C           1     -35.358  -6.223  -9.805  0.00  0.00     0.010 A 
HETATM   13  C           1     -34.967  -7.549  -9.623  0.00  0.00     0.037 A 
HETATM   14  C           1     -33.767  -8.004 -10.170  0.00  0.00     0.065 A 
HETATM   15  C           1     -32.958  -7.132 -10.899  0.00  0.00     0.037 A 
HETATM   16  C           1     -33.350  -5.804 -11.081  0.00  0.00     0.010 A 
BRANCH  14  17
HETATM   17  O           1     -33.387  -9.292  -9.994  0.00  0.00    -0.361 OA
HETATM   18  H           1     -34.115  -9.763  -9.557  0.00  0.00     0.217 HD
ENDBRANCH  14  17
ENDBRANCH  10  11
ENDBRANCH   5  10
ENDBRANCH   1   5
BRANCH   2  19
HETATM   19  C           1     -36.021  -0.657 -13.586  0.00  0.00     0.191 C 
BRANCH  19  20
HETATM   20  C           1     -35.105   0.369 -14.208  0.00  0.00     0.197 C 
HETATM   21  O           1     -34.723   1.353 -13.539  0.00  0.00    -0.646 OA
HETATM   22  O           1     -34.731   0.234 -15.393  0.00  0.00    -0.646 OA
ENDBRANCH  19  20
BRANCH  19  23
HETATM   23  C           1     -37.262   0.036 -13.040  0.00  0.00     0.094 C 
BRANCH  23  24
HETATM   24  C           1     -37.203   0.062 -11.545  0.00  0.00     0.028 A 
HETATM   25  C           1     -38.066  -0.617 -10.716  0.00  0.00     0.114 A 
HETATM   26  N           1     -37.653  -0.314  -9.449  0.00  0.00    -0.360 N 
HETATM   27  C           1     -36.576   0.520  -9.557  0.00  0.00     0.180 A 
HETATM   28  H           1     -38.083  -0.659  -8.556  0.00  0.00     0.166 HD
HETATM   29  N           1     -36.281   0.765 -10.812  0.00  0.00    -0.354 N 
ATOM     30  HN          1     -35.528   1.353 -11.168  1.00  0.00     0.166 HD
ENDBRANCH  23  24
ENDBRANCH  19  23
ENDBRANCH   2  19
TORSDOF 9
ENDMDL
MODEL 8
REMARK VINA RESULT:      -6.7     14.445     17.403
REMARK  9 active torsions:
REMARK  status: ('A' for Active; 'I' for Inactive)
REMARK    1  A    between atoms: C_3  and  C_13 
REMARK    2  A    between atoms: C_3  and  C_4 
REMARK    3  A    between atoms: C_3  and  N_21 
REMARK    4  A    between atoms: C_4  and  C_26 
REMARK    5  A    between atoms: O_5  and  C_10 
REMARK    6  A    between atoms: N_12  and  C_22 
REMARK    7  A    between atoms: C_14  and  C_22 
REMARK    8  A    between atoms: C_14  and  C_30 
REMARK       I    between atoms: C_20  and  N_21 
REMARK    9  A    between atoms: C_20  and  C_22 
ROOT
HETATM    1  C           1     -21.425  -6.225  -5.412  0.00  0.00     0.249 C 
HETATM    2  N           1     -21.004  -6.354  -4.116  0.00  0.00    -0.344 N 
HETATM    3  H           1     -20.357  -5.681  -3.724  0.00  0.00     0.163 HD
HETATM    4  O           1     -22.197  -7.028  -5.880  0.00  0.00    -0.271 OA
ENDROOT
BRANCH   1   5
HETATM    5  C           1     -20.924  -5.080  -6.258  0.00  0.00     0.278 C 
BRANCH   5   6
HETATM    6  N           1     -19.836  -4.355  -5.522  0.00  0.00    -0.066 N 
HETATM    7  H           1     -18.913  -4.577  -5.957  0.00  0.00     0.275 HD
HETATM    8  H           1     -20.006  -3.326  -5.575  0.00  0.00     0.275 HD
HETATM    9  H           1     -19.831  -4.658  -4.522  0.00  0.00     0.275 HD
ENDBRANCH   5   6
BRANCH   5  10
HETATM   10  C           1     -20.375  -5.620  -7.571  0.00  0.00     0.081 C 
BRANCH  10  11
HETATM   11  C           1     -20.942  -4.832  -8.712  0.00  0.00    -0.056 A 
HETATM   12  C           1     -20.147  -4.538  -9.819  0.00  0.00     0.010 A 
HETATM   13  C           1     -20.675  -3.804 -10.881  0.00  0.00     0.037 A 
HETATM   14  C           1     -21.998  -3.364 -10.836  0.00  0.00     0.065 A 
HETATM   15  C           1     -22.793  -3.659  -9.729  0.00  0.00     0.037 A 
HETATM   16  C           1     -22.265  -4.393  -8.666  0.00  0.00     0.010 A 
BRANCH  14  17
HETATM   17  O           1     -22.511  -2.651 -11.868  0.00  0.00    -0.361 OA
HETATM   18  H           1     -22.263  -3.099 -12.694  0.00  0.00     0.217 HD
ENDBRANCH  14  17
ENDBRANCH  10  11
ENDBRANCH   5  10
ENDBRANCH   1   5
BRANCH   2  19
HETATM   19  C           1     -21.487  -7.454  -3.304  0.00  0.00     0.191 C 
BRANCH  19  20
HETATM   20  C           1     -21.830  -6.949  -1.923  0.00  0.00     0.197 C 
HETATM   21  O           1     -21.457  -7.586  -0.915  0.00  0.00    -0.646 OA
HETATM   22  O           1     -22.486  -5.893  -1.790  0.00  0.00    -0.646 OA
ENDBRANCH  19  20
BRANCH  19  23
HETATM   23  C           1     -20.405  -8.520  -3.199  0.00  0.00     0.094 C 
BRANCH  23  24
HETATM   24  C           1     -20.767  -9.686  -4.065  0.00  0.00     0.028 A 
HETATM   25  C           1     -21.242 -10.889  -3.598  0.00  0.00     0.114 A 
HETATM   26  N           1     -21.437 -11.651  -4.716  0.00  0.00    -0.360 N 
HETATM   27  C           1     -21.081 -10.894  -5.796  0.00  0.00     0.180 A 
HETATM   28  H           1     -21.797 -12.637  -4.741  0.00  0.00     0.166 HD
HETATM   29  N           1     -20.671  -9.701  -5.433  0.00  0.00    -0.354 N 
ATOM     30  HN          1     -20.350  -8.945  -6.038  1.00  0.00     0.166 HD
ENDBRANCH  23  24
ENDBRANCH  19  23
ENDBRANCH   2  19
TORSDOF 9
ENDMDL
MODEL 9
REMARK VINA RESULT:      -6.6     14.688     18.536
REMARK  9 active torsions:
REMARK  status: ('A' for Active; 'I' for Inactive)
REMARK    1  A    between atoms: C_3  and  C_13 
REMARK    2  A    between atoms: C_3  and  C_4 
REMARK    3  A    between atoms: C_3  and  N_21 
REMARK    4  A    between atoms: C_4  and  C_26 
REMARK    5  A    between atoms: O_5  and  C_10 
REMARK    6  A    between atoms: N_12  and  C_22 
REMARK    7  A    between atoms: C_14  and  C_22 
REMARK    8  A    between atoms: C_14  and  C_30 
REMARK       I    between atoms: C_20  and  N_21 
REMARK    9  A    between atoms: C_20  and  C_22 
ROOT
HETATM    1  C           1     -20.678  -6.838  -6.227  0.00  0.00     0.249 C 
HETATM    2  N           1     -21.031  -7.741  -5.260  0.00  0.00    -0.344 N 
HETATM    3  H           1     -21.961  -7.719  -4.863  0.00  0.00     0.163 HD
HETATM    4  O           1     -19.567  -6.863  -6.701  0.00  0.00    -0.271 OA
ENDROOT
BRANCH   1   5
HETATM    5  C           1     -21.677  -5.811  -6.702  0.00  0.00     0.278 C 
BRANCH   5   6
HETATM    6  N           1     -22.612  -5.469  -5.580  0.00  0.00    -0.066 N 
HETATM    7  H           1     -22.321  -4.564  -5.147  0.00  0.00     0.275 HD
HETATM    8  H           1     -23.584  -5.380  -5.951  0.00  0.00     0.275 HD
HETATM    9  H           1     -22.581  -6.225  -4.859  0.00  0.00     0.275 HD
ENDBRANCH   5   6
BRANCH   5  10
HETATM   10  C           1     -20.942  -4.556  -7.151  0.00  0.00     0.081 C 
BRANCH  10  11
HETATM   11  C           1     -21.154  -4.351  -8.619  0.00  0.00    -0.056 A 
HETATM   12  C           1     -22.410  -3.974  -9.096  0.00  0.00     0.010 A 
HETATM   13  C           1     -22.607  -3.782 -10.463  0.00  0.00     0.037 A 
HETATM   14  C           1     -21.549  -3.968 -11.354  0.00  0.00     0.065 A 
HETATM   15  C           1     -20.294  -4.344 -10.877  0.00  0.00     0.037 A 
HETATM   16  C           1     -20.096  -4.535  -9.508  0.00  0.00     0.010 A 
BRANCH  14  17
HETATM   17  O           1     -21.741  -3.781 -12.682  0.00  0.00    -0.361 OA
HETATM   18  H           1     -22.021  -4.628 -13.067  0.00  0.00     0.217 HD
ENDBRANCH  14  17
ENDBRANCH  10  11
ENDBRANCH   5  10
ENDBRANCH   1   5
BRANCH   2  19
HETATM   19  C           1     -20.071  -8.727  -4.805  0.00  0.00     0.191 C 
BRANCH  19  20
HETATM   20  C           1     -20.501 -10.099  -5.264  0.00  0.00     0.197 C 
HETATM   21  O           1     -21.499 -10.646  -4.747  0.00  0.00    -0.646 OA
HETATM   22  O           1     -19.859 -10.687  -6.160  0.00  0.00    -0.646 OA
ENDBRANCH  19  20
BRANCH  19  23
HETATM   23  C           1     -19.997  -8.701  -3.285  0.00  0.00     0.094 C 
BRANCH  23  24
HETATM   24  C           1     -18.839  -9.529  -2.826  0.00  0.00     0.028 A 
HETATM   25  C           1     -18.936 -10.610  -1.981  0.00  0.00     0.114 A 
HETATM   26  N           1     -17.654 -11.060  -1.832  0.00  0.00    -0.360 N 
HETATM   27  C           1     -16.845 -10.250  -2.578  0.00  0.00     0.180 A 
HETATM   28  H           1     -17.347 -11.879  -1.251  0.00  0.00     0.166 HD
HETATM   29  N           1     -17.534  -9.315  -3.189  0.00  0.00    -0.354 N 
ATOM     30  HN          1     -17.176  -8.584  -3.804  1.00  0.00     0.166 HD
ENDBRANCH  23  24
ENDBRANCH  19  23
ENDBRANCH   2  19
TORSDOF 9
ENDMDL
