MODEL 1
REMARK VINA RESULT:      -7.6      0.000      0.000
REMARK  5 active torsions:
REMARK  status: ('A' for Active; 'I' for Inactive)
REMARK    1  A    between atoms: C_2  and  C_13 
REMARK    2  A    between atoms: C_4  and  C_12 
REMARK    3  A    between atoms: C_12  and  C_13 
REMARK    4  A    between atoms: C_13  and  N_15 
REMARK       I    between atoms: N_15  and  C_16 
REMARK    5  A    between atoms: C_16  and  C_18 
ROOT
HETATM    1  C           1     -35.863  -0.648 -11.405  0.00  0.00     0.189 C 
ENDROOT
BRANCH   1   2
HETATM    2  C           1     -36.946   0.199 -10.786  0.00  0.00     0.197 C 
HETATM    3  O           1     -36.717   0.841  -9.739  0.00  0.00    -0.646 OA
HETATM    4  O           1     -38.075   0.259 -11.321  0.00  0.00    -0.646 OA
ENDBRANCH   1   2
BRANCH   1   5
HETATM    5  C           1     -35.047  -1.315 -10.305  0.00  0.00     0.070 C 
BRANCH   5   6
HETATM    6  C           1     -34.528  -2.631 -10.795  0.00  0.00    -0.074 A 
HETATM    7  C           1     -35.373  -3.740 -10.842  0.00  0.00     0.024 A 
HETATM    8  C           1     -34.890  -4.966 -11.297  0.00  0.00    -0.022 A 
HETATM    9  C           1     -33.562  -5.084 -11.708  0.00  0.00    -0.004 A 
HETATM   10  C           1     -32.717  -3.975 -11.661  0.00  0.00     0.000 A 
HETATM   11  C           1     -33.200  -2.748 -11.206  0.00  0.00     0.003 A 
ENDBRANCH   5   6
ENDBRANCH   1   5
BRANCH   1  12
HETATM   12  N           1     -34.994   0.191 -12.208  0.00  0.00    -0.344 N 
HETATM   13  C           1     -35.013   0.088 -13.574  0.00  0.00     0.252 C 
HETATM   14  O           1     -34.290   0.787 -14.243  0.00  0.00    -0.271 OA
HETATM   15  H           1     -34.374   0.852 -11.759  0.00  0.00     0.163 HD
BRANCH  13  16
HETATM   16  C           1     -35.939  -0.897 -14.243  0.00  0.00     0.345 C 
HETATM   17  N           1     -37.294  -0.359 -14.333  0.00  0.00     0.097 N 
HETATM   18  C           1     -37.258   0.568 -15.459  0.00  0.00     0.271 C 
HETATM   19  H           1     -37.966  -1.103 -14.525  0.00  0.00     0.317 HD
HETATM   20  C           1     -36.404  -0.147 -16.492  0.00  0.00     0.033 C 
HETATM   21  C           1     -35.540  -1.116 -15.692  0.00  0.00     0.048 C 
ENDBRANCH  13  16
ENDBRANCH   1  12
TORSDOF 5
ENDMDL
MODEL 2
REMARK VINA RESULT:      -6.9      2.028      5.255
REMARK  5 active torsions:
REMARK  status: ('A' for Active; 'I' for Inactive)
REMARK    1  A    between atoms: C_2  and  C_13 
REMARK    2  A    between atoms: C_4  and  C_12 
REMARK    3  A    between atoms: C_12  and  C_13 
REMARK    4  A    between atoms: C_13  and  N_15 
REMARK       I    between atoms: N_15  and  C_16 
REMARK    5  A    between atoms: C_16  and  C_18 
ROOT
HETATM    1  C           1     -34.969  -1.022 -12.091  0.00  0.00     0.189 C 
ENDROOT
BRANCH   1   2
HETATM    2  C           1     -35.990  -1.008 -10.982  0.00  0.00     0.197 C 
HETATM    3  O           1     -36.256   0.061 -10.391  0.00  0.00    -0.646 OA
HETATM    4  O           1     -36.570  -2.065 -10.653  0.00  0.00    -0.646 OA
ENDBRANCH   1   2
BRANCH   1   5
HETATM    5  C           1     -35.093   0.253 -12.915  0.00  0.00     0.070 C 
BRANCH   5   6
HETATM    6  C           1     -35.915  -0.019 -14.136  0.00  0.00    -0.074 A 
HETATM    7  C           1     -37.307   0.058 -14.071  0.00  0.00     0.024 A 
HETATM    8  C           1     -38.073  -0.196 -15.208  0.00  0.00    -0.022 A 
HETATM    9  C           1     -37.448  -0.525 -16.411  0.00  0.00    -0.004 A 
HETATM   10  C           1     -36.057  -0.602 -16.476  0.00  0.00     0.000 A 
HETATM   11  C           1     -35.291  -0.348 -15.339  0.00  0.00     0.003 A 
ENDBRANCH   5   6
ENDBRANCH   1   5
BRANCH   1  12
HETATM   12  N           1     -35.199  -2.172 -12.944  0.00  0.00    -0.344 N 
HETATM   13  C           1     -34.445  -3.304 -12.787  0.00  0.00     0.252 C 
HETATM   14  O           1     -34.637  -4.262 -13.497  0.00  0.00    -0.271 OA
HETATM   15  H           1     -35.917  -2.138 -13.657  0.00  0.00     0.163 HD
BRANCH  13  16
HETATM   16  C           1     -33.375  -3.356 -11.724  0.00  0.00     0.345 C 
HETATM   17  N           1     -33.940  -3.751 -10.436  0.00  0.00     0.097 N 
HETATM   18  C           1     -34.103  -5.198 -10.524  0.00  0.00     0.271 C 
HETATM   19  H           1     -33.297  -3.526  -9.676  0.00  0.00     0.317 HD
HETATM   20  C           1     -32.848  -5.664 -11.241  0.00  0.00     0.033 C 
HETATM   21  C           1     -32.365  -4.449 -12.026  0.00  0.00     0.048 C 
ENDBRANCH  13  16
ENDBRANCH   1  12
TORSDOF 5
ENDMDL
MODEL 3
REMARK VINA RESULT:      -6.4     13.917     16.792
REMARK  5 active torsions:
REMARK  status: ('A' for Active; 'I' for Inactive)
REMARK    1  A    between atoms: C_2  and  C_13 
REMARK    2  A    between atoms: C_4  and  C_12 
REMARK    3  A    between atoms: C_12  and  C_13 
REMARK    4  A    between atoms: C_13  and  N_15 
REMARK       I    between atoms: N_15  and  C_16 
REMARK    5  A    between atoms: C_16  and  C_18 
ROOT
HETATM    1  C           1     -21.010  -5.002  -6.882  0.00  0.00     0.189 C 
ENDROOT
BRANCH   1   2
HETATM    2  C           1     -19.635  -5.249  -7.453  0.00  0.00     0.197 C 
HETATM    3  O           1     -19.323  -6.389  -7.859  0.00  0.00    -0.646 OA
HETATM    4  O           1     -18.809  -4.314  -7.519  0.00  0.00    -0.646 OA
ENDBRANCH   1   2
BRANCH   1   5
HETATM    5  C           1     -21.580  -3.717  -7.468  0.00  0.00     0.070 C 
BRANCH   5   6
HETATM    6  C           1     -22.263  -4.019  -8.766  0.00  0.00    -0.074 A 
HETATM    7  C           1     -23.643  -4.218  -8.798  0.00  0.00     0.024 A 
HETATM    8  C           1     -24.279  -4.500 -10.006  0.00  0.00    -0.022 A 
HETATM    9  C           1     -23.536  -4.581 -11.184  0.00  0.00    -0.004 A 
HETATM   10  C           1     -22.155  -4.382 -11.152  0.00  0.00     0.000 A 
HETATM   11  C           1     -21.519  -4.100  -9.943  0.00  0.00     0.003 A 
ENDBRANCH   5   6
ENDBRANCH   1   5
BRANCH   1  12
HETATM   12  N           1     -20.918  -4.876  -5.441  0.00  0.00    -0.344 N 
HETATM   13  C           1     -21.133  -5.968  -4.642  0.00  0.00     0.252 C 
HETATM   14  O           1     -21.057  -5.862  -3.441  0.00  0.00    -0.271 OA
HETATM   15  H           1     -20.696  -3.981  -5.024  0.00  0.00     0.163 HD
BRANCH  13  16
HETATM   16  C           1     -21.464  -7.302  -5.263  0.00  0.00     0.345 C 
HETATM   17  N           1     -20.255  -7.970  -5.736  0.00  0.00     0.097 N 
HETATM   18  C           1     -19.642  -8.534  -4.538  0.00  0.00     0.271 C 
HETATM   19  H           1     -20.488  -8.722  -6.385  0.00  0.00     0.317 HD
HETATM   20  C           1     -20.822  -9.066  -3.741  0.00  0.00     0.033 C 
HETATM   21  C           1     -22.022  -8.259  -4.223  0.00  0.00     0.048 C 
ENDBRANCH  13  16
ENDBRANCH   1  12
TORSDOF 5
ENDMDL
MODEL 4
REMARK VINA RESULT:      -6.3     15.865     18.608
REMARK  5 active torsions:
REMARK  status: ('A' for Active; 'I' for Inactive)
REMARK    1  A    between atoms: C_2  and  C_13 
REMARK    2  A    between atoms: C_4  and  C_12 
REMARK    3  A    between atoms: C_12  and  C_13 
REMARK    4  A    between atoms: C_13  and  N_15 
REMARK       I    between atoms: N_15  and  C_16 
REMARK    5  A    between atoms: C_16  and  C_18 
ROOT
HETATM    1  C           1     -21.340  -7.146  -4.322  0.00  0.00     0.189 C 
ENDROOT
BRANCH   1   2
HETATM    2  C           1     -21.530  -6.865  -2.853  0.00  0.00     0.197 C 
HETATM    3  O           1     -20.852  -7.485  -2.005  0.00  0.00    -0.646 OA
HETATM    4  O           1     -22.365  -6.012  -2.483  0.00  0.00    -0.646 OA
ENDBRANCH   1   2
BRANCH   1   5
HETATM    5  C           1     -22.280  -6.265  -5.134  0.00  0.00     0.070 C 
BRANCH   5   6
HETATM    6  C           1     -21.490  -5.477  -6.132  0.00  0.00    -0.074 A 
HETATM    7  C           1     -20.096  -5.553  -6.135  0.00  0.00     0.024 A 
HETATM    8  C           1     -19.360  -4.818  -7.063  0.00  0.00    -0.022 A 
HETATM    9  C           1     -20.015  -4.009  -7.991  0.00  0.00    -0.004 A 
HETATM   10  C           1     -21.409  -3.933  -7.989  0.00  0.00     0.000 A 
HETATM   11  C           1     -22.145  -4.668  -7.060  0.00  0.00     0.003 A 
ENDBRANCH   5   6
ENDBRANCH   1   5
BRANCH   1  12
HETATM   12  N           1     -21.635  -8.540  -4.589  0.00  0.00    -0.344 N 
HETATM   13  C           1     -20.616  -9.422  -4.834  0.00  0.00     0.252 C 
HETATM   14  O           1     -20.862 -10.583  -5.056  0.00  0.00    -0.271 OA
HETATM   15  H           1     -22.594  -8.862  -4.594  0.00  0.00     0.163 HD
BRANCH  13  16
HETATM   16  C           1     -19.185  -8.942  -4.826  0.00  0.00     0.345 C 
HETATM   17  N           1     -18.621  -9.011  -3.481  0.00  0.00     0.097 N 
HETATM   18  C           1     -18.286 -10.417  -3.284  0.00  0.00     0.271 C 
HETATM   19  H           1     -17.774  -8.446  -3.415  0.00  0.00     0.317 HD
HETATM   20  C           1     -17.711 -10.845  -4.624  0.00  0.00     0.033 C 
HETATM   21  C           1     -18.299  -9.870  -5.638  0.00  0.00     0.048 C 
ENDBRANCH  13  16
ENDBRANCH   1  12
TORSDOF 5
ENDMDL
MODEL 5
REMARK VINA RESULT:      -6.2     16.537     18.926
REMARK  5 active torsions:
REMARK  status: ('A' for Active; 'I' for Inactive)
REMARK    1  A    between atoms: C_2  and  C_13 
REMARK    2  A    between atoms: C_4  and  C_12 
REMARK    3  A    between atoms: C_12  and  C_13 
REMARK    4  A    between atoms: C_13  and  N_15 
REMARK       I    between atoms: N_15  and  C_16 
REMARK    5  A    between atoms: C_16  and  C_18 
ROOT
HETATM    1  C           1     -20.638  -9.029  -4.885  0.00  0.00     0.189 C 
ENDROOT
BRANCH   1   2
HETATM    2  C           1     -21.178 -10.386  -5.260  0.00  0.00     0.197 C 
HETATM    3  O           1     -21.084 -10.793  -6.437  0.00  0.00    -0.646 OA
HETATM    4  O           1     -21.720 -11.104  -4.392  0.00  0.00    -0.646 OA
ENDBRANCH   1   2
BRANCH   1   5
HETATM    5  C           1     -19.817  -9.143  -3.607  0.00  0.00     0.070 C 
BRANCH   5   6
HETATM    6  C           1     -18.383  -9.395  -3.955  0.00  0.00    -0.074 A 
HETATM    7  C           1     -17.418  -9.439  -2.948  0.00  0.00     0.024 A 
HETATM    8  C           1     -16.082  -9.673  -3.271  0.00  0.00    -0.022 A 
HETATM    9  C           1     -15.710  -9.864  -4.602  0.00  0.00    -0.004 A 
HETATM   10  C           1     -16.674  -9.821  -5.609  0.00  0.00     0.000 A 
HETATM   11  C           1     -18.010  -9.587  -5.285  0.00  0.00     0.003 A 
ENDBRANCH   5   6
ENDBRANCH   1   5
BRANCH   1  12
HETATM   12  N           1     -21.742  -8.113  -4.668  0.00  0.00    -0.344 N 
HETATM   13  C           1     -21.630  -6.802  -5.048  0.00  0.00     0.252 C 
HETATM   14  O           1     -22.549  -6.040  -4.868  0.00  0.00    -0.271 OA
HETATM   15  H           1     -22.595  -8.443  -4.236  0.00  0.00     0.163 HD
BRANCH  13  16
HETATM   16  C           1     -20.357  -6.311  -5.693  0.00  0.00     0.345 C 
HETATM   17  N           1     -20.402  -6.497  -7.141  0.00  0.00     0.097 N 
HETATM   18  C           1     -21.229  -5.401  -7.636  0.00  0.00     0.271 C 
HETATM   19  H           1     -19.468  -6.427  -7.543  0.00  0.00     0.317 HD
HETATM   20  C           1     -20.791  -4.209  -6.803  0.00  0.00     0.033 C 
HETATM   21  C           1     -20.212  -4.808  -5.526  0.00  0.00     0.048 C 
ENDBRANCH  13  16
ENDBRANCH   1  12
TORSDOF 5
ENDMDL
MODEL 6
REMARK VINA RESULT:      -6.2     15.913     18.234
REMARK  5 active torsions:
REMARK  status: ('A' for Active; 'I' for Inactive)
REMARK    1  A    between atoms: C_2  and  C_13 
REMARK    2  A    between atoms: C_4  and  C_12 
REMARK    3  A    between atoms: C_12  and  C_13 
REMARK    4  A    between atoms: C_13  and  N_15 
REMARK       I    between atoms: N_15  and  C_16 
REMARK    5  A    between atoms: C_16  and  C_18 
ROOT
HETATM    1  C           1     -20.240  -8.685  -4.166  0.00  0.00     0.189 C 
ENDROOT
BRANCH   1   2
HETATM    2  C           1     -20.488 -10.018  -4.827  0.00  0.00     0.197 C 
HETATM    3  O           1     -20.205 -11.076  -4.226  0.00  0.00    -0.646 OA
HETATM    4  O           1     -20.976 -10.063  -5.977  0.00  0.00    -0.646 OA
ENDBRANCH   1   2
BRANCH   1   5
HETATM    5  C           1     -19.767  -8.906  -2.736  0.00  0.00     0.070 C 
BRANCH   5   6
HETATM    6  C           1     -20.908  -8.691  -1.792  0.00  0.00    -0.074 A 
HETATM    7  C           1     -21.669  -9.778  -1.359  0.00  0.00     0.024 A 
HETATM    8  C           1     -22.733  -9.579  -0.481  0.00  0.00    -0.022 A 
HETATM    9  C           1     -23.037  -8.293  -0.033  0.00  0.00    -0.004 A 
HETATM   10  C           1     -22.276  -7.206  -0.465  0.00  0.00     0.000 A 
HETATM   11  C           1     -21.212  -7.406  -1.344  0.00  0.00     0.003 A 
ENDBRANCH   5   6
ENDBRANCH   1   5
BRANCH   1  12
HETATM   12  N           1     -21.469  -7.916  -4.154  0.00  0.00    -0.344 N 
HETATM   13  C           1     -21.551  -6.742  -4.854  0.00  0.00     0.252 C 
HETATM   14  O           1     -22.575  -6.102  -4.844  0.00  0.00    -0.271 OA
HETATM   15  H           1     -22.268  -8.247  -3.627  0.00  0.00     0.163 HD
BRANCH  13  16
HETATM   16  C           1     -20.361  -6.249  -5.640  0.00  0.00     0.345 C 
HETATM   17  N           1     -20.549  -6.482  -7.070  0.00  0.00     0.097 N 
HETATM   18  C           1     -21.444  -5.417  -7.511  0.00  0.00     0.271 C 
HETATM   19  H           1     -19.662  -6.408  -7.567  0.00  0.00     0.317 HD
HETATM   20  C           1     -20.949  -4.192  -6.762  0.00  0.00     0.033 C 
HETATM   21  C           1     -20.231  -4.739  -5.534  0.00  0.00     0.048 C 
ENDBRANCH  13  16
ENDBRANCH   1  12
TORSDOF 5
ENDMDL
MODEL 7
REMARK VINA RESULT:      -6.2     17.594     20.033
REMARK  5 active torsions:
REMARK  status: ('A' for Active; 'I' for Inactive)
REMARK    1  A    between atoms: C_2  and  C_13 
REMARK    2  A    between atoms: C_4  and  C_12 
REMARK    3  A    between atoms: C_12  and  C_13 
REMARK    4  A    between atoms: C_13  and  N_15 
REMARK       I    between atoms: N_15  and  C_16 
REMARK    5  A    between atoms: C_16  and  C_18 
ROOT
HETATM    1  C           1     -20.736  -8.933  -4.076  0.00  0.00     0.189 C 
ENDROOT
BRANCH   1   2
HETATM    2  C           1     -21.359  -7.819  -4.879  0.00  0.00     0.197 C 
HETATM    3  O           1     -22.010  -6.921  -4.304  0.00  0.00    -0.646 OA
HETATM    4  O           1     -21.225  -7.795  -6.122  0.00  0.00    -0.646 OA
ENDBRANCH   1   2
BRANCH   1   5
HETATM    5  C           1     -19.916  -9.828  -4.997  0.00  0.00     0.070 C 
BRANCH   5   6
HETATM    6  C           1     -18.474  -9.769  -4.598  0.00  0.00    -0.074 A 
HETATM    7  C           1     -17.478  -9.945  -5.559  0.00  0.00     0.024 A 
HETATM    8  C           1     -16.135  -9.892  -5.188  0.00  0.00    -0.022 A 
HETATM    9  C           1     -15.787  -9.662  -3.857  0.00  0.00    -0.004 A 
HETATM   10  C           1     -16.783  -9.487  -2.896  0.00  0.00     0.000 A 
HETATM   11  C           1     -18.126  -9.540  -3.267  0.00  0.00     0.003 A 
ENDBRANCH   5   6
ENDBRANCH   1   5
BRANCH   1  12
HETATM   12  N           1     -21.780  -9.717  -3.446  0.00  0.00    -0.344 N 
HETATM   13  C           1     -21.929  -9.692  -2.085  0.00  0.00     0.252 C 
HETATM   14  O           1     -22.799 -10.345  -1.560  0.00  0.00    -0.271 OA
HETATM   15  H           1     -22.399 -10.283  -4.012  0.00  0.00     0.163 HD
BRANCH  13  16
HETATM   16  C           1     -21.007  -8.847  -1.241  0.00  0.00     0.345 C 
HETATM   17  N           1     -21.328  -7.430  -1.378  0.00  0.00     0.097 N 
HETATM   18  C           1     -22.500  -7.225  -0.532  0.00  0.00     0.271 C 
HETATM   19  H           1     -20.559  -6.851  -1.040  0.00  0.00     0.317 HD
HETATM   20  C           1     -22.208  -8.061   0.702  0.00  0.00     0.033 C 
HETATM   21  C           1     -21.221  -9.125   0.238  0.00  0.00     0.048 C 
ENDBRANCH  13  16
ENDBRANCH   1  12
TORSDOF 5
ENDMDL
MODEL 8
REMARK VINA RESULT:      -6.1     12.773     14.939
REMARK  5 active torsions:
REMARK  status: ('A' for Active; 'I' for Inactive)
REMARK    1  A    between atoms: C_2  and  C_13 
REMARK    2  A    between atoms: C_4  and  C_12 
REMARK    3  A    between atoms: C_12  and  C_13 
REMARK    4  A    between atoms: C_13  and  N_15 
REMARK       I    between atoms: N_15  and  C_16 
REMARK    5  A    between atoms: C_16  and  C_18 
ROOT
HETATM    1  C           1     -21.176  -5.157  -8.168  0.00  0.00     0.189 C 
ENDROOT
BRANCH   1   2
HETATM    2  C           1     -21.983  -4.126  -7.421  0.00  0.00     0.197 C 
HETATM    3  O           1     -21.463  -3.035  -7.102  0.00  0.00    -0.646 OA
HETATM    4  O           1     -23.174  -4.362  -7.120  0.00  0.00    -0.646 OA
ENDBRANCH   1   2
BRANCH   1   5
HETATM    5  C           1     -20.052  -5.668  -7.276  0.00  0.00     0.070 C 
BRANCH   5   6
HETATM    6  C           1     -20.629  -6.225  -6.012  0.00  0.00    -0.074 A 
HETATM    7  C           1     -20.623  -5.459  -4.846  0.00  0.00     0.024 A 
HETATM    8  C           1     -21.160  -5.978  -3.668  0.00  0.00    -0.022 A 
HETATM    9  C           1     -21.704  -7.262  -3.656  0.00  0.00    -0.004 A 
HETATM   10  C           1     -21.709  -8.028  -4.822  0.00  0.00     0.000 A 
HETATM   11  C           1     -21.173  -7.509  -6.000  0.00  0.00     0.003 A 
ENDBRANCH   5   6
ENDBRANCH   1   5
BRANCH   1  12
HETATM   12  N           1     -20.611  -4.557  -9.360  0.00  0.00    -0.344 N 
HETATM   13  C           1     -21.404  -4.325 -10.453  0.00  0.00     0.252 C 
HETATM   14  O           1     -20.933  -3.824 -11.446  0.00  0.00    -0.271 OA
HETATM   15  H           1     -19.630  -4.310  -9.386  0.00  0.00     0.163 HD
BRANCH  13  16
HETATM   16  C           1     -22.866  -4.693 -10.414  0.00  0.00     0.345 C 
HETATM   17  N           1     -23.694  -3.511 -10.187  0.00  0.00     0.097 N 
HETATM   18  C           1     -23.764  -2.845 -11.484  0.00  0.00     0.271 C 
HETATM   19  H           1     -24.633  -3.780  -9.892  0.00  0.00     0.317 HD
HETATM   20  C           1     -23.916  -3.987 -12.473  0.00  0.00     0.033 C 
HETATM   21  C           1     -23.330  -5.205 -11.767  0.00  0.00     0.048 C 
ENDBRANCH  13  16
ENDBRANCH   1  12
TORSDOF 5
ENDMDL
MODEL 9
REMARK VINA RESULT:      -6.0     17.841     19.323
REMARK  5 active torsions:
REMARK  status: ('A' for Active; 'I' for Inactive)
REMARK    1  A    between atoms: C_2  and  C_13 
REMARK    2  A    between atoms: C_4  and  C_12 
REMARK    3  A    between atoms: C_12  and  C_13 
REMARK    4  A    between atoms: C_13  and  N_15 
REMARK       I    between atoms: N_15  and  C_16 
REMARK    5  A    between atoms: C_16  and  C_18 
ROOT
HETATM    1  C           1     -21.669  -7.879  -2.003  0.00  0.00     0.189 C 
ENDROOT
BRANCH   1   2
HETATM    2  C           1     -22.018  -6.456  -2.362  0.00  0.00     0.197 C 
HETATM    3  O           1     -22.384  -5.659  -1.472  0.00  0.00    -0.646 OA
HETATM    4  O           1     -21.940  -6.075  -3.550  0.00  0.00    -0.646 OA
ENDBRANCH   1   2
BRANCH   1   5
HETATM    5  C           1     -21.736  -8.054  -0.491  0.00  0.00     0.070 C 
BRANCH   5   6
HETATM    6  C           1     -22.098  -9.470  -0.167  0.00  0.00    -0.074 A 
HETATM    7  C           1     -21.122 -10.349   0.303  0.00  0.00     0.024 A 
HETATM    8  C           1     -21.459 -11.668   0.605  0.00  0.00    -0.022 A 
HETATM    9  C           1     -22.772 -12.108   0.438  0.00  0.00    -0.004 A 
HETATM   10  C           1     -23.748 -11.229  -0.031  0.00  0.00     0.000 A 
HETATM   11  C           1     -23.411  -9.910  -0.333  0.00  0.00     0.003 A 
ENDBRANCH   5   6
ENDBRANCH   1   5
BRANCH   1  12
HETATM   12  N           1     -20.328  -8.179  -2.465  0.00  0.00    -0.344 N 
HETATM   13  C           1     -20.143  -8.976  -3.563  0.00  0.00     0.252 C 
HETATM   14  O           1     -19.025  -9.226  -3.947  0.00  0.00    -0.271 OA
HETATM   15  H           1     -19.528  -7.799  -1.975  0.00  0.00     0.163 HD
BRANCH  13  16
HETATM   16  C           1     -21.336  -9.543  -4.293  0.00  0.00     0.345 C 
HETATM   17  N           1     -20.966  -9.971  -5.639  0.00  0.00     0.097 N 
HETATM   18  C           1     -20.304 -11.259  -5.456  0.00  0.00     0.271 C 
HETATM   19  H           1     -21.796 -10.094  -6.219  0.00  0.00     0.317 HD
HETATM   20  C           1     -21.137 -11.949  -4.390  0.00  0.00     0.033 C 
HETATM   21  C           1     -21.821 -10.819  -3.627  0.00  0.00     0.048 C 
ENDBRANCH  13  16
ENDBRANCH   1  12
TORSDOF 5
ENDMDL
