MODEL 1
REMARK VINA RESULT:      -6.9      0.000      0.000
REMARK  8 active torsions:
REMARK  status: ('A' for Active; 'I' for Inactive)
REMARK    1  A    between atoms: C_8  and  C_14 
REMARK    2  A    between atoms: C_8  and  C_12 
REMARK    3  A    between atoms: C_8  and  N_16 
REMARK    4  A    between atoms: C_12  and  C_26 
REMARK       I    between atoms: C_13  and  N_16 
REMARK    5  A    between atoms: C_13  and  C_22 
REMARK    6  A    between atoms: N_19  and  C_22 
REMARK    7  A    between atoms: S_20  and  C_21 
REMARK    8  A    between atoms: C_21  and  C_22 
ROOT
HETATM    1  C           1     -21.167  -6.139  -6.944  0.00  0.00     0.190 C 
ENDROOT
BRANCH   1   2
HETATM    2  C           1     -19.665  -6.195  -6.805  0.00  0.00     0.197 C 
HETATM    3  O           1     -19.099  -7.286  -6.578  0.00  0.00    -0.646 OA
HETATM    4  O           1     -18.987  -5.151  -6.919  0.00  0.00    -0.646 OA
ENDBRANCH   1   2
BRANCH   1   5
HETATM    5  C           1     -21.644  -4.709  -6.729  0.00  0.00     0.077 C 
BRANCH   5   6
HETATM    6  C           1     -22.482  -4.282  -7.894  0.00  0.00    -0.028 A 
HETATM    7  C           1     -22.010  -3.983  -9.203  0.00  0.00    -0.002 A 
HETATM    8  C           1     -20.740  -3.981  -9.809  0.00  0.00     0.014 A 
HETATM    9  C           1     -23.121  -3.630  -9.969  0.00  0.00     0.042 A 
HETATM   10  C           1     -20.626  -3.625 -11.158  0.00  0.00     0.001 A 
HETATM   11  C           1     -21.752  -3.276 -11.900  0.00  0.00     0.002 A 
HETATM   12  C           1     -23.025  -3.271 -11.318  0.00  0.00     0.030 A 
HETATM   13  N           1     -24.222  -3.712  -9.147  0.00  0.00    -0.365 N 
HETATM   14  H           1     -25.209  -3.503  -9.441  0.00  0.00     0.165 HD
HETATM   15  C           1     -23.847  -4.106  -7.889  0.00  0.00     0.096 A 
ENDBRANCH   5   6
ENDBRANCH   1   5
BRANCH   1  16
HETATM   16  N           1     -21.775  -7.004  -5.952  0.00  0.00    -0.344 N 
HETATM   17  H           1     -21.792  -8.006  -6.097  0.00  0.00     0.163 HD
HETATM   18  C           1     -22.325  -6.467  -4.820  0.00  0.00     0.249 C 
HETATM   19  O           1     -23.489  -6.143  -4.809  0.00  0.00    -0.271 OA
BRANCH  18  20
HETATM   20  C           1     -21.478  -6.279  -3.585  0.00  0.00     0.283 C 
BRANCH  20  21
HETATM   21  N           1     -22.356  -5.896  -2.431  0.00  0.00    -0.066 N 
HETATM   22  H           1     -23.072  -6.642  -2.275  0.00  0.00     0.275 HD
HETATM   23  H           1     -21.773  -5.787  -1.572  0.00  0.00     0.275 HD
HETATM   24  H           1     -22.836  -4.992  -2.645  0.00  0.00     0.275 HD
ENDBRANCH  20  21
BRANCH  20  25
HETATM   25  C           1     -20.755  -7.580  -3.261  0.00  0.00     0.113 C 
BRANCH  25  26
HETATM   26  S           1     -21.515  -8.351  -1.804  0.00  0.00    -0.180 SA
HETATM   27  H           1     -20.432  -9.057  -1.437  0.00  0.00     0.101 HD
ENDBRANCH  25  26
ENDBRANCH  20  25
ENDBRANCH  18  20
ENDBRANCH   1  16
TORSDOF 8
ENDMDL
MODEL 2
REMARK VINA RESULT:      -6.7      1.637      1.822
REMARK  8 active torsions:
REMARK  status: ('A' for Active; 'I' for Inactive)
REMARK    1  A    between atoms: C_8  and  C_14 
REMARK    2  A    between atoms: C_8  and  C_12 
REMARK    3  A    between atoms: C_8  and  N_16 
REMARK    4  A    between atoms: C_12  and  C_26 
REMARK       I    between atoms: C_13  and  N_16 
REMARK    5  A    between atoms: C_13  and  C_22 
REMARK    6  A    between atoms: N_19  and  C_22 
REMARK    7  A    between atoms: S_20  and  C_21 
REMARK    8  A    between atoms: C_21  and  C_22 
ROOT
HETATM    1  C           1     -21.870  -6.607  -5.766  0.00  0.00     0.190 C 
ENDROOT
BRANCH   1   2
HETATM    2  C           1     -20.896  -7.757  -5.682  0.00  0.00     0.197 C 
HETATM    3  O           1     -21.319  -8.932  -5.637  0.00  0.00    -0.646 OA
HETATM    4  O           1     -19.666  -7.534  -5.659  0.00  0.00    -0.646 OA
ENDBRANCH   1   2
BRANCH   1   5
HETATM    5  C           1     -21.163  -5.381  -6.326  0.00  0.00     0.077 C 
BRANCH   5   6
HETATM    6  C           1     -22.002  -4.768  -7.403  0.00  0.00    -0.028 A 
HETATM    7  C           1     -21.577  -4.460  -8.726  0.00  0.00    -0.002 A 
HETATM    8  C           1     -20.362  -4.603  -9.422  0.00  0.00     0.014 A 
HETATM    9  C           1     -22.671  -3.905  -9.390  0.00  0.00     0.042 A 
HETATM   10  C           1     -20.284  -4.185 -10.756  0.00  0.00     0.001 A 
HETATM   11  C           1     -21.393  -3.634 -11.395  0.00  0.00     0.002 A 
HETATM   12  C           1     -22.610  -3.482 -10.723  0.00  0.00     0.030 A 
HETATM   13  N           1     -23.717  -3.880  -8.496  0.00  0.00    -0.365 N 
HETATM   14  H           1     -24.679  -3.514  -8.707  0.00  0.00     0.165 HD
HETATM   15  C           1     -23.324  -4.399  -7.290  0.00  0.00     0.096 A 
ENDBRANCH   5   6
ENDBRANCH   1   5
BRANCH   1  16
HETATM   16  N           1     -22.378  -6.308  -4.441  0.00  0.00    -0.344 N 
HETATM   17  H           1     -23.330  -5.985  -4.325  0.00  0.00     0.163 HD
HETATM   18  C           1     -21.570  -6.463  -3.348  0.00  0.00     0.249 C 
HETATM   19  O           1     -20.889  -5.542  -2.964  0.00  0.00    -0.271 OA
BRANCH  18  20
HETATM   20  C           1     -21.529  -7.786  -2.620  0.00  0.00     0.283 C 
BRANCH  20  21
HETATM   21  N           1     -20.126  -8.315  -2.628  0.00  0.00    -0.066 N 
HETATM   22  H           1     -20.053  -9.096  -3.319  0.00  0.00     0.275 HD
HETATM   23  H           1     -19.468  -7.550  -2.896  0.00  0.00     0.275 HD
HETATM   24  H           1     -19.882  -8.669  -1.676  0.00  0.00     0.275 HD
ENDBRANCH  20  21
BRANCH  20  25
HETATM   25  C           1     -21.990  -7.589  -1.183  0.00  0.00     0.113 C 
BRANCH  25  26
HETATM   26  S           1     -22.337  -9.204  -0.431  0.00  0.00    -0.180 SA
HETATM   27  H           1     -22.273  -9.909  -1.574  0.00  0.00     0.101 HD
ENDBRANCH  25  26
ENDBRANCH  20  25
ENDBRANCH  18  20
ENDBRANCH   1  16
TORSDOF 8
ENDMDL
MODEL 3
REMARK VINA RESULT:      -6.5      2.771      6.741
REMARK  8 active torsions:
REMARK  status: ('A' for Active; 'I' for Inactive)
REMARK    1  A    between atoms: C_8  and  C_14 
REMARK    2  A    between atoms: C_8  and  C_12 
REMARK    3  A    between atoms: C_8  and  N_16 
REMARK    4  A    between atoms: C_12  and  C_26 
REMARK       I    between atoms: C_13  and  N_16 
REMARK    5  A    between atoms: C_13  and  C_22 
REMARK    6  A    between atoms: N_19  and  C_22 
REMARK    7  A    between atoms: S_20  and  C_21 
REMARK    8  A    between atoms: C_21  and  C_22 
ROOT
HETATM    1  C           1     -20.703  -5.120  -6.192  0.00  0.00     0.190 C 
ENDROOT
BRANCH   1   2
HETATM    2  C           1     -19.595  -5.288  -7.203  0.00  0.00     0.197 C 
HETATM    3  O           1     -19.605  -6.263  -7.985  0.00  0.00    -0.646 OA
HETATM    4  O           1     -18.667  -4.452  -7.259  0.00  0.00    -0.646 OA
ENDBRANCH   1   2
BRANCH   1   5
HETATM    5  C           1     -21.475  -6.425  -6.063  0.00  0.00     0.077 C 
BRANCH   5   6
HETATM    6  C           1     -20.900  -7.239  -4.946  0.00  0.00    -0.028 A 
HETATM    7  C           1     -21.262  -7.154  -3.572  0.00  0.00    -0.002 A 
HETATM    8  C           1     -22.181  -6.372  -2.849  0.00  0.00     0.014 A 
HETATM    9  C           1     -20.483  -8.085  -2.884  0.00  0.00     0.042 A 
HETATM   10  C           1     -22.289  -6.547  -1.464  0.00  0.00     0.001 A 
HETATM   11  C           1     -21.498  -7.484  -0.802  0.00  0.00     0.002 A 
HETATM   12  C           1     -20.577  -8.273  -1.500  0.00  0.00     0.030 A 
HETATM   13  N           1     -19.680  -8.707  -3.813  0.00  0.00    -0.365 N 
HETATM   14  H           1     -18.980  -9.459  -3.595  0.00  0.00     0.165 HD
HETATM   15  C           1     -19.924  -8.203  -5.064  0.00  0.00     0.096 A 
ENDBRANCH   5   6
ENDBRANCH   1   5
BRANCH   1  16
HETATM   16  N           1     -21.600  -4.070  -6.631  0.00  0.00    -0.344 N 
HETATM   17  H           1     -21.355  -3.099  -6.482  0.00  0.00     0.163 HD
HETATM   18  C           1     -22.779  -4.390  -7.248  0.00  0.00     0.249 C 
HETATM   19  O           1     -23.780  -4.554  -6.591  0.00  0.00    -0.271 OA
BRANCH  18  20
HETATM   20  C           1     -22.829  -4.540  -8.749  0.00  0.00     0.283 C 
BRANCH  20  21
HETATM   21  N           1     -24.245  -4.381  -9.219  0.00  0.00    -0.066 N 
HETATM   22  H           1     -24.899  -4.656  -8.452  0.00  0.00     0.275 HD
HETATM   23  H           1     -24.414  -3.384  -9.480  0.00  0.00     0.275 HD
HETATM   24  H           1     -24.406  -4.992 -10.051  0.00  0.00     0.275 HD
ENDBRANCH  20  21
BRANCH  20  25
HETATM   25  C           1     -21.957  -3.472  -9.396  0.00  0.00     0.113 C 
BRANCH  25  26
HETATM   26  S           1     -20.913  -4.232 -10.671  0.00  0.00    -0.180 SA
HETATM   27  H           1     -21.629  -5.364 -10.784  0.00  0.00     0.101 HD
ENDBRANCH  25  26
ENDBRANCH  20  25
ENDBRANCH  18  20
ENDBRANCH   1  16
TORSDOF 8
ENDMDL
MODEL 4
REMARK VINA RESULT:      -6.5      2.016      2.914
REMARK  8 active torsions:
REMARK  status: ('A' for Active; 'I' for Inactive)
REMARK    1  A    between atoms: C_8  and  C_14 
REMARK    2  A    between atoms: C_8  and  C_12 
REMARK    3  A    between atoms: C_8  and  N_16 
REMARK    4  A    between atoms: C_12  and  C_26 
REMARK       I    between atoms: C_13  and  N_16 
REMARK    5  A    between atoms: C_13  and  C_22 
REMARK    6  A    between atoms: N_19  and  C_22 
REMARK    7  A    between atoms: S_20  and  C_21 
REMARK    8  A    between atoms: C_21  and  C_22 
ROOT
HETATM    1  C           1     -21.693  -6.520  -5.255  0.00  0.00     0.190 C 
ENDROOT
BRANCH   1   2
HETATM    2  C           1     -20.867  -7.783  -5.271  0.00  0.00     0.197 C 
HETATM    3  O           1     -19.662  -7.745  -4.941  0.00  0.00    -0.646 OA
HETATM    4  O           1     -21.388  -8.867  -5.612  0.00  0.00    -0.646 OA
ENDBRANCH   1   2
BRANCH   1   5
HETATM    5  C           1     -20.771  -5.309  -5.256  0.00  0.00     0.077 C 
BRANCH   5   6
HETATM    6  C           1     -20.510  -4.880  -6.666  0.00  0.00    -0.028 A 
HETATM    7  C           1     -21.492  -4.513  -7.627  0.00  0.00    -0.002 A 
HETATM    8  C           1     -22.897  -4.426  -7.608  0.00  0.00     0.014 A 
HETATM    9  C           1     -20.815  -4.185  -8.802  0.00  0.00     0.042 A 
HETATM   10  C           1     -23.574  -4.017  -8.763  0.00  0.00     0.001 A 
HETATM   11  C           1     -22.872  -3.697  -9.923  0.00  0.00     0.002 A 
HETATM   12  C           1     -21.476  -3.775  -9.966  0.00  0.00     0.030 A 
HETATM   13  N           1     -19.471  -4.352  -8.554  0.00  0.00    -0.365 N 
HETATM   14  H           1     -18.706  -4.182  -9.253  0.00  0.00     0.165 HD
HETATM   15  C           1     -19.275  -4.773  -7.265  0.00  0.00     0.096 A 
ENDBRANCH   5   6
ENDBRANCH   1   5
BRANCH   1  16
HETATM   16  N           1     -22.517  -6.498  -4.062  0.00  0.00    -0.344 N 
HETATM   17  H           1     -23.526  -6.500  -4.143  0.00  0.00     0.163 HD
HETATM   18  C           1     -21.931  -6.477  -2.826  0.00  0.00     0.249 C 
HETATM   19  O           1     -21.671  -5.421  -2.298  0.00  0.00    -0.271 OA
BRANCH  18  20
HETATM   20  C           1     -21.608  -7.772  -2.120  0.00  0.00     0.283 C 
BRANCH  20  21
HETATM   21  N           1     -20.129  -7.855  -1.884  0.00  0.00    -0.066 N 
HETATM   22  H           1     -19.884  -8.814  -1.547  0.00  0.00     0.275 HD
HETATM   23  H           1     -19.623  -7.660  -2.776  0.00  0.00     0.275 HD
HETATM   24  H           1     -19.851  -7.151  -1.163  0.00  0.00     0.275 HD
ENDBRANCH  20  21
BRANCH  20  25
HETATM   25  C           1     -22.339  -7.819  -0.785  0.00  0.00     0.113 C 
BRANCH  25  26
HETATM   26  S           1     -21.327  -8.711   0.429  0.00  0.00    -0.180 SA
HETATM   27  H           1     -20.160  -8.562  -0.222  0.00  0.00     0.101 HD
ENDBRANCH  25  26
ENDBRANCH  20  25
ENDBRANCH  18  20
ENDBRANCH   1  16
TORSDOF 8
ENDMDL
MODEL 5
REMARK VINA RESULT:      -6.5      1.569      2.314
REMARK  8 active torsions:
REMARK  status: ('A' for Active; 'I' for Inactive)
REMARK    1  A    between atoms: C_8  and  C_14 
REMARK    2  A    between atoms: C_8  and  C_12 
REMARK    3  A    between atoms: C_8  and  N_16 
REMARK    4  A    between atoms: C_12  and  C_26 
REMARK       I    between atoms: C_13  and  N_16 
REMARK    5  A    between atoms: C_13  and  C_22 
REMARK    6  A    between atoms: N_19  and  C_22 
REMARK    7  A    between atoms: S_20  and  C_21 
REMARK    8  A    between atoms: C_21  and  C_22 
ROOT
HETATM    1  C           1     -21.510  -5.541  -6.826  0.00  0.00     0.190 C 
ENDROOT
BRANCH   1   2
HETATM    2  C           1     -20.054  -5.603  -6.432  0.00  0.00     0.197 C 
HETATM    3  O           1     -19.514  -4.619  -5.883  0.00  0.00    -0.646 OA
HETATM    4  O           1     -19.390  -6.638  -6.654  0.00  0.00    -0.646 OA
ENDBRANCH   1   2
BRANCH   1   5
HETATM    5  C           1     -21.842  -4.144  -7.330  0.00  0.00     0.077 C 
BRANCH   5   6
HETATM    6  C           1     -21.548  -4.058  -8.796  0.00  0.00    -0.028 A 
HETATM    7  C           1     -22.491  -3.783  -9.826  0.00  0.00    -0.002 A 
HETATM    8  C           1     -23.874  -3.522  -9.843  0.00  0.00     0.014 A 
HETATM    9  C           1     -21.794  -3.798 -11.034  0.00  0.00     0.042 A 
HETATM   10  C           1     -24.511  -3.286 -11.068  0.00  0.00     0.001 A 
HETATM   11  C           1     -23.790  -3.307 -12.260  0.00  0.00     0.002 A 
HETATM   12  C           1     -22.415  -3.565 -12.267  0.00  0.00     0.030 A 
HETATM   13  N           1     -20.478  -4.073 -10.739  0.00  0.00    -0.365 N 
HETATM   14  H           1     -19.707  -4.150 -11.448  0.00  0.00     0.165 HD
HETATM   15  C           1     -20.318  -4.232  -9.388  0.00  0.00     0.096 A 
ENDBRANCH   5   6
ENDBRANCH   1   5
BRANCH   1  16
HETATM   16  N           1     -22.334  -5.846  -5.673  0.00  0.00    -0.344 N 
HETATM   17  H           1     -23.320  -5.618  -5.680  0.00  0.00     0.163 HD
HETATM   18  C           1     -21.779  -6.444  -4.574  0.00  0.00     0.249 C 
HETATM   19  O           1     -21.319  -5.767  -3.685  0.00  0.00    -0.271 OA
BRANCH  18  20
HETATM   20  C           1     -21.742  -7.950  -4.471  0.00  0.00     0.283 C 
BRANCH  20  21
HETATM   21  N           1     -21.366  -8.531  -5.802  0.00  0.00    -0.066 N 
HETATM   22  H           1     -21.395  -9.574  -5.747  0.00  0.00     0.275 HD
HETATM   23  H           1     -22.040  -8.202  -6.528  0.00  0.00     0.275 HD
HETATM   24  H           1     -20.400  -8.223  -6.056  0.00  0.00     0.275 HD
ENDBRANCH  20  21
BRANCH  20  25
HETATM   25  C           1     -20.714  -8.363  -3.427  0.00  0.00     0.113 C 
BRANCH  25  26
HETATM   26  S           1     -21.532  -9.305  -2.109  0.00  0.00    -0.180 SA
HETATM   27  H           1     -20.499  -9.270  -1.249  0.00  0.00     0.101 HD
ENDBRANCH  25  26
ENDBRANCH  20  25
ENDBRANCH  18  20
ENDBRANCH   1  16
TORSDOF 8
ENDMDL
MODEL 6
REMARK VINA RESULT:      -6.5      2.942      7.164
REMARK  8 active torsions:
REMARK  status: ('A' for Active; 'I' for Inactive)
REMARK    1  A    between atoms: C_8  and  C_14 
REMARK    2  A    between atoms: C_8  and  C_12 
REMARK    3  A    between atoms: C_8  and  N_16 
REMARK    4  A    between atoms: C_12  and  C_26 
REMARK       I    between atoms: C_13  and  N_16 
REMARK    5  A    between atoms: C_13  and  C_22 
REMARK    6  A    between atoms: N_19  and  C_22 
REMARK    7  A    between atoms: S_20  and  C_21 
REMARK    8  A    between atoms: C_21  and  C_22 
ROOT
HETATM    1  C           1     -20.022  -7.390  -5.323  0.00  0.00     0.190 C 
ENDROOT
BRANCH   1   2
HETATM    2  C           1     -19.081  -8.565  -5.207  0.00  0.00     0.197 C 
HETATM    3  O           1     -18.830  -9.056  -4.085  0.00  0.00    -0.646 OA
HETATM    4  O           1     -18.554  -9.047  -6.233  0.00  0.00    -0.646 OA
ENDBRANCH   1   2
BRANCH   1   5
HETATM    5  C           1     -21.424  -7.820  -4.915  0.00  0.00     0.077 C 
BRANCH   5   6
HETATM    6  C           1     -21.734  -7.286  -3.551  0.00  0.00    -0.028 A 
HETATM    7  C           1     -21.843  -8.051  -2.355  0.00  0.00    -0.002 A 
HETATM    8  C           1     -21.715  -9.419  -2.053  0.00  0.00     0.014 A 
HETATM    9  C           1     -22.141  -7.159  -1.324  0.00  0.00     0.042 A 
HETATM   10  C           1     -21.891  -9.848  -0.732  0.00  0.00     0.001 A 
HETATM   11  C           1     -22.189  -8.936   0.278  0.00  0.00     0.002 A 
HETATM   12  C           1     -22.321  -7.571   0.001  0.00  0.00     0.030 A 
HETATM   13  N           1     -22.209  -5.903  -1.882  0.00  0.00    -0.365 N 
HETATM   14  H           1     -22.420  -5.021  -1.353  0.00  0.00     0.165 HD
HETATM   15  C           1     -21.965  -5.968  -3.229  0.00  0.00     0.096 A 
ENDBRANCH   5   6
ENDBRANCH   1   5
BRANCH   1  16
HETATM   16  N           1     -20.041  -6.922  -6.695  0.00  0.00    -0.344 N 
HETATM   17  H           1     -19.990  -7.586  -7.458  0.00  0.00     0.163 HD
HETATM   18  C           1     -20.129  -5.582  -6.960  0.00  0.00     0.249 C 
HETATM   19  O           1     -19.124  -4.920  -7.067  0.00  0.00    -0.271 OA
BRANCH  18  20
HETATM   20  C           1     -21.482  -4.930  -7.117  0.00  0.00     0.283 C 
BRANCH  20  21
HETATM   21  N           1     -21.365  -3.464  -6.827  0.00  0.00    -0.066 N 
HETATM   22  H           1     -22.300  -3.011  -6.942  0.00  0.00     0.275 HD
HETATM   23  H           1     -21.032  -3.329  -5.847  0.00  0.00     0.275 HD
HETATM   24  H           1     -20.685  -3.030  -7.491  0.00  0.00     0.275 HD
ENDBRANCH  20  21
BRANCH  20  25
HETATM   25  C           1     -21.978  -5.128  -8.543  0.00  0.00     0.113 C 
BRANCH  25  26
HETATM   26  S           1     -23.335  -3.970  -8.879  0.00  0.00    -0.180 SA
HETATM   27  H           1     -22.946  -3.036  -7.994  0.00  0.00     0.101 HD
ENDBRANCH  25  26
ENDBRANCH  20  25
ENDBRANCH  18  20
ENDBRANCH   1  16
TORSDOF 8
ENDMDL
MODEL 7
REMARK VINA RESULT:      -6.4      3.483      7.794
REMARK  8 active torsions:
REMARK  status: ('A' for Active; 'I' for Inactive)
REMARK    1  A    between atoms: C_8  and  C_14 
REMARK    2  A    between atoms: C_8  and  C_12 
REMARK    3  A    between atoms: C_8  and  N_16 
REMARK    4  A    between atoms: C_12  and  C_26 
REMARK       I    between atoms: C_13  and  N_16 
REMARK    5  A    between atoms: C_13  and  C_22 
REMARK    6  A    between atoms: N_19  and  C_22 
REMARK    7  A    between atoms: S_20  and  C_21 
REMARK    8  A    between atoms: C_21  and  C_22 
ROOT
HETATM    1  C           1     -21.137  -7.575  -5.110  0.00  0.00     0.190 C 
ENDROOT
BRANCH   1   2
HETATM    2  C           1     -21.996  -6.519  -4.457  0.00  0.00     0.197 C 
HETATM    3  O           1     -21.648  -6.018  -3.366  0.00  0.00    -0.646 OA
HETATM    4  O           1     -23.053  -6.145  -5.008  0.00  0.00    -0.646 OA
ENDBRANCH   1   2
BRANCH   1   5
HETATM    5  C           1     -20.467  -8.421  -4.036  0.00  0.00     0.077 C 
BRANCH   5   6
HETATM    6  C           1     -21.375  -9.546  -3.647  0.00  0.00    -0.028 A 
HETATM    7  C           1     -22.047  -9.690  -2.401  0.00  0.00    -0.002 A 
HETATM    8  C           1     -22.099  -8.923  -1.222  0.00  0.00     0.014 A 
HETATM    9  C           1     -22.782 -10.873  -2.465  0.00  0.00     0.042 A 
HETATM   10  C           1     -22.883  -9.366  -0.150  0.00  0.00     0.001 A 
HETATM   11  C           1     -23.607 -10.553  -0.242  0.00  0.00     0.002 A 
HETATM   12  C           1     -23.570 -11.332  -1.404  0.00  0.00     0.030 A 
HETATM   13  N           1     -22.559 -11.422  -3.708  0.00  0.00    -0.365 N 
HETATM   14  H           1     -22.979 -12.321  -4.053  0.00  0.00     0.165 HD
HETATM   15  C           1     -21.709 -10.626  -4.432  0.00  0.00     0.096 A 
ENDBRANCH   5   6
ENDBRANCH   1   5
BRANCH   1  16
HETATM   16  N           1     -20.121  -6.934  -5.922  0.00  0.00    -0.344 N 
HETATM   17  H           1     -19.263  -7.425  -6.139  0.00  0.00     0.163 HD
HETATM   18  C           1     -20.323  -5.667  -6.397  0.00  0.00     0.249 C 
HETATM   19  O           1     -19.970  -4.713  -5.744  0.00  0.00    -0.271 OA
BRANCH  18  20
HETATM   20  C           1     -20.987  -5.459  -7.737  0.00  0.00     0.283 C 
BRANCH  20  21
HETATM   21  N           1     -22.208  -4.605  -7.561  0.00  0.00    -0.066 N 
HETATM   22  H           1     -23.013  -5.204  -7.270  0.00  0.00     0.275 HD
HETATM   23  H           1     -22.025  -3.885  -6.827  0.00  0.00     0.275 HD
HETATM   24  H           1     -22.435  -4.132  -8.465  0.00  0.00     0.275 HD
ENDBRANCH  20  21
BRANCH  20  25
HETATM   25  C           1     -20.016  -4.768  -8.684  0.00  0.00     0.113 C 
BRANCH  25  26
HETATM   26  S           1     -20.913  -4.170 -10.144  0.00  0.00    -0.180 SA
HETATM   27  H           1     -22.068  -3.916  -9.505  0.00  0.00     0.101 HD
ENDBRANCH  25  26
ENDBRANCH  20  25
ENDBRANCH  18  20
ENDBRANCH   1  16
TORSDOF 8
ENDMDL
MODEL 8
REMARK VINA RESULT:      -6.3      2.901      4.353
REMARK  8 active torsions:
REMARK  status: ('A' for Active; 'I' for Inactive)
REMARK    1  A    between atoms: C_8  and  C_14 
REMARK    2  A    between atoms: C_8  and  C_12 
REMARK    3  A    between atoms: C_8  and  N_16 
REMARK    4  A    between atoms: C_12  and  C_26 
REMARK       I    between atoms: C_13  and  N_16 
REMARK    5  A    between atoms: C_13  and  C_22 
REMARK    6  A    between atoms: N_19  and  C_22 
REMARK    7  A    between atoms: S_20  and  C_21 
REMARK    8  A    between atoms: C_21  and  C_22 
ROOT
HETATM    1  C           1     -21.460  -7.338  -3.853  0.00  0.00     0.190 C 
ENDROOT
BRANCH   1   2
HETATM    2  C           1     -21.611  -6.838  -2.437  0.00  0.00     0.197 C 
HETATM    3  O           1     -22.407  -5.907  -2.185  0.00  0.00    -0.646 OA
HETATM    4  O           1     -20.942  -7.354  -1.517  0.00  0.00    -0.646 OA
ENDBRANCH   1   2
BRANCH   1   5
HETATM    5  C           1     -22.189  -6.400  -4.805  0.00  0.00     0.077 C 
BRANCH   5   6
HETATM    6  C           1     -21.314  -6.103  -5.983  0.00  0.00    -0.028 A 
HETATM    7  C           1     -21.651  -5.277  -7.092  0.00  0.00    -0.002 A 
HETATM    8  C           1     -22.789  -4.529  -7.445  0.00  0.00     0.014 A 
HETATM    9  C           1     -20.553  -5.276  -7.951  0.00  0.00     0.042 A 
HETATM   10  C           1     -22.789  -3.807  -8.645  0.00  0.00     0.001 A 
HETATM   11  C           1     -21.678  -3.825  -9.485  0.00  0.00     0.002 A 
HETATM   12  C           1     -20.536  -4.562  -9.155  0.00  0.00     0.030 A 
HETATM   13  N           1     -19.589  -6.075  -7.378  0.00  0.00    -0.365 N 
HETATM   14  H           1     -18.645  -6.271  -7.794  0.00  0.00     0.165 HD
HETATM   15  C           1     -20.040  -6.581  -6.186  0.00  0.00     0.096 A 
ENDBRANCH   5   6
ENDBRANCH   1   5
BRANCH   1  16
HETATM   16  N           1     -22.028  -8.668  -3.957  0.00  0.00    -0.344 N 
HETATM   17  H           1     -23.030  -8.797  -3.898  0.00  0.00     0.163 HD
HETATM   18  C           1     -21.209  -9.750  -4.137  0.00  0.00     0.249 C 
HETATM   19  O           1     -20.771 -10.342  -3.179  0.00  0.00    -0.271 OA
BRANCH  18  20
HETATM   20  C           1     -20.853 -10.204  -5.532  0.00  0.00     0.283 C 
BRANCH  20  21
HETATM   21  N           1     -19.374 -10.060  -5.740  0.00  0.00    -0.066 N 
HETATM   22  H           1     -18.882 -10.885  -5.327  0.00  0.00     0.275 HD
HETATM   23  H           1     -19.171 -10.010  -6.763  0.00  0.00     0.275 HD
HETATM   24  H           1     -19.040  -9.186  -5.275  0.00  0.00     0.275 HD
ENDBRANCH  20  21
BRANCH  20  25
HETATM   25  C           1     -21.250 -11.663  -5.708  0.00  0.00     0.113 C 
BRANCH  25  26
HETATM   26  S           1     -19.759 -12.680  -5.898  0.00  0.00    -0.180 SA
HETATM   27  H           1     -19.369 -12.141  -7.066  0.00  0.00     0.101 HD
ENDBRANCH  25  26
ENDBRANCH  20  25
ENDBRANCH  18  20
ENDBRANCH   1  16
TORSDOF 8
ENDMDL
MODEL 9
REMARK VINA RESULT:      -6.2      5.190      8.159
REMARK  8 active torsions:
REMARK  status: ('A' for Active; 'I' for Inactive)
REMARK    1  A    between atoms: C_8  and  C_14 
REMARK    2  A    between atoms: C_8  and  C_12 
REMARK    3  A    between atoms: C_8  and  N_16 
REMARK    4  A    between atoms: C_12  and  C_26 
REMARK       I    between atoms: C_13  and  N_16 
REMARK    5  A    between atoms: C_13  and  C_22 
REMARK    6  A    between atoms: N_19  and  C_22 
REMARK    7  A    between atoms: S_20  and  C_21 
REMARK    8  A    between atoms: C_21  and  C_22 
ROOT
HETATM    1  C           1     -21.066  -7.764  -3.371  0.00  0.00     0.190 C 
ENDROOT
BRANCH   1   2
HETATM    2  C           1     -21.562  -6.364  -3.637  0.00  0.00     0.197 C 
HETATM    3  O           1     -22.510  -5.899  -2.966  0.00  0.00    -0.646 OA
HETATM    4  O           1     -21.025  -5.668  -4.525  0.00  0.00    -0.646 OA
ENDBRANCH   1   2
BRANCH   1   5
HETATM    5  C           1     -20.556  -7.860  -1.940  0.00  0.00     0.077 C 
BRANCH   5   6
HETATM    6  C           1     -21.644  -8.381  -1.054  0.00  0.00    -0.028 A 
HETATM    7  C           1     -22.322  -9.623  -1.199  0.00  0.00    -0.002 A 
HETATM    8  C           1     -22.230 -10.688  -2.114  0.00  0.00     0.014 A 
HETATM    9  C           1     -23.254  -9.705  -0.164  0.00  0.00     0.042 A 
HETATM   10  C           1     -23.073 -11.796  -1.964  0.00  0.00     0.001 A 
HETATM   11  C           1     -23.995 -11.851  -0.921  0.00  0.00     0.002 A 
HETATM   12  C           1     -24.105 -10.804   0.001  0.00  0.00     0.030 A 
HETATM   13  N           1     -23.140  -8.550   0.576  0.00  0.00    -0.365 N 
HETATM   14  H           1     -23.715  -8.321   1.425  0.00  0.00     0.165 HD
HETATM   15  C           1     -22.169  -7.741   0.047  0.00  0.00     0.096 A 
ENDBRANCH   5   6
ENDBRANCH   1   5
BRANCH   1  16
HETATM   16  N           1     -19.989  -8.076  -4.290  0.00  0.00    -0.344 N 
HETATM   17  H           1     -19.317  -7.363  -4.543  0.00  0.00     0.163 HD
HETATM   18  C           1     -19.880  -9.336  -4.814  0.00  0.00     0.249 C 
HETATM   19  O           1     -20.437  -9.609  -5.851  0.00  0.00    -0.271 OA
BRANCH  18  20
HETATM   20  C           1     -19.064 -10.384  -4.097  0.00  0.00     0.283 C 
BRANCH  20  21
HETATM   21  N           1     -19.510 -11.748  -4.534  0.00  0.00    -0.066 N 
HETATM   22  H           1     -20.208 -11.655  -5.306  0.00  0.00     0.275 HD
HETATM   23  H           1     -18.685 -12.290  -4.874  0.00  0.00     0.275 HD
HETATM   24  H           1     -19.947 -12.246  -3.726  0.00  0.00     0.275 HD
ENDBRANCH  20  21
BRANCH  20  25
HETATM   25  C           1     -17.591 -10.199  -4.434  0.00  0.00     0.113 C 
BRANCH  25  26
HETATM   26  S           1     -16.698  -9.626  -2.960  0.00  0.00    -0.180 SA
HETATM   27  H           1     -15.488 -10.064  -3.349  0.00  0.00     0.101 HD
ENDBRANCH  25  26
ENDBRANCH  20  25
ENDBRANCH  18  20
ENDBRANCH   1  16
TORSDOF 8
ENDMDL
