MODEL 1
REMARK VINA RESULT:      -5.9      0.000      0.000
REMARK  8 active torsions:
REMARK  status: ('A' for Active; 'I' for Inactive)
REMARK    1  A    between atoms: N_4  and  C_9 
REMARK       I    between atoms: N_6  and  C_7 
REMARK    2  A    between atoms: C_7  and  C_8 
REMARK    3  A    between atoms: C_8  and  C_9 
REMARK    4  A    between atoms: C_9  and  C_12 
REMARK    5  A    between atoms: N_11  and  C_19 
REMARK       I    between atoms: N_11  and  C_12 
REMARK    6  A    between atoms: C_18  and  C_19 
REMARK    7  A    between atoms: C_19  and  C_20 
REMARK    8  A    between atoms: C_20  and  Se_21 
ROOT
HETATM    1  C           1     -33.620  -2.769 -11.250  0.00  0.00     0.283 C 
ENDROOT
BRANCH   1   2
HETATM    2  N           1     -33.671  -1.725 -10.174  0.00  0.00    -0.066 N 
HETATM    3  H           1     -33.399  -0.798 -10.573  0.00  0.00     0.275 HD
HETATM    4  H           1     -34.642  -1.667  -9.792  0.00  0.00     0.275 HD
HETATM    5  H           1     -33.009  -1.981  -9.408  0.00  0.00     0.275 HD
ENDBRANCH   1   2
BRANCH   1   6
HETATM    6  C           1     -34.164  -4.084 -10.707  0.00  0.00     0.145 C 
BRANCH   6   7
HETATM    7  C           1     -33.341  -5.230 -11.243  0.00  0.00     0.217 C 
HETATM    8  O           1     -33.592  -6.362 -10.906  0.00  0.00    -0.274 OA
HETATM    9  N           1     -32.311  -4.986 -12.111  0.00  0.00    -0.370 N 
HETATM   10  H           1     -31.759  -5.754 -12.470  0.00  0.00     0.159 HD
HETATM   11  H           1     -32.102  -4.037 -12.393  0.00  0.00     0.159 HD
ENDBRANCH   6   7
ENDBRANCH   1   6
BRANCH   1  12
HETATM   12  C           1     -34.456  -2.322 -12.423  0.00  0.00     0.249 C 
HETATM   13  O           1     -34.486  -2.987 -13.432  0.00  0.00    -0.271 OA
HETATM   14  N           1     -35.182  -1.165 -12.346  0.00  0.00    -0.345 N 
HETATM   15  H           1     -35.159  -0.609 -11.501  0.00  0.00     0.163 HD
BRANCH  14  16
HETATM   16  C           1     -35.987  -0.735 -13.473  0.00  0.00     0.185 C 
BRANCH  16  17
HETATM   17  C           1     -35.198   0.244 -14.308  0.00  0.00     0.196 C 
HETATM   18  O           1     -34.880   1.355 -13.833  0.00  0.00    -0.646 OA
HETATM   19  O           1     -34.864  -0.056 -15.475  0.00  0.00    -0.646 OA
ENDBRANCH  16  17
BRANCH  16  20
HETATM   20  C           1     -37.256  -0.064 -12.965  0.00  0.00     0.039 C 
BRANCH  20  21
HETATM   21 Se           1     -37.292  -0.134 -11.017  0.00  0.00     0.000 Se
HETATM   22  H           1     -37.950  -1.449 -10.960  0.00  0.00     0.000 HD
ENDBRANCH  20  21
ENDBRANCH  16  20
ENDBRANCH  14  16
ENDBRANCH   1  12
TORSDOF 8
ENDMDL
MODEL 2
REMARK VINA RESULT:      -5.7      2.386      2.723
REMARK  8 active torsions:
REMARK  status: ('A' for Active; 'I' for Inactive)
REMARK    1  A    between atoms: N_4  and  C_9 
REMARK       I    between atoms: N_6  and  C_7 
REMARK    2  A    between atoms: C_7  and  C_8 
REMARK    3  A    between atoms: C_8  and  C_9 
REMARK    4  A    between atoms: C_9  and  C_12 
REMARK    5  A    between atoms: N_11  and  C_19 
REMARK       I    between atoms: N_11  and  C_12 
REMARK    6  A    between atoms: C_18  and  C_19 
REMARK    7  A    between atoms: C_19  and  C_20 
REMARK    8  A    between atoms: C_20  and  Se_21 
ROOT
HETATM    1  C           1     -34.101  -4.026 -12.642  0.00  0.00     0.283 C 
ENDROOT
BRANCH   1   2
HETATM    2  N           1     -33.578  -4.100 -14.046  0.00  0.00    -0.066 N 
HETATM    3  H           1     -32.689  -3.555 -14.117  0.00  0.00     0.275 HD
HETATM    4  H           1     -33.394  -5.098 -14.297  0.00  0.00     0.275 HD
HETATM    5  H           1     -34.284  -3.700 -14.703  0.00  0.00     0.275 HD
ENDBRANCH   1   2
BRANCH   1   6
HETATM    6  C           1     -33.143  -4.751 -11.706  0.00  0.00     0.145 C 
BRANCH   6   7
HETATM    7  C           1     -33.906  -5.773 -10.897  0.00  0.00     0.217 C 
HETATM    8  O           1     -34.933  -5.460 -10.343  0.00  0.00    -0.274 OA
HETATM    9  N           1     -33.434  -7.053 -10.791  0.00  0.00    -0.370 N 
HETATM   10  H           1     -33.946  -7.738 -10.249  0.00  0.00     0.159 HD
HETATM   11  H           1     -32.574  -7.315 -11.255  0.00  0.00     0.159 HD
ENDBRANCH   6   7
ENDBRANCH   1   6
BRANCH   1  12
HETATM   12  C           1     -34.216  -2.581 -12.225  0.00  0.00     0.249 C 
HETATM   13  O           1     -33.712  -2.208 -11.192  0.00  0.00    -0.271 OA
HETATM   14  N           1     -34.892  -1.691 -13.016  0.00  0.00    -0.345 N 
HETATM   15  H           1     -35.314  -2.003 -13.881  0.00  0.00     0.163 HD
BRANCH  14  16
HETATM   16  C           1     -35.002  -0.302 -12.615  0.00  0.00     0.185 C 
BRANCH  16  17
HETATM   17  C           1     -36.269  -0.109 -11.819  0.00  0.00     0.196 C 
HETATM   18  O           1     -36.245   0.542 -10.753  0.00  0.00    -0.646 OA
HETATM   19  O           1     -37.344  -0.602 -12.226  0.00  0.00    -0.646 OA
ENDBRANCH  16  17
BRANCH  16  20
HETATM   20  C           1     -35.041   0.582 -13.855  0.00  0.00     0.039 C 
BRANCH  20  21
HETATM   21 Se           1     -35.672  -0.461 -15.377  0.00  0.00     0.000 Se
HETATM   22  H           1     -37.090  -0.125 -15.168  0.00  0.00     0.000 HD
ENDBRANCH  20  21
ENDBRANCH  16  20
ENDBRANCH  14  16
ENDBRANCH   1  12
TORSDOF 8
ENDMDL
MODEL 3
REMARK VINA RESULT:      -5.6      2.908      5.661
REMARK  8 active torsions:
REMARK  status: ('A' for Active; 'I' for Inactive)
REMARK    1  A    between atoms: N_4  and  C_9 
REMARK       I    between atoms: N_6  and  C_7 
REMARK    2  A    between atoms: C_7  and  C_8 
REMARK    3  A    between atoms: C_8  and  C_9 
REMARK    4  A    between atoms: C_9  and  C_12 
REMARK    5  A    between atoms: N_11  and  C_19 
REMARK       I    between atoms: N_11  and  C_12 
REMARK    6  A    between atoms: C_18  and  C_19 
REMARK    7  A    between atoms: C_19  and  C_20 
REMARK    8  A    between atoms: C_20  and  Se_21 
ROOT
HETATM    1  C           1     -35.833   0.329 -14.032  0.00  0.00     0.283 C 
ENDROOT
BRANCH   1   2
HETATM    2  N           1     -34.633   1.202 -13.818  0.00  0.00    -0.066 N 
HETATM    3  H           1     -34.930   2.103 -13.379  0.00  0.00     0.275 HD
HETATM    4  H           1     -33.956   0.715 -13.187  0.00  0.00     0.275 HD
HETATM    5  H           1     -34.175   1.397 -14.736  0.00  0.00     0.275 HD
ENDBRANCH   1   2
BRANCH   1   6
HETATM    6  C           1     -35.824  -0.205 -15.458  0.00  0.00     0.145 C 
BRANCH   6   7
HETATM    7  C           1     -37.212  -0.106 -16.042  0.00  0.00     0.217 C 
HETATM    8  O           1     -37.667  -1.028 -16.677  0.00  0.00    -0.274 OA
HETATM    9  N           1     -37.956   1.027 -15.852  0.00  0.00    -0.370 N 
HETATM   10  H           1     -38.887   1.094 -16.244  0.00  0.00     0.159 HD
HETATM   11  H           1     -37.574   1.799 -15.320  0.00  0.00     0.159 HD
ENDBRANCH   6   7
ENDBRANCH   1   6
BRANCH   1  12
HETATM   12  C           1     -35.793  -0.826 -13.061  0.00  0.00     0.249 C 
HETATM   13  O           1     -36.683  -0.968 -12.256  0.00  0.00    -0.271 OA
HETATM   14  N           1     -34.751  -1.711 -13.092  0.00  0.00    -0.345 N 
HETATM   15  H           1     -34.006  -1.592 -13.767  0.00  0.00     0.163 HD
BRANCH  14  16
HETATM   16  C           1     -34.712  -2.821 -12.159  0.00  0.00     0.185 C 
BRANCH  16  17
HETATM   17  C           1     -33.647  -2.567 -11.121  0.00  0.00     0.196 C 
HETATM   18  O           1     -32.515  -3.082 -11.249  0.00  0.00    -0.646 OA
HETATM   19  O           1     -33.896  -1.842 -10.133  0.00  0.00    -0.646 OA
ENDBRANCH  16  17
BRANCH  16  20
HETATM   20  C           1     -34.394  -4.106 -12.912  0.00  0.00     0.039 C 
BRANCH  20  21
HETATM   21 Se           1     -34.704  -5.636 -11.746  0.00  0.00     0.000 Se
HETATM   22  H           1     -36.089  -5.847 -12.196  0.00  0.00     0.000 HD
ENDBRANCH  20  21
ENDBRANCH  16  20
ENDBRANCH  14  16
ENDBRANCH   1  12
TORSDOF 8
ENDMDL
MODEL 4
REMARK VINA RESULT:      -5.5     12.292     13.912
REMARK  8 active torsions:
REMARK  status: ('A' for Active; 'I' for Inactive)
REMARK    1  A    between atoms: N_4  and  C_9 
REMARK       I    between atoms: N_6  and  C_7 
REMARK    2  A    between atoms: C_7  and  C_8 
REMARK    3  A    between atoms: C_8  and  C_9 
REMARK    4  A    between atoms: C_9  and  C_12 
REMARK    5  A    between atoms: N_11  and  C_19 
REMARK       I    between atoms: N_11  and  C_12 
REMARK    6  A    between atoms: C_18  and  C_19 
REMARK    7  A    between atoms: C_19  and  C_20 
REMARK    8  A    between atoms: C_20  and  Se_21 
ROOT
HETATM    1  C           1     -21.154  -5.761  -6.778  0.00  0.00     0.283 C 
ENDROOT
BRANCH   1   2
HETATM    2  N           1     -19.860  -6.284  -7.327  0.00  0.00    -0.066 N 
HETATM    3  H           1     -20.056  -6.946  -8.112  0.00  0.00     0.275 HD
HETATM    4  H           1     -19.285  -5.486  -7.681  0.00  0.00     0.275 HD
HETATM    5  H           1     -19.338  -6.783  -6.573  0.00  0.00     0.275 HD
ENDBRANCH   1   2
BRANCH   1   6
HETATM    6  C           1     -20.934  -5.249  -5.361  0.00  0.00     0.145 C 
BRANCH   6   7
HETATM    7  C           1     -21.281  -6.336  -4.372  0.00  0.00     0.217 C 
HETATM    8  O           1     -21.060  -7.492  -4.644  0.00  0.00    -0.274 OA
HETATM    9  N           1     -21.846  -6.012  -3.168  0.00  0.00    -0.370 N 
HETATM   10  H           1     -22.078  -6.740  -2.506  0.00  0.00     0.159 HD
HETATM   11  H           1     -22.030  -5.043  -2.942  0.00  0.00     0.159 HD
ENDBRANCH   6   7
ENDBRANCH   1   6
BRANCH   1  12
HETATM   12  C           1     -21.651  -4.634  -7.650  0.00  0.00     0.249 C 
HETATM   13  O           1     -21.564  -3.491  -7.267  0.00  0.00    -0.271 OA
HETATM   14  N           1     -22.199  -4.905  -8.874  0.00  0.00    -0.345 N 
HETATM   15  H           1     -22.271  -5.862  -9.195  0.00  0.00     0.163 HD
BRANCH  14  16
HETATM   16  C           1     -22.676  -3.822  -9.712  0.00  0.00     0.185 C 
BRANCH  16  17
HETATM   17  C           1     -24.184  -3.838  -9.743  0.00  0.00     0.196 C 
HETATM   18  O           1     -24.792  -4.892 -10.028  0.00  0.00    -0.646 OA
HETATM   19  O           1     -24.826  -2.797  -9.485  0.00  0.00    -0.646 OA
ENDBRANCH  16  17
BRANCH  16  20
HETATM   20  C           1     -22.136  -3.998 -11.125  0.00  0.00     0.039 C 
BRANCH  20  21
HETATM   21 Se           1     -22.953  -2.678 -12.303  0.00  0.00     0.000 Se
HETATM   22  H           1     -21.680  -2.269 -12.919  0.00  0.00     0.000 HD
ENDBRANCH  20  21
ENDBRANCH  16  20
ENDBRANCH  14  16
ENDBRANCH   1  12
TORSDOF 8
ENDMDL
MODEL 5
REMARK VINA RESULT:      -5.3     11.612     13.663
REMARK  8 active torsions:
REMARK  status: ('A' for Active; 'I' for Inactive)
REMARK    1  A    between atoms: N_4  and  C_9 
REMARK       I    between atoms: N_6  and  C_7 
REMARK    2  A    between atoms: C_7  and  C_8 
REMARK    3  A    between atoms: C_8  and  C_9 
REMARK    4  A    between atoms: C_9  and  C_12 
REMARK    5  A    between atoms: N_11  and  C_19 
REMARK       I    between atoms: N_11  and  C_12 
REMARK    6  A    between atoms: C_18  and  C_19 
REMARK    7  A    between atoms: C_19  and  C_20 
REMARK    8  A    between atoms: C_20  and  Se_21 
ROOT
HETATM    1  C           1     -24.101  -4.022 -10.681  0.00  0.00     0.283 C 
ENDROOT
BRANCH   1   2
HETATM    2  N           1     -25.263  -3.675  -9.799  0.00  0.00    -0.066 N 
HETATM    3  H           1     -25.739  -2.821 -10.167  0.00  0.00     0.275 HD
HETATM    4  H           1     -25.941  -4.471  -9.786  0.00  0.00     0.275 HD
HETATM    5  H           1     -24.923  -3.491  -8.828  0.00  0.00     0.275 HD
ENDBRANCH   1   2
BRANCH   1   6
HETATM    6  C           1     -23.706  -2.802 -11.502  0.00  0.00     0.145 C 
BRANCH   6   7
HETATM    7  C           1     -23.354  -3.232 -12.906  0.00  0.00     0.217 C 
HETATM    8  O           1     -24.216  -3.308 -13.747  0.00  0.00    -0.274 OA
HETATM    9  N           1     -22.057  -3.534 -13.224  0.00  0.00    -0.370 N 
HETATM   10  H           1     -21.821  -3.821 -14.165  0.00  0.00     0.159 HD
HETATM   11  H           1     -21.335  -3.468 -12.518  0.00  0.00     0.159 HD
ENDBRANCH   6   7
ENDBRANCH   1   6
BRANCH   1  12
HETATM   12  C           1     -22.935  -4.455  -9.826  0.00  0.00     0.249 C 
HETATM   13  O           1     -21.903  -4.807 -10.347  0.00  0.00    -0.271 OA
HETATM   14  N           1     -23.045  -4.448  -8.462  0.00  0.00    -0.345 N 
HETATM   15  H           1     -23.909  -4.152  -8.026  0.00  0.00     0.163 HD
BRANCH  14  16
HETATM   16  C           1     -21.924  -4.863  -7.641  0.00  0.00     0.185 C 
BRANCH  16  17
HETATM   17  C           1     -22.434  -5.360  -6.311  0.00  0.00     0.196 C 
HETATM   18  O           1     -21.656  -5.934  -5.518  0.00  0.00    -0.646 OA
HETATM   19  O           1     -23.634  -5.198  -6.002  0.00  0.00    -0.646 OA
ENDBRANCH  16  17
BRANCH  16  20
HETATM   20  C           1     -20.992  -3.679  -7.419  0.00  0.00     0.039 C 
BRANCH  20  21
HETATM   21 Se           1     -19.143  -4.258  -7.635  0.00  0.00     0.000 Se
HETATM   22  H           1     -19.465  -5.314  -8.608  0.00  0.00     0.000 HD
ENDBRANCH  20  21
ENDBRANCH  16  20
ENDBRANCH  14  16
ENDBRANCH   1  12
TORSDOF 8
ENDMDL
MODEL 6
REMARK VINA RESULT:      -5.1     12.389     13.969
REMARK  8 active torsions:
REMARK  status: ('A' for Active; 'I' for Inactive)
REMARK    1  A    between atoms: N_4  and  C_9 
REMARK       I    between atoms: N_6  and  C_7 
REMARK    2  A    between atoms: C_7  and  C_8 
REMARK    3  A    between atoms: C_8  and  C_9 
REMARK    4  A    between atoms: C_9  and  C_12 
REMARK    5  A    between atoms: N_11  and  C_19 
REMARK       I    between atoms: N_11  and  C_12 
REMARK    6  A    between atoms: C_18  and  C_19 
REMARK    7  A    between atoms: C_19  and  C_20 
REMARK    8  A    between atoms: C_20  and  Se_21 
ROOT
HETATM    1  C           1     -21.599  -5.439  -5.963  0.00  0.00     0.283 C 
ENDROOT
BRANCH   1   2
HETATM    2  N           1     -22.925  -5.829  -5.381  0.00  0.00    -0.066 N 
HETATM    3  H           1     -23.257  -6.713  -5.830  0.00  0.00     0.275 HD
HETATM    4  H           1     -22.823  -5.979  -4.352  0.00  0.00     0.275 HD
HETATM    5  H           1     -23.620  -5.069  -5.556  0.00  0.00     0.275 HD
ENDBRANCH   1   2
BRANCH   1   6
HETATM    6  C           1     -20.905  -6.676  -6.517  0.00  0.00     0.145 C 
BRANCH   6   7
HETATM    7  C           1     -20.301  -7.467  -5.381  0.00  0.00     0.217 C 
HETATM    8  O           1     -20.654  -7.257  -4.246  0.00  0.00    -0.274 OA
HETATM    9  N           1     -19.355  -8.422  -5.639  0.00  0.00    -0.370 N 
HETATM   10  H           1     -18.951  -8.952  -4.878  0.00  0.00     0.159 HD
HETATM   11  H           1     -19.060  -8.598  -6.591  0.00  0.00     0.159 HD
ENDBRANCH   6   7
ENDBRANCH   1   6
BRANCH   1  12
HETATM   12  C           1     -21.812  -4.441  -7.074  0.00  0.00     0.249 C 
HETATM   13  O           1     -21.297  -3.350  -7.012  0.00  0.00    -0.271 OA
HETATM   14  N           1     -22.589  -4.770  -8.151  0.00  0.00    -0.345 N 
HETATM   15  H           1     -23.020  -5.684  -8.203  0.00  0.00     0.163 HD
BRANCH  14  16
HETATM   16  C           1     -22.794  -3.810  -9.219  0.00  0.00     0.185 C 
BRANCH  16  17
HETATM   17  C           1     -24.247  -3.819  -9.628  0.00  0.00     0.196 C 
HETATM   18  O           1     -24.773  -4.873 -10.044  0.00  0.00    -0.646 OA
HETATM   19  O           1     -24.923  -2.770  -9.553  0.00  0.00    -0.646 OA
ENDBRANCH  16  17
BRANCH  16  20
HETATM   20  C           1     -21.927  -4.187 -10.413  0.00  0.00     0.039 C 
BRANCH  20  21
HETATM   21 Se           1     -22.203  -2.899 -11.849  0.00  0.00     0.000 Se
HETATM   22  H           1     -23.668  -2.879 -11.708  0.00  0.00     0.000 HD
ENDBRANCH  20  21
ENDBRANCH  16  20
ENDBRANCH  14  16
ENDBRANCH   1  12
TORSDOF 8
ENDMDL
MODEL 7
REMARK VINA RESULT:      -5.1     11.934     13.915
REMARK  8 active torsions:
REMARK  status: ('A' for Active; 'I' for Inactive)
REMARK    1  A    between atoms: N_4  and  C_9 
REMARK       I    between atoms: N_6  and  C_7 
REMARK    2  A    between atoms: C_7  and  C_8 
REMARK    3  A    between atoms: C_8  and  C_9 
REMARK    4  A    between atoms: C_9  and  C_12 
REMARK    5  A    between atoms: N_11  and  C_19 
REMARK       I    between atoms: N_11  and  C_12 
REMARK    6  A    between atoms: C_18  and  C_19 
REMARK    7  A    between atoms: C_19  and  C_20 
REMARK    8  A    between atoms: C_20  and  Se_21 
ROOT
HETATM    1  C           1     -24.008  -4.445  -9.939  0.00  0.00     0.283 C 
ENDROOT
BRANCH   1   2
HETATM    2  N           1     -25.382  -3.905  -9.672  0.00  0.00    -0.066 N 
HETATM    3  H           1     -26.033  -4.694  -9.460  0.00  0.00     0.275 HD
HETATM    4  H           1     -25.347  -3.255  -8.855  0.00  0.00     0.275 HD
HETATM    5  H           1     -25.724  -3.389 -10.514  0.00  0.00     0.275 HD
ENDBRANCH   1   2
BRANCH   1   6
HETATM    6  C           1     -23.299  -3.551 -10.947  0.00  0.00     0.145 C 
BRANCH   6   7
HETATM    7  C           1     -24.094  -3.507 -12.230  0.00  0.00     0.217 C 
HETATM    8  O           1     -24.975  -2.693 -12.366  0.00  0.00    -0.274 OA
HETATM    9  N           1     -23.815  -4.390 -13.238  0.00  0.00    -0.370 N 
HETATM   10  H           1     -24.347  -4.361 -14.098  0.00  0.00     0.159 HD
HETATM   11  H           1     -23.076  -5.072 -13.122  0.00  0.00     0.159 HD
ENDBRANCH   6   7
ENDBRANCH   1   6
BRANCH   1  12
HETATM   12  C           1     -23.223  -4.477  -8.651  0.00  0.00     0.249 C 
HETATM   13  O           1     -23.762  -4.195  -7.607  0.00  0.00    -0.271 OA
HETATM   14  N           1     -21.899  -4.824  -8.664  0.00  0.00    -0.345 N 
HETATM   15  H           1     -21.447  -5.061  -9.538  0.00  0.00     0.163 HD
BRANCH  14  16
HETATM   16  C           1     -21.144  -4.855  -7.427  0.00  0.00     0.185 C 
BRANCH  16  17
HETATM   17  C           1     -19.753  -4.324  -7.675  0.00  0.00     0.196 C 
HETATM   18  O           1     -18.817  -4.642  -6.910  0.00  0.00    -0.646 OA
HETATM   19  O           1     -19.538  -3.566  -8.645  0.00  0.00    -0.646 OA
ENDBRANCH  16  17
BRANCH  16  20
HETATM   20  C           1     -21.058  -6.289  -6.920  0.00  0.00     0.039 C 
BRANCH  20  21
HETATM   21 Se           1     -21.837  -6.395  -5.137  0.00  0.00     0.000 Se
HETATM   22  H           1     -21.504  -5.006  -4.782  0.00  0.00     0.000 HD
ENDBRANCH  20  21
ENDBRANCH  16  20
ENDBRANCH  14  16
ENDBRANCH   1  12
TORSDOF 8
ENDMDL
MODEL 8
REMARK VINA RESULT:      -5.1      2.801      5.007
REMARK  8 active torsions:
REMARK  status: ('A' for Active; 'I' for Inactive)
REMARK    1  A    between atoms: N_4  and  C_9 
REMARK       I    between atoms: N_6  and  C_7 
REMARK    2  A    between atoms: C_7  and  C_8 
REMARK    3  A    between atoms: C_8  and  C_9 
REMARK    4  A    between atoms: C_9  and  C_12 
REMARK    5  A    between atoms: N_11  and  C_19 
REMARK       I    between atoms: N_11  and  C_12 
REMARK    6  A    between atoms: C_18  and  C_19 
REMARK    7  A    between atoms: C_19  and  C_20 
REMARK    8  A    between atoms: C_20  and  Se_21 
ROOT
HETATM    1  C           1     -36.192  -0.691 -11.102  0.00  0.00     0.283 C 
ENDROOT
BRANCH   1   2
HETATM    2  N           1     -36.231   0.152  -9.862  0.00  0.00    -0.066 N 
HETATM    3  H           1     -35.256   0.331  -9.530  0.00  0.00     0.275 HD
HETATM    4  H           1     -36.697   1.063 -10.075  0.00  0.00     0.275 HD
HETATM    5  H           1     -36.765  -0.347  -9.117  0.00  0.00     0.275 HD
ENDBRANCH   1   2
BRANCH   1   6
HETATM    6  C           1     -35.752   0.164 -12.283  0.00  0.00     0.145 C 
BRANCH   6   7
HETATM    7  C           1     -36.092  -0.545 -13.572  0.00  0.00     0.217 C 
HETATM    8  O           1     -37.243  -0.793 -13.839  0.00  0.00    -0.274 OA
HETATM    9  N           1     -35.095  -0.905 -14.438  0.00  0.00    -0.370 N 
HETATM   10  H           1     -35.322  -1.380 -15.302  0.00  0.00     0.159 HD
HETATM   11  H           1     -34.130  -0.697 -14.214  0.00  0.00     0.159 HD
ENDBRANCH   6   7
ENDBRANCH   1   6
BRANCH   1  12
HETATM   12  C           1     -35.215  -1.824 -10.907  0.00  0.00     0.249 C 
HETATM   13  O           1     -34.250  -1.674 -10.196  0.00  0.00    -0.271 OA
HETATM   14  N           1     -35.421  -3.022 -11.536  0.00  0.00    -0.345 N 
HETATM   15  H           1     -36.230  -3.148 -12.131  0.00  0.00     0.163 HD
BRANCH  14  16
HETATM   16  C           1     -34.482  -4.111 -11.349  0.00  0.00     0.185 C 
BRANCH  16  17
HETATM   17  C           1     -33.417  -4.044 -12.416  0.00  0.00     0.196 C 
HETATM   18  O           1     -33.718  -3.703 -13.580  0.00  0.00    -0.646 OA
HETATM   19  O           1     -32.233  -4.330 -12.135  0.00  0.00    -0.646 OA
ENDBRANCH  16  17
BRANCH  16  20
HETATM   20  C           1     -35.220  -5.440 -11.450  0.00  0.00     0.039 C 
BRANCH  20  21
HETATM   21 Se           1     -34.383  -6.740 -10.264  0.00  0.00     0.000 Se
HETATM   22  H           1     -35.658  -7.317  -9.807  0.00  0.00     0.000 HD
ENDBRANCH  20  21
ENDBRANCH  16  20
ENDBRANCH  14  16
ENDBRANCH   1  12
TORSDOF 8
ENDMDL
MODEL 9
REMARK VINA RESULT:      -5.0     13.857     16.323
REMARK  8 active torsions:
REMARK  status: ('A' for Active; 'I' for Inactive)
REMARK    1  A    between atoms: N_4  and  C_9 
REMARK       I    between atoms: N_6  and  C_7 
REMARK    2  A    between atoms: C_7  and  C_8 
REMARK    3  A    between atoms: C_8  and  C_9 
REMARK    4  A    between atoms: C_9  and  C_12 
REMARK    5  A    between atoms: N_11  and  C_19 
REMARK       I    between atoms: N_11  and  C_12 
REMARK    6  A    between atoms: C_18  and  C_19 
REMARK    7  A    between atoms: C_19  and  C_20 
REMARK    8  A    between atoms: C_20  and  Se_21 
ROOT
HETATM    1  C           1     -20.661  -4.957  -6.752  0.00  0.00     0.283 C 
ENDROOT
BRANCH   1   2
HETATM    2  N           1     -20.478  -5.752  -8.011  0.00  0.00    -0.066 N 
HETATM    3  H           1     -21.311  -6.366  -8.160  0.00  0.00     0.275 HD
HETATM    4  H           1     -20.377  -5.102  -8.822  0.00  0.00     0.275 HD
HETATM    5  H           1     -19.621  -6.344  -7.929  0.00  0.00     0.275 HD
ENDBRANCH   1   2
BRANCH   1   6
HETATM    6  C           1     -21.357  -3.643  -7.080  0.00  0.00     0.145 C 
BRANCH   6   7
HETATM    7  C           1     -22.263  -3.836  -8.272  0.00  0.00     0.217 C 
HETATM    8  O           1     -21.817  -3.740  -9.390  0.00  0.00    -0.274 OA
HETATM    9  N           1     -23.589  -4.120  -8.085  0.00  0.00    -0.370 N 
HETATM   10  H           1     -24.196  -4.250  -8.884  0.00  0.00     0.159 HD
HETATM   11  H           1     -23.961  -4.201  -7.148  0.00  0.00     0.159 HD
ENDBRANCH   6   7
ENDBRANCH   1   6
BRANCH   1  12
HETATM   12  C           1     -21.502  -5.745  -5.779  0.00  0.00     0.249 C 
HETATM   13  O           1     -22.696  -5.569  -5.733  0.00  0.00    -0.271 OA
HETATM   14  N           1     -20.913  -6.659  -4.948  0.00  0.00    -0.345 N 
HETATM   15  H           1     -19.913  -6.807  -4.987  0.00  0.00     0.163 HD
BRANCH  14  16
HETATM   16  C           1     -21.721  -7.416  -4.012  0.00  0.00     0.185 C 
BRANCH  16  17
HETATM   17  C           1     -21.566  -6.833  -2.629  0.00  0.00     0.196 C 
HETATM   18  O           1     -22.262  -5.855  -2.281  0.00  0.00    -0.646 OA
HETATM   19  O           1     -20.741  -7.328  -1.831  0.00  0.00    -0.646 OA
ENDBRANCH  16  17
BRANCH  16  20
HETATM   20  C           1     -21.263  -8.869  -4.006  0.00  0.00     0.039 C 
BRANCH  20  21
HETATM   21 Se           1     -19.505  -8.999  -4.837  0.00  0.00     0.000 Se
HETATM   22  H           1     -20.001  -9.658  -6.055  0.00  0.00     0.000 HD
ENDBRANCH  20  21
ENDBRANCH  16  20
ENDBRANCH  14  16
ENDBRANCH   1  12
TORSDOF 8
ENDMDL
