MODEL 1
REMARK VINA RESULT:      -6.9      0.000      0.000
REMARK  9 active torsions:
REMARK  status: ('A' for Active; 'I' for Inactive)
REMARK       I    between atoms: C_2  and  N_3 
REMARK    1  A    between atoms: C_2  and  C_18 
REMARK    2  A    between atoms: N_3  and  C_21 
REMARK    3  A    between atoms: C_6  and  C_7 
REMARK    4  A    between atoms: C_7  and  C_18 
REMARK    5  A    between atoms: C_8  and  C_14 
REMARK    6  A    between atoms: C_14  and  C_22 
REMARK    7  A    between atoms: C_17  and  C_21 
REMARK    8  A    between atoms: C_18  and  N_19 
REMARK    9  A    between atoms: C_21  and  C_22 
ROOT
HETATM    1  C           1     -21.684  -4.649  -7.811  0.00  0.00     0.249 C 
HETATM    2  N           1     -22.212  -4.874  -9.053  0.00  0.00    -0.345 N 
HETATM    3  O           1     -21.684  -3.533  -7.348  0.00  0.00    -0.271 OA
HETATM    4  H           1     -22.212  -5.809  -9.442  0.00  0.00     0.163 HD
ENDROOT
BRANCH   1   5
HETATM    5  C           1     -21.101  -5.794  -7.020  0.00  0.00     0.275 C 
BRANCH   5   6
HETATM    6  C           1     -20.993  -5.397  -5.553  0.00  0.00     0.046 C 
BRANCH   6   7
HETATM    7  C           1     -21.828  -6.348  -4.706  0.00  0.00    -0.020 C 
HETATM    8  C           1     -21.570  -7.782  -5.148  0.00  0.00     0.009 C 
HETATM    9  C           1     -21.445  -6.190  -3.241  0.00  0.00     0.009 C 
ENDBRANCH   6   7
ENDBRANCH   5   6
BRANCH   5  10
HETATM   10  N           1     -19.736  -6.123  -7.549  0.00  0.00    -0.066 N 
HETATM   11  H           1     -19.581  -5.620  -8.451  0.00  0.00     0.275 HD
HETATM   12  H           1     -19.665  -7.155  -7.708  0.00  0.00     0.275 HD
HETATM   13  H           1     -19.013  -5.826  -6.856  0.00  0.00     0.275 HD
ENDBRANCH   5  10
ENDBRANCH   1   5
BRANCH   2  14
HETATM   14  C           1     -22.772  -3.775  -9.814  0.00  0.00     0.186 C 
BRANCH  14  15
HETATM   15  C           1     -24.279  -3.829  -9.740  0.00  0.00     0.196 C 
HETATM   16  O           1     -24.874  -4.913  -9.922  0.00  0.00    -0.646 OA
HETATM   17  O           1     -24.931  -2.791  -9.497  0.00  0.00    -0.646 OA
ENDBRANCH  14  15
BRANCH  14  18
HETATM   18  C           1     -22.330  -3.885 -11.267  0.00  0.00     0.046 C 
BRANCH  18  19
HETATM   19  C           1     -22.549  -2.550 -11.967  0.00  0.00     0.116 C 
BRANCH  19  20
HETATM   20  C           1     -23.417  -2.757 -13.184  0.00  0.00     0.172 C 
HETATM   21  O           1     -24.659  -2.829 -13.061  0.00  0.00    -0.648 OA
HETATM   22  O           1     -22.894  -2.854 -14.315  0.00  0.00    -0.648 OA
ENDBRANCH  19  20
ENDBRANCH  18  19
ENDBRANCH  14  18
ENDBRANCH   2  14
TORSDOF 9
ENDMDL
MODEL 2
REMARK VINA RESULT:      -6.8     11.929     13.793
REMARK  9 active torsions:
REMARK  status: ('A' for Active; 'I' for Inactive)
REMARK       I    between atoms: C_2  and  N_3 
REMARK    1  A    between atoms: C_2  and  C_18 
REMARK    2  A    between atoms: N_3  and  C_21 
REMARK    3  A    between atoms: C_6  and  C_7 
REMARK    4  A    between atoms: C_7  and  C_18 
REMARK    5  A    between atoms: C_8  and  C_14 
REMARK    6  A    between atoms: C_14  and  C_22 
REMARK    7  A    between atoms: C_17  and  C_21 
REMARK    8  A    between atoms: C_18  and  N_19 
REMARK    9  A    between atoms: C_21  and  C_22 
ROOT
HETATM    1  C           1     -34.274  -2.399 -12.295  0.00  0.00     0.249 C 
HETATM    2  N           1     -34.965  -1.593 -13.158  0.00  0.00    -0.345 N 
HETATM    3  O           1     -33.752  -1.926 -11.313  0.00  0.00    -0.271 OA
HETATM    4  H           1     -35.402  -1.988 -13.981  0.00  0.00     0.163 HD
ENDROOT
BRANCH   1   5
HETATM    5  C           1     -34.163  -3.878 -12.569  0.00  0.00     0.275 C 
BRANCH   5   6
HETATM    6  C           1     -33.265  -4.525 -11.522  0.00  0.00     0.046 C 
BRANCH   6   7
HETATM    7  C           1     -34.124  -5.230 -10.482  0.00  0.00    -0.020 C 
HETATM    8  C           1     -35.582  -4.834 -10.671  0.00  0.00     0.009 C 
HETATM    9  C           1     -33.982  -6.738 -10.645  0.00  0.00     0.009 C 
ENDBRANCH   6   7
ENDBRANCH   5   6
BRANCH   5  10
HETATM   10  N           1     -33.575  -4.091 -13.932  0.00  0.00    -0.066 N 
HETATM   11  H           1     -32.677  -4.619 -13.847  0.00  0.00     0.275 HD
HETATM   12  H           1     -33.393  -3.164 -14.381  0.00  0.00     0.275 HD
HETATM   13  H           1     -34.244  -4.637 -14.520  0.00  0.00     0.275 HD
ENDBRANCH   5  10
ENDBRANCH   1   5
BRANCH   2  14
HETATM   14  C           1     -35.072  -0.171 -12.895  0.00  0.00     0.186 C 
BRANCH  14  15
HETATM   15  C           1     -36.298   0.095 -12.055  0.00  0.00     0.196 C 
HETATM   16  O           1     -37.436  -0.021 -12.558  0.00  0.00    -0.646 OA
HETATM   17  O           1     -36.175   0.429 -10.857  0.00  0.00    -0.646 OA
ENDBRANCH  14  15
BRANCH  14  18
HETATM   18  C           1     -35.185   0.583 -14.213  0.00  0.00     0.046 C 
BRANCH  18  19
HETATM   19  C           1     -35.341  -0.411 -15.356  0.00  0.00     0.116 C 
BRANCH  19  20
HETATM   20  C           1     -36.609  -0.110 -16.117  0.00  0.00     0.172 C 
HETATM   21  O           1     -36.967  -0.857 -17.053  0.00  0.00    -0.648 OA
HETATM   22  O           1     -37.299   0.885 -15.811  0.00  0.00    -0.648 OA
ENDBRANCH  19  20
ENDBRANCH  18  19
ENDBRANCH  14  18
ENDBRANCH   2  14
TORSDOF 9
ENDMDL
MODEL 3
REMARK VINA RESULT:      -6.1      2.054      3.192
REMARK  9 active torsions:
REMARK  status: ('A' for Active; 'I' for Inactive)
REMARK       I    between atoms: C_2  and  N_3 
REMARK    1  A    between atoms: C_2  and  C_18 
REMARK    2  A    between atoms: N_3  and  C_21 
REMARK    3  A    between atoms: C_6  and  C_7 
REMARK    4  A    between atoms: C_7  and  C_18 
REMARK    5  A    between atoms: C_8  and  C_14 
REMARK    6  A    between atoms: C_14  and  C_22 
REMARK    7  A    between atoms: C_17  and  C_21 
REMARK    8  A    between atoms: C_18  and  N_19 
REMARK    9  A    between atoms: C_21  and  C_22 
ROOT
HETATM    1  C           1     -21.350  -5.970  -6.432  0.00  0.00     0.249 C 
HETATM    2  N           1     -21.778  -4.852  -7.095  0.00  0.00    -0.345 N 
HETATM    3  O           1     -20.931  -6.917  -7.053  0.00  0.00    -0.271 OA
HETATM    4  H           1     -22.130  -4.058  -6.574  0.00  0.00     0.163 HD
ENDROOT
BRANCH   1   5
HETATM    5  C           1     -21.404  -6.020  -4.925  0.00  0.00     0.275 C 
BRANCH   5   6
HETATM    6  C           1     -20.585  -7.204  -4.426  0.00  0.00     0.046 C 
BRANCH   6   7
HETATM    7  C           1     -21.365  -7.942  -3.346  0.00  0.00    -0.020 C 
HETATM    8  C           1     -21.465  -9.418  -3.710  0.00  0.00     0.009 C 
HETATM    9  C           1     -20.645  -7.796  -2.012  0.00  0.00     0.009 C 
ENDBRANCH   6   7
ENDBRANCH   5   6
BRANCH   5  10
HETATM   10  N           1     -22.828  -6.175  -4.480  0.00  0.00    -0.066 N 
HETATM   11  H           1     -23.465  -5.764  -5.198  0.00  0.00     0.275 HD
HETATM   12  H           1     -22.964  -5.680  -3.569  0.00  0.00     0.275 HD
HETATM   13  H           1     -23.048  -7.190  -4.362  0.00  0.00     0.275 HD
ENDBRANCH   5  10
ENDBRANCH   1   5
BRANCH   2  14
HETATM   14  C           1     -21.727  -4.802  -8.543  0.00  0.00     0.186 C 
BRANCH  14  15
HETATM   15  C           1     -20.342  -4.395  -8.983  0.00  0.00     0.196 C 
HETATM   16  O           1     -19.890  -4.799 -10.076  0.00  0.00    -0.646 OA
HETATM   17  O           1     -19.647  -3.653  -8.255  0.00  0.00    -0.646 OA
ENDBRANCH  14  15
BRANCH  14  18
HETATM   18  C           1     -22.741  -3.787  -9.053  0.00  0.00     0.046 C 
BRANCH  18  19
HETATM   19  C           1     -23.346  -4.285 -10.359  0.00  0.00     0.116 C 
BRANCH  19  20
HETATM   20  C           1     -24.505  -3.400 -10.747  0.00  0.00     0.172 C 
HETATM   21  O           1     -24.555  -2.904 -11.893  0.00  0.00    -0.648 OA
HETATM   22  O           1     -25.414  -3.163  -9.923  0.00  0.00    -0.648 OA
ENDBRANCH  19  20
ENDBRANCH  18  19
ENDBRANCH  14  18
ENDBRANCH   2  14
TORSDOF 9
ENDMDL
MODEL 4
REMARK VINA RESULT:      -5.9      3.282      7.663
REMARK  9 active torsions:
REMARK  status: ('A' for Active; 'I' for Inactive)
REMARK       I    between atoms: C_2  and  N_3 
REMARK    1  A    between atoms: C_2  and  C_18 
REMARK    2  A    between atoms: N_3  and  C_21 
REMARK    3  A    between atoms: C_6  and  C_7 
REMARK    4  A    between atoms: C_7  and  C_18 
REMARK    5  A    between atoms: C_8  and  C_14 
REMARK    6  A    between atoms: C_14  and  C_22 
REMARK    7  A    between atoms: C_17  and  C_21 
REMARK    8  A    between atoms: C_18  and  N_19 
REMARK    9  A    between atoms: C_21  and  C_22 
ROOT
HETATM    1  C           1     -21.376  -4.983  -7.377  0.00  0.00     0.249 C 
HETATM    2  N           1     -21.521  -6.040  -6.521  0.00  0.00    -0.345 N 
HETATM    3  O           1     -20.383  -4.297  -7.326  0.00  0.00    -0.271 OA
HETATM    4  H           1     -22.353  -6.615  -6.562  0.00  0.00     0.163 HD
ENDROOT
BRANCH   1   5
HETATM    5  C           1     -22.457  -4.672  -8.382  0.00  0.00     0.275 C 
BRANCH   5   6
HETATM    6  C           1     -21.977  -3.575  -9.324  0.00  0.00     0.046 C 
BRANCH   6   7
HETATM    7  C           1     -21.733  -4.164 -10.707  0.00  0.00    -0.020 C 
HETATM    8  C           1     -22.184  -3.170 -11.770  0.00  0.00     0.009 C 
HETATM    9  C           1     -20.248  -4.453 -10.880  0.00  0.00     0.009 C 
ENDBRANCH   6   7
ENDBRANCH   5   6
BRANCH   5  10
HETATM   10  N           1     -23.690  -4.209  -7.664  0.00  0.00    -0.066 N 
HETATM   11  H           1     -23.513  -3.274  -7.234  0.00  0.00     0.275 HD
HETATM   12  H           1     -23.936  -4.897  -6.916  0.00  0.00     0.275 HD
HETATM   13  H           1     -24.481  -4.135  -8.343  0.00  0.00     0.275 HD
ENDBRANCH   5  10
ENDBRANCH   1   5
BRANCH   2  14
HETATM   14  C           1     -20.483  -6.339  -5.554  0.00  0.00     0.186 C 
BRANCH  14  15
HETATM   15  C           1     -20.332  -7.835  -5.425  0.00  0.00     0.196 C 
HETATM   16  O           1     -21.138  -8.596  -6.000  0.00  0.00    -0.646 OA
HETATM   17  O           1     -19.398  -8.313  -4.743  0.00  0.00    -0.646 OA
ENDBRANCH  14  15
BRANCH  14  18
HETATM   18  C           1     -20.861  -5.748  -4.202  0.00  0.00     0.046 C 
BRANCH  18  19
HETATM   19  C           1     -22.025  -6.533  -3.612  0.00  0.00     0.116 C 
BRANCH  19  20
HETATM   20  C           1     -21.775  -6.777  -2.144  0.00  0.00     0.172 C 
HETATM   21  O           1     -20.818  -7.496  -1.784  0.00  0.00    -0.648 OA
HETATM   22  O           1     -22.525  -6.261  -1.288  0.00  0.00    -0.648 OA
ENDBRANCH  19  20
ENDBRANCH  18  19
ENDBRANCH  14  18
ENDBRANCH   2  14
TORSDOF 9
ENDMDL
MODEL 5
REMARK VINA RESULT:      -5.9     11.872     14.299
REMARK  9 active torsions:
REMARK  status: ('A' for Active; 'I' for Inactive)
REMARK       I    between atoms: C_2  and  N_3 
REMARK    1  A    between atoms: C_2  and  C_18 
REMARK    2  A    between atoms: N_3  and  C_21 
REMARK    3  A    between atoms: C_6  and  C_7 
REMARK    4  A    between atoms: C_7  and  C_18 
REMARK    5  A    between atoms: C_8  and  C_14 
REMARK    6  A    between atoms: C_14  and  C_22 
REMARK    7  A    between atoms: C_17  and  C_21 
REMARK    8  A    between atoms: C_18  and  N_19 
REMARK    9  A    between atoms: C_21  and  C_22 
ROOT
HETATM    1  C           1     -35.230  -1.561 -11.090  0.00  0.00     0.249 C 
HETATM    2  N           1     -35.231  -2.737 -11.789  0.00  0.00    -0.345 N 
HETATM    3  O           1     -34.498  -1.425 -10.138  0.00  0.00    -0.271 OA
HETATM    4  H           1     -35.845  -2.852 -12.587  0.00  0.00     0.163 HD
ENDROOT
BRANCH   1   5
HETATM    5  C           1     -36.143  -0.434 -11.506  0.00  0.00     0.275 C 
BRANCH   5   6
HETATM    6  C           1     -35.436   0.442 -12.533  0.00  0.00     0.046 C 
BRANCH   6   7
HETATM    7  C           1     -35.786  -0.036 -13.935  0.00  0.00    -0.020 C 
HETATM    8  C           1     -37.300  -0.064 -14.100  0.00  0.00     0.009 C 
HETATM    9  C           1     -35.182   0.916 -14.960  0.00  0.00     0.009 C 
ENDBRANCH   6   7
ENDBRANCH   5   6
BRANCH   5  10
HETATM   10  N           1     -36.498   0.392 -10.305  0.00  0.00    -0.066 N 
HETATM   11  H           1     -37.385   0.912 -10.489  0.00  0.00     0.275 HD
HETATM   12  H           1     -35.728   1.073 -10.112  0.00  0.00     0.275 HD
HETATM   13  H           1     -36.627  -0.234  -9.478  0.00  0.00     0.275 HD
ENDBRANCH   5  10
ENDBRANCH   1   5
BRANCH   2  14
HETATM   14  C           1     -34.354  -3.820 -11.390  0.00  0.00     0.186 C 
BRANCH  14  15
HETATM   15  C           1     -33.315  -4.046 -12.461  0.00  0.00     0.196 C 
HETATM   16  O           1     -33.594  -3.824 -13.658  0.00  0.00    -0.646 OA
HETATM   17  O           1     -32.175  -4.456 -12.150  0.00  0.00    -0.646 OA
ENDBRANCH  14  15
BRANCH  14  18
HETATM   18  C           1     -35.170  -5.091 -11.197  0.00  0.00     0.046 C 
BRANCH  18  19
HETATM   19  C           1     -34.710  -5.805  -9.933  0.00  0.00     0.116 C 
BRANCH  19  20
HETATM   20  C           1     -34.265  -7.204 -10.279  0.00  0.00     0.172 C 
HETATM   21  O           1     -35.084  -8.148 -10.241  0.00  0.00    -0.648 OA
HETATM   22  O           1     -33.077  -7.421 -10.603  0.00  0.00    -0.648 OA
ENDBRANCH  19  20
ENDBRANCH  18  19
ENDBRANCH  14  18
ENDBRANCH   2  14
TORSDOF 9
ENDMDL
MODEL 6
REMARK VINA RESULT:      -5.8      5.166      8.194
REMARK  9 active torsions:
REMARK  status: ('A' for Active; 'I' for Inactive)
REMARK       I    between atoms: C_2  and  N_3 
REMARK    1  A    between atoms: C_2  and  C_18 
REMARK    2  A    between atoms: N_3  and  C_21 
REMARK    3  A    between atoms: C_6  and  C_7 
REMARK    4  A    between atoms: C_7  and  C_18 
REMARK    5  A    between atoms: C_8  and  C_14 
REMARK    6  A    between atoms: C_14  and  C_22 
REMARK    7  A    between atoms: C_17  and  C_21 
REMARK    8  A    between atoms: C_18  and  N_19 
REMARK    9  A    between atoms: C_21  and  C_22 
ROOT
HETATM    1  C           1     -20.948  -7.370  -5.326  0.00  0.00     0.249 C 
HETATM    2  N           1     -21.666  -8.018  -4.358  0.00  0.00    -0.345 N 
HETATM    3  O           1     -19.850  -7.771  -5.634  0.00  0.00    -0.271 OA
HETATM    4  H           1     -22.585  -7.682  -4.099  0.00  0.00     0.163 HD
ENDROOT
BRANCH   1   5
HETATM    5  C           1     -21.525  -6.155  -6.008  0.00  0.00     0.275 C 
BRANCH   5   6
HETATM    6  C           1     -20.589  -4.969  -5.812  0.00  0.00     0.046 C 
BRANCH   6   7
HETATM    7  C           1     -20.312  -4.312  -7.157  0.00  0.00    -0.020 C 
HETATM    8  C           1     -18.825  -4.408  -7.474  0.00  0.00     0.009 C 
HETATM    9  C           1     -21.109  -5.025  -8.242  0.00  0.00     0.009 C 
ENDBRANCH   6   7
ENDBRANCH   5   6
BRANCH   5  10
HETATM   10  N           1     -22.865  -5.837  -5.413  0.00  0.00    -0.066 N 
HETATM   11  H           1     -23.031  -4.806  -5.457  0.00  0.00     0.275 HD
HETATM   12  H           1     -22.886  -6.151  -4.416  0.00  0.00     0.275 HD
HETATM   13  H           1     -23.611  -6.333  -5.951  0.00  0.00     0.275 HD
ENDBRANCH   5  10
ENDBRANCH   1   5
BRANCH   2  14
HETATM   14  C           1     -21.112  -9.186  -3.702  0.00  0.00     0.186 C 
BRANCH  14  15
HETATM   15  C           1     -21.784 -10.428  -4.235  0.00  0.00     0.196 C 
HETATM   16  O           1     -21.402 -10.932  -5.312  0.00  0.00    -0.646 OA
HETATM   17  O           1     -22.724 -10.952  -3.598  0.00  0.00    -0.646 OA
ENDBRANCH  14  15
BRANCH  14  18
HETATM   18  C           1     -21.346  -9.086  -2.201  0.00  0.00     0.046 C 
BRANCH  18  19
HETATM   19  C           1     -20.912  -7.711  -1.709  0.00  0.00     0.116 C 
BRANCH  19  20
HETATM   20  C           1     -22.130  -6.848  -1.487  0.00  0.00     0.172 C 
HETATM   21  O           1     -22.846  -7.026  -0.478  0.00  0.00    -0.648 OA
HETATM   22  O           1     -22.422  -5.956  -2.311  0.00  0.00    -0.648 OA
ENDBRANCH  19  20
ENDBRANCH  18  19
ENDBRANCH  14  18
ENDBRANCH   2  14
TORSDOF 9
ENDMDL
MODEL 7
REMARK VINA RESULT:      -5.8      2.879      4.762
REMARK  9 active torsions:
REMARK  status: ('A' for Active; 'I' for Inactive)
REMARK       I    between atoms: C_2  and  N_3 
REMARK    1  A    between atoms: C_2  and  C_18 
REMARK    2  A    between atoms: N_3  and  C_21 
REMARK    3  A    between atoms: C_6  and  C_7 
REMARK    4  A    between atoms: C_7  and  C_18 
REMARK    5  A    between atoms: C_8  and  C_14 
REMARK    6  A    between atoms: C_14  and  C_22 
REMARK    7  A    between atoms: C_17  and  C_21 
REMARK    8  A    between atoms: C_18  and  N_19 
REMARK    9  A    between atoms: C_21  and  C_22 
ROOT
HETATM    1  C           1     -21.436  -6.413  -4.211  0.00  0.00     0.249 C 
HETATM    2  N           1     -21.024  -5.388  -5.018  0.00  0.00    -0.345 N 
HETATM    3  O           1     -21.978  -7.380  -4.692  0.00  0.00    -0.271 OA
HETATM    4  H           1     -20.570  -4.577  -4.616  0.00  0.00     0.163 HD
ENDROOT
BRANCH   1   5
HETATM    5  C           1     -21.216  -6.335  -2.721  0.00  0.00     0.275 C 
BRANCH   5   6
HETATM    6  C           1     -20.771  -7.696  -2.200  0.00  0.00     0.046 C 
BRANCH   6   7
HETATM    7  C           1     -21.824  -8.245  -1.248  0.00  0.00    -0.020 C 
HETATM    8  C           1     -22.196  -9.663  -1.664  0.00  0.00     0.009 C 
HETATM    9  C           1     -21.267  -8.262   0.169  0.00  0.00     0.009 C 
ENDBRANCH   6   7
ENDBRANCH   5   6
BRANCH   5  10
HETATM   10  N           1     -22.495  -5.937  -2.046  0.00  0.00    -0.066 N 
HETATM   11  H           1     -23.260  -5.877  -2.755  0.00  0.00     0.275 HD
HETATM   12  H           1     -22.371  -5.006  -1.587  0.00  0.00     0.275 HD
HETATM   13  H           1     -22.746  -6.651  -1.325  0.00  0.00     0.275 HD
ENDBRANCH   5  10
ENDBRANCH   1   5
BRANCH   2  14
HETATM   14  C           1     -21.236  -5.462  -6.451  0.00  0.00     0.186 C 
BRANCH  14  15
HETATM   15  C           1     -19.923  -5.750  -7.138  0.00  0.00     0.196 C 
HETATM   16  O           1     -19.359  -4.858  -7.806  0.00  0.00    -0.646 OA
HETATM   17  O           1     -19.401  -6.882  -7.039  0.00  0.00    -0.646 OA
ENDBRANCH  14  15
BRANCH  14  18
HETATM   18  C           1     -21.791  -4.136  -6.952  0.00  0.00     0.046 C 
BRANCH  18  19
HETATM   19  C           1     -23.158  -4.363  -7.583  0.00  0.00     0.116 C 
BRANCH  19  20
HETATM   20  C           1     -23.145  -3.866  -9.008  0.00  0.00     0.172 C 
HETATM   21  O           1     -24.155  -3.303  -9.482  0.00  0.00    -0.648 OA
HETATM   22  O           1     -22.124  -4.016  -9.712  0.00  0.00    -0.648 OA
ENDBRANCH  19  20
ENDBRANCH  18  19
ENDBRANCH  14  18
ENDBRANCH   2  14
TORSDOF 9
ENDMDL
MODEL 8
REMARK VINA RESULT:      -5.4      3.878      7.876
REMARK  9 active torsions:
REMARK  status: ('A' for Active; 'I' for Inactive)
REMARK       I    between atoms: C_2  and  N_3 
REMARK    1  A    between atoms: C_2  and  C_18 
REMARK    2  A    between atoms: N_3  and  C_21 
REMARK    3  A    between atoms: C_6  and  C_7 
REMARK    4  A    between atoms: C_7  and  C_18 
REMARK    5  A    between atoms: C_8  and  C_14 
REMARK    6  A    between atoms: C_14  and  C_22 
REMARK    7  A    between atoms: C_17  and  C_21 
REMARK    8  A    between atoms: C_18  and  N_19 
REMARK    9  A    between atoms: C_21  and  C_22 
ROOT
HETATM    1  C           1     -21.626  -5.671  -5.660  0.00  0.00     0.249 C 
HETATM    2  N           1     -20.923  -6.495  -4.823  0.00  0.00    -0.345 N 
HETATM    3  O           1     -22.833  -5.707  -5.669  0.00  0.00    -0.271 OA
HETATM    4  H           1     -19.911  -6.466  -4.816  0.00  0.00     0.163 HD
ENDROOT
BRANCH   1   5
HETATM    5  C           1     -20.892  -4.719  -6.573  0.00  0.00     0.275 C 
BRANCH   5   6
HETATM    6  C           1     -20.953  -5.238  -8.004  0.00  0.00     0.046 C 
BRANCH   6   7
HETATM    7  C           1     -21.321  -4.098  -8.943  0.00  0.00    -0.020 C 
HETATM    8  C           1     -20.531  -4.230 -10.238  0.00  0.00     0.009 C 
HETATM    9  C           1     -22.812  -4.155  -9.249  0.00  0.00     0.009 C 
ENDBRANCH   6   7
ENDBRANCH   5   6
BRANCH   5  10
HETATM   10  N           1     -19.460  -4.615  -6.140  0.00  0.00    -0.066 N 
HETATM   11  H           1     -19.222  -3.613  -5.960  0.00  0.00     0.275 HD
HETATM   12  H           1     -18.840  -4.990  -6.894  0.00  0.00     0.275 HD
HETATM   13  H           1     -19.319  -5.168  -5.265  0.00  0.00     0.275 HD
ENDBRANCH   5  10
ENDBRANCH   1   5
BRANCH   2  14
HETATM   14  C           1     -21.626  -7.410  -3.946  0.00  0.00     0.186 C 
BRANCH  14  15
HETATM   15  C           1     -21.630  -6.857  -2.542  0.00  0.00     0.196 C 
HETATM   16  O           1     -22.374  -5.897  -2.250  0.00  0.00    -0.646 OA
HETATM   17  O           1     -20.888  -7.360  -1.670  0.00  0.00    -0.646 OA
ENDBRANCH  14  15
BRANCH  14  18
HETATM   18  C           1     -20.928  -8.763  -3.958  0.00  0.00     0.046 C 
BRANCH  18  19
HETATM   19  C           1     -19.661  -8.675  -4.797  0.00  0.00     0.116 C 
BRANCH  19  20
HETATM   20  C           1     -18.506  -9.271  -4.031  0.00  0.00     0.172 C 
HETATM   21  O           1     -18.550  -9.332  -2.783  0.00  0.00    -0.648 OA
HETATM   22  O           1     -17.506  -9.703  -4.643  0.00  0.00    -0.648 OA
ENDBRANCH  19  20
ENDBRANCH  18  19
ENDBRANCH  14  18
ENDBRANCH   2  14
TORSDOF 9
ENDMDL
MODEL 9
REMARK VINA RESULT:      -5.4      5.963      8.556
REMARK  9 active torsions:
REMARK  status: ('A' for Active; 'I' for Inactive)
REMARK       I    between atoms: C_2  and  N_3 
REMARK    1  A    between atoms: C_2  and  C_18 
REMARK    2  A    between atoms: N_3  and  C_21 
REMARK    3  A    between atoms: C_6  and  C_7 
REMARK    4  A    between atoms: C_7  and  C_18 
REMARK    5  A    between atoms: C_8  and  C_14 
REMARK    6  A    between atoms: C_14  and  C_22 
REMARK    7  A    between atoms: C_17  and  C_21 
REMARK    8  A    between atoms: C_18  and  N_19 
REMARK    9  A    between atoms: C_21  and  C_22 
ROOT
HETATM    1  C           1     -20.478  -9.978  -1.580  0.00  0.00     0.249 C 
HETATM    2  N           1     -21.510  -9.105  -1.795  0.00  0.00    -0.345 N 
HETATM    3  O           1     -19.354  -9.676  -1.901  0.00  0.00    -0.271 OA
HETATM    4  H           1     -22.452  -9.359  -1.527  0.00  0.00     0.163 HD
ENDROOT
BRANCH   1   5
HETATM    5  C           1     -20.746 -11.320  -0.943  0.00  0.00     0.275 C 
BRANCH   5   6
HETATM    6  C           1     -21.700 -11.145   0.231  0.00  0.00     0.046 C 
BRANCH   6   7
HETATM    7  C           1     -22.993 -11.900  -0.048  0.00  0.00    -0.020 C 
HETATM    8  C           1     -23.225 -12.933   1.047  0.00  0.00     0.009 C 
HETATM    9  C           1     -24.157 -10.919  -0.076  0.00  0.00     0.009 C 
ENDBRANCH   6   7
ENDBRANCH   5   6
BRANCH   5  10
HETATM   10  N           1     -19.455 -11.907  -0.454  0.00  0.00    -0.066 N 
HETATM   11  H           1     -19.548 -12.163   0.555  0.00  0.00     0.275 HD
HETATM   12  H           1     -18.688 -11.205  -0.567  0.00  0.00     0.275 HD
HETATM   13  H           1     -19.229 -12.763  -1.009  0.00  0.00     0.275 HD
ENDBRANCH   5  10
ENDBRANCH   1   5
BRANCH   2  14
HETATM   14  C           1     -21.254  -7.816  -2.407  0.00  0.00     0.186 C 
BRANCH  14  15
HETATM   15  C           1     -22.101  -6.763  -1.735  0.00  0.00     0.196 C 
HETATM   16  O           1     -22.197  -5.624  -2.238  0.00  0.00    -0.646 OA
HETATM   17  O           1     -22.707  -7.032  -0.675  0.00  0.00    -0.646 OA
ENDBRANCH  14  15
BRANCH  14  18
HETATM   18  C           1     -21.601  -7.878  -3.888  0.00  0.00     0.046 C 
BRANCH  18  19
HETATM   19  C           1     -20.323  -7.808  -4.714  0.00  0.00     0.116 C 
BRANCH  19  20
HETATM   20  C           1     -20.390  -6.623  -5.646  0.00  0.00     0.172 C 
HETATM   21  O           1     -19.921  -6.710  -6.801  0.00  0.00    -0.648 OA
HETATM   22  O           1     -20.915  -5.555  -5.263  0.00  0.00    -0.648 OA
ENDBRANCH  19  20
ENDBRANCH  18  19
ENDBRANCH  14  18
ENDBRANCH   2  14
TORSDOF 9
ENDMDL
