MODEL 1
REMARK VINA RESULT:      -7.7      0.000      0.000
REMARK  11 active torsions:
REMARK  status: ('A' for Active; 'I' for Inactive)
REMARK    1  A    between atoms: Se_1  and  C_2 
REMARK    2  A    between atoms: C_2  and  C_3 
REMARK    3  A    between atoms: C_3  and  C_4 
REMARK    4  A    between atoms: C_3  and  N_7 
REMARK       I    between atoms: N_7  and  C_8 
REMARK    5  A    between atoms: C_8  and  C_9 
REMARK    6  A    between atoms: C_9  and  C_10 
REMARK    7  A    between atoms: C_9  and  N_22 
REMARK    8  A    between atoms: C_10  and  C_11 
REMARK    9  A    between atoms: C_14  and  O_15 
REMARK   10  A    between atoms: O_15  and  P_16 
REMARK   11  A    between atoms: P_16  and  O_17 
ROOT
HETATM    1  C           1     -20.845  -4.807  -6.585  0.00  0.00     0.278 C 
ENDROOT
BRANCH   1   2
HETATM    2  C           1     -21.632  -5.706  -5.663  0.00  0.00     0.249 C 
HETATM    3  N           1     -20.979  -6.581  -4.837  0.00  0.00    -0.345 N 
HETATM    4  H           1     -19.968  -6.625  -4.846  0.00  0.00     0.163 HD
HETATM    5  O           1     -22.840  -5.653  -5.653  0.00  0.00    -0.271 OA
BRANCH   3   6
HETATM    6  C           1     -21.734  -7.444  -3.952  0.00  0.00     0.185 C 
BRANCH   6   7
HETATM    7  C           1     -21.154  -8.852  -3.997  0.00  0.00     0.039 C 
BRANCH   7   8
HETATM    8 Se           1     -19.414  -8.810  -4.873  0.00  0.00     0.000 Se
HETATM    9  H           1     -19.389  -7.345  -5.011  0.00  0.00     0.000 HD
ENDBRANCH   7   8
ENDBRANCH   6   7
BRANCH   6  10
HETATM   10  C           1     -21.654  -6.913  -2.541  0.00  0.00     0.196 C 
HETATM   11  O           1     -20.881  -7.447  -1.716  0.00  0.00    -0.646 OA
HETATM   12  O           1     -22.361  -5.942  -2.198  0.00  0.00    -0.646 OA
ENDBRANCH   6  10
ENDBRANCH   3   6
ENDBRANCH   1   2
BRANCH   1  13
HETATM   13  C           1     -20.607  -5.520  -7.909  0.00  0.00     0.081 C 
BRANCH  13  14
HETATM   14  C           1     -21.206  -4.720  -9.023  0.00  0.00    -0.056 A 
HETATM   15  C           1     -20.436  -4.397 -10.141  0.00  0.00     0.010 A 
HETATM   16  C           1     -20.993  -3.651 -11.180  0.00  0.00     0.038 A 
HETATM   17  C           1     -22.320  -3.227 -11.100  0.00  0.00     0.081 A 
HETATM   18  C           1     -23.089  -3.549  -9.982  0.00  0.00     0.038 A 
HETATM   19  C           1     -22.532  -4.295  -8.944  0.00  0.00     0.010 A 
BRANCH  17  20
HETATM   20  O           1     -22.861  -2.502 -12.109  0.00  0.00    -0.247 OA
BRANCH  20  21
HETATM   21  P           1     -23.935  -3.228 -13.073  0.00  0.00     0.411 P 
HETATM   22  O           1     -25.304  -2.828 -12.674  0.00  0.00    -0.624 OA
HETATM   23  O           1     -23.690  -2.824 -14.475  0.00  0.00    -0.624 OA
BRANCH  21  24
HETATM   24  O           1     -23.784  -4.830 -12.938  0.00  0.00    -0.300 OA
HETATM   25  H           1     -24.280  -5.058 -12.170  0.00  0.00     0.223 HD
ENDBRANCH  21  24
ENDBRANCH  20  21
ENDBRANCH  17  20
ENDBRANCH  13  14
ENDBRANCH   1  13
BRANCH   1  26
HETATM   26  N           1     -19.526  -4.474  -5.953  0.00  0.00    -0.066 N 
HETATM   27  H           1     -18.774  -5.052  -6.390  0.00  0.00     0.275 HD
HETATM   28  H           1     -19.317  -3.461  -6.099  0.00  0.00     0.275 HD
HETATM   29  H           1     -19.570  -4.677  -4.928  0.00  0.00     0.275 HD
ENDBRANCH   1  26
TORSDOF 11
ENDMDL
MODEL 2
REMARK VINA RESULT:      -6.8      3.949      9.003
REMARK  11 active torsions:
REMARK  status: ('A' for Active; 'I' for Inactive)
REMARK    1  A    between atoms: Se_1  and  C_2 
REMARK    2  A    between atoms: C_2  and  C_3 
REMARK    3  A    between atoms: C_3  and  C_4 
REMARK    4  A    between atoms: C_3  and  N_7 
REMARK       I    between atoms: N_7  and  C_8 
REMARK    5  A    between atoms: C_8  and  C_9 
REMARK    6  A    between atoms: C_9  and  C_10 
REMARK    7  A    between atoms: C_9  and  N_22 
REMARK    8  A    between atoms: C_10  and  C_11 
REMARK    9  A    between atoms: C_14  and  O_15 
REMARK   10  A    between atoms: O_15  and  P_16 
REMARK   11  A    between atoms: P_16  and  O_17 
ROOT
HETATM    1  C           1     -22.496  -4.965  -6.421  0.00  0.00     0.278 C 
ENDROOT
BRANCH   1   2
HETATM    2  C           1     -22.323  -4.226  -7.725  0.00  0.00     0.249 C 
HETATM    3  N           1     -23.278  -4.328  -8.701  0.00  0.00    -0.345 N 
HETATM    4  H           1     -24.100  -4.898  -8.547  0.00  0.00     0.163 HD
HETATM    5  O           1     -21.342  -3.546  -7.909  0.00  0.00    -0.271 OA
BRANCH   3   6
HETATM    6  C           1     -23.112  -3.619  -9.954  0.00  0.00     0.185 C 
BRANCH   6   7
HETATM    7  C           1     -22.384  -4.512 -10.951  0.00  0.00     0.039 C 
BRANCH   7   8
HETATM    8 Se           1     -20.609  -3.786 -11.298  0.00  0.00     0.000 Se
HETATM    9  H           1     -20.111  -5.006 -11.955  0.00  0.00     0.000 HD
ENDBRANCH   7   8
ENDBRANCH   6   7
BRANCH   6  10
HETATM   10  C           1     -24.468  -3.251 -10.508  0.00  0.00     0.196 C 
HETATM   11  O           1     -25.464  -3.223  -9.753  0.00  0.00    -0.646 OA
HETATM   12  O           1     -24.594  -2.976 -11.720  0.00  0.00    -0.646 OA
ENDBRANCH   6  10
ENDBRANCH   3   6
ENDBRANCH   1   2
BRANCH   1  13
HETATM   13  C           1     -21.737  -6.284  -6.479  0.00  0.00     0.081 C 
BRANCH  13  14
HETATM   14  C           1     -21.511  -6.793  -5.089  0.00  0.00    -0.056 A 
HETATM   15  C           1     -21.242  -5.897  -4.054  0.00  0.00     0.010 A 
HETATM   16  C           1     -21.032  -6.370  -2.759  0.00  0.00     0.038 A 
HETATM   17  C           1     -21.088  -7.739  -2.499  0.00  0.00     0.081 A 
HETATM   18  C           1     -21.356  -8.635  -3.534  0.00  0.00     0.038 A 
HETATM   19  C           1     -21.567  -8.162  -4.829  0.00  0.00     0.010 A 
BRANCH  17  20
HETATM   20  O           1     -20.884  -8.199  -1.242  0.00  0.00    -0.247 OA
BRANCH  20  21
HETATM   21  P           1     -22.151  -8.261  -0.241  0.00  0.00     0.411 P 
HETATM   22  O           1     -21.671  -8.291   1.159  0.00  0.00    -0.624 OA
HETATM   23  O           1     -23.000  -7.066  -0.447  0.00  0.00    -0.624 OA
BRANCH  21  24
HETATM   24  O           1     -23.012  -9.592  -0.543  0.00  0.00    -0.300 OA
HETATM   25  H           1     -23.781  -9.288  -0.994  0.00  0.00     0.223 HD
ENDBRANCH  21  24
ENDBRANCH  20  21
ENDBRANCH  17  20
ENDBRANCH  13  14
ENDBRANCH   1  13
BRANCH   1  26
HETATM   26  N           1     -23.953  -5.236  -6.189  0.00  0.00    -0.066 N 
HETATM   27  H           1     -24.321  -5.842  -6.957  0.00  0.00     0.275 HD
HETATM   28  H           1     -24.073  -5.724  -5.272  0.00  0.00     0.275 HD
HETATM   29  H           1     -24.477  -4.332  -6.175  0.00  0.00     0.275 HD
ENDBRANCH   1  26
TORSDOF 11
ENDMDL
MODEL 3
REMARK VINA RESULT:      -6.8      2.342      3.027
REMARK  11 active torsions:
REMARK  status: ('A' for Active; 'I' for Inactive)
REMARK    1  A    between atoms: Se_1  and  C_2 
REMARK    2  A    between atoms: C_2  and  C_3 
REMARK    3  A    between atoms: C_3  and  C_4 
REMARK    4  A    between atoms: C_3  and  N_7 
REMARK       I    between atoms: N_7  and  C_8 
REMARK    5  A    between atoms: C_8  and  C_9 
REMARK    6  A    between atoms: C_9  and  C_10 
REMARK    7  A    between atoms: C_9  and  N_22 
REMARK    8  A    between atoms: C_10  and  C_11 
REMARK    9  A    between atoms: C_14  and  O_15 
REMARK   10  A    between atoms: O_15  and  P_16 
REMARK   11  A    between atoms: P_16  and  O_17 
ROOT
HETATM    1  C           1     -21.557  -6.696  -5.249  0.00  0.00     0.278 C 
ENDROOT
BRANCH   1   2
HETATM    2  C           1     -21.132  -8.112  -4.946  0.00  0.00     0.249 C 
HETATM    3  N           1     -21.491  -8.696  -3.762  0.00  0.00    -0.345 N 
HETATM    4  H           1     -22.041  -8.178  -3.089  0.00  0.00     0.163 HD
HETATM    5  O           1     -20.474  -8.731  -5.750  0.00  0.00    -0.271 OA
BRANCH   3   6
HETATM    6  C           1     -21.082 -10.055  -3.470  0.00  0.00     0.185 C 
BRANCH   6   7
HETATM    7  C           1     -20.544 -10.132  -2.047  0.00  0.00     0.039 C 
BRANCH   7   8
HETATM    8 Se           1     -20.959  -8.477  -1.106  0.00  0.00     0.000 Se
HETATM    9  H           1     -20.463  -7.603  -2.182  0.00  0.00     0.000 HD
ENDBRANCH   7   8
ENDBRANCH   6   7
BRANCH   6  10
HETATM   10  C           1     -22.268 -10.978  -3.608  0.00  0.00     0.196 C 
HETATM   11  O           1     -23.063 -11.121  -2.652  0.00  0.00    -0.646 OA
HETATM   12  O           1     -22.456 -11.600  -4.675  0.00  0.00    -0.646 OA
ENDBRANCH   6  10
ENDBRANCH   3   6
ENDBRANCH   1   2
BRANCH   1  13
HETATM   13  C           1     -20.417  -5.960  -5.942  0.00  0.00     0.081 C 
BRANCH  13  14
HETATM   14  C           1     -20.940  -5.258  -7.156  0.00  0.00    -0.056 A 
HETATM   15  C           1     -20.159  -5.184  -8.310  0.00  0.00     0.010 A 
HETATM   16  C           1     -20.645  -4.529  -9.441  0.00  0.00     0.038 A 
HETATM   17  C           1     -21.912  -3.947  -9.418  0.00  0.00     0.081 A 
HETATM   18  C           1     -22.693  -4.020  -8.265  0.00  0.00     0.038 A 
HETATM   19  C           1     -22.207  -4.675  -7.134  0.00  0.00     0.010 A 
BRANCH  17  20
HETATM   20  O           1     -22.385  -3.311 -10.517  0.00  0.00    -0.247 OA
BRANCH  20  21
HETATM   21  P           1     -23.652  -3.959 -11.283  0.00  0.00     0.411 P 
HETATM   22  O           1     -23.841  -5.355 -10.827  0.00  0.00    -0.624 OA
HETATM   23  O           1     -24.867  -3.170 -10.979  0.00  0.00    -0.624 OA
BRANCH  21  24
HETATM   24  O           1     -23.383  -3.945 -12.874  0.00  0.00    -0.300 OA
HETATM   25  H           1     -23.805  -3.162 -13.186  0.00  0.00     0.223 HD
ENDBRANCH  21  24
ENDBRANCH  20  21
ENDBRANCH  17  20
ENDBRANCH  13  14
ENDBRANCH   1  13
BRANCH   1  26
HETATM   26  N           1     -21.901  -5.993  -3.970  0.00  0.00    -0.066 N 
HETATM   27  H           1     -21.129  -5.338  -3.714  0.00  0.00     0.275 HD
HETATM   28  H           1     -22.787  -5.455  -4.097  0.00  0.00     0.275 HD
HETATM   29  H           1     -22.027  -6.698  -3.208  0.00  0.00     0.275 HD
ENDBRANCH   1  26
TORSDOF 11
ENDMDL
MODEL 4
REMARK VINA RESULT:      -6.8      1.985      2.930
REMARK  11 active torsions:
REMARK  status: ('A' for Active; 'I' for Inactive)
REMARK    1  A    between atoms: Se_1  and  C_2 
REMARK    2  A    between atoms: C_2  and  C_3 
REMARK    3  A    between atoms: C_3  and  C_4 
REMARK    4  A    between atoms: C_3  and  N_7 
REMARK       I    between atoms: N_7  and  C_8 
REMARK    5  A    between atoms: C_8  and  C_9 
REMARK    6  A    between atoms: C_9  and  C_10 
REMARK    7  A    between atoms: C_9  and  N_22 
REMARK    8  A    between atoms: C_10  and  C_11 
REMARK    9  A    between atoms: C_14  and  O_15 
REMARK   10  A    between atoms: O_15  and  P_16 
REMARK   11  A    between atoms: P_16  and  O_17 
ROOT
HETATM    1  C           1     -21.482  -6.533  -5.300  0.00  0.00     0.278 C 
ENDROOT
BRANCH   1   2
HETATM    2  C           1     -20.900  -7.915  -5.133  0.00  0.00     0.249 C 
HETATM    3  N           1     -20.130  -8.207  -4.040  0.00  0.00    -0.345 N 
HETATM    4  H           1     -19.951  -7.495  -3.343  0.00  0.00     0.163 HD
HETATM    5  O           1     -21.113  -8.765  -5.966  0.00  0.00    -0.271 OA
BRANCH   3   6
HETATM    6  C           1     -19.570  -9.534  -3.880  0.00  0.00     0.185 C 
BRANCH   6   7
HETATM    7  C           1     -18.091  -9.510  -4.245  0.00  0.00     0.039 C 
BRANCH   7   8
HETATM    8 Se           1     -17.824 -10.440  -5.937  0.00  0.00     0.000 Se
HETATM    9  H           1     -16.643  -9.648  -6.319  0.00  0.00     0.000 HD
ENDBRANCH   7   8
ENDBRANCH   6   7
BRANCH   6  10
HETATM   10  C           1     -19.725  -9.976  -2.445  0.00  0.00     0.196 C 
HETATM   11  O           1     -20.485  -9.348  -1.676  0.00  0.00    -0.646 OA
HETATM   12  O           1     -19.093 -10.969  -2.026  0.00  0.00    -0.646 OA
ENDBRANCH   6  10
ENDBRANCH   3   6
ENDBRANCH   1   2
BRANCH   1  13
HETATM   13  C           1     -20.427  -5.604  -5.886  0.00  0.00     0.081 C 
BRANCH  13  14
HETATM   14  C           1     -20.943  -4.997  -7.153  0.00  0.00    -0.056 A 
HETATM   15  C           1     -22.211  -4.415  -7.181  0.00  0.00     0.010 A 
HETATM   16  C           1     -22.693  -3.849  -8.361  0.00  0.00     0.038 A 
HETATM   17  C           1     -21.908  -3.866  -9.514  0.00  0.00     0.081 A 
HETATM   18  C           1     -20.640  -4.448  -9.486  0.00  0.00     0.038 A 
HETATM   19  C           1     -20.158  -5.014  -8.306  0.00  0.00     0.010 A 
BRANCH  17  20
HETATM   20  O           1     -22.375  -3.316 -10.660  0.00  0.00    -0.247 OA
BRANCH  20  21
HETATM   21  P           1     -23.666  -3.995 -11.355  0.00  0.00     0.411 P 
HETATM   22  O           1     -23.848  -5.365 -10.825  0.00  0.00    -0.624 OA
HETATM   23  O           1     -24.869  -3.185 -11.056  0.00  0.00    -0.624 OA
BRANCH  21  24
HETATM   24  O           1     -23.445  -4.061 -12.953  0.00  0.00    -0.300 OA
HETATM   25  H           1     -23.858  -3.283 -13.289  0.00  0.00     0.223 HD
ENDBRANCH  21  24
ENDBRANCH  20  21
ENDBRANCH  17  20
ENDBRANCH  13  14
ENDBRANCH   1  13
BRANCH   1  26
HETATM   26  N           1     -21.921  -6.011  -3.964  0.00  0.00    -0.066 N 
HETATM   27  H           1     -22.610  -5.238  -4.100  0.00  0.00     0.275 HD
HETATM   28  H           1     -22.366  -6.783  -3.418  0.00  0.00     0.275 HD
HETATM   29  H           1     -21.090  -5.649  -3.442  0.00  0.00     0.275 HD
ENDBRANCH   1  26
TORSDOF 11
ENDMDL
MODEL 5
REMARK VINA RESULT:      -6.3      2.682      3.477
REMARK  11 active torsions:
REMARK  status: ('A' for Active; 'I' for Inactive)
REMARK    1  A    between atoms: Se_1  and  C_2 
REMARK    2  A    between atoms: C_2  and  C_3 
REMARK    3  A    between atoms: C_3  and  C_4 
REMARK    4  A    between atoms: C_3  and  N_7 
REMARK       I    between atoms: N_7  and  C_8 
REMARK    5  A    between atoms: C_8  and  C_9 
REMARK    6  A    between atoms: C_9  and  C_10 
REMARK    7  A    between atoms: C_9  and  N_22 
REMARK    8  A    between atoms: C_10  and  C_11 
REMARK    9  A    between atoms: C_14  and  O_15 
REMARK   10  A    between atoms: O_15  and  P_16 
REMARK   11  A    between atoms: P_16  and  O_17 
ROOT
HETATM    1  C           1     -21.528  -6.842  -5.028  0.00  0.00     0.278 C 
ENDROOT
BRANCH   1   2
HETATM    2  C           1     -21.224  -8.286  -4.711  0.00  0.00     0.249 C 
HETATM    3  N           1     -20.600  -9.074  -5.640  0.00  0.00    -0.345 N 
HETATM    4  H           1     -20.342  -8.688  -6.539  0.00  0.00     0.163 HD
HETATM    5  O           1     -21.533  -8.747  -3.637  0.00  0.00    -0.271 OA
BRANCH   3   6
HETATM    6  C           1     -20.309 -10.461  -5.336  0.00  0.00     0.185 C 
BRANCH   6   7
HETATM    7  C           1     -21.273 -11.362  -6.098  0.00  0.00     0.039 C 
BRANCH   7   8
HETATM    8 Se           1     -22.429 -12.291  -4.835  0.00  0.00     0.000 Se
HETATM    9  H           1     -23.467 -12.599  -5.833  0.00  0.00     0.000 HD
ENDBRANCH   7   8
ENDBRANCH   6   7
BRANCH   6  10
HETATM   10  C           1     -18.892 -10.780  -5.748  0.00  0.00     0.196 C 
HETATM   11  O           1     -18.182  -9.898  -6.278  0.00  0.00    -0.646 OA
HETATM   12  O           1     -18.430 -11.926  -5.562  0.00  0.00    -0.646 OA
ENDBRANCH   6  10
ENDBRANCH   3   6
ENDBRANCH   1   2
BRANCH   1  13
HETATM   13  C           1     -20.468  -6.296  -5.976  0.00  0.00     0.081 C 
BRANCH  13  14
HETATM   14  C           1     -21.121  -5.443  -7.019  0.00  0.00    -0.056 A 
HETATM   15  C           1     -20.439  -5.139  -8.197  0.00  0.00     0.010 A 
HETATM   16  C           1     -21.047  -4.345  -9.169  0.00  0.00     0.038 A 
HETATM   17  C           1     -22.336  -3.853  -8.963  0.00  0.00     0.081 A 
HETATM   18  C           1     -23.018  -4.158  -7.784  0.00  0.00     0.038 A 
HETATM   19  C           1     -22.410  -4.952  -6.812  0.00  0.00     0.010 A 
BRANCH  17  20
HETATM   20  O           1     -22.926  -3.082  -9.906  0.00  0.00    -0.247 OA
BRANCH  20  21
HETATM   21  P           1     -23.612  -3.821 -11.170  0.00  0.00     0.411 P 
HETATM   22  O           1     -24.894  -3.155 -11.492  0.00  0.00    -0.624 OA
HETATM   23  O           1     -22.706  -3.741 -12.338  0.00  0.00    -0.624 OA
BRANCH  21  24
HETATM   24  O           1     -23.886  -5.369 -10.805  0.00  0.00    -0.300 OA
HETATM   25  H           1     -23.263  -5.854 -11.319  0.00  0.00     0.223 HD
ENDBRANCH  21  24
ENDBRANCH  20  21
ENDBRANCH  17  20
ENDBRANCH  13  14
ENDBRANCH   1  13
BRANCH   1  26
HETATM   26  N           1     -21.524  -6.041  -3.760  0.00  0.00    -0.066 N 
HETATM   27  H           1     -21.262  -6.658  -2.958  0.00  0.00     0.275 HD
HETATM   28  H           1     -20.832  -5.263  -3.842  0.00  0.00     0.275 HD
HETATM   29  H           1     -22.478  -5.644  -3.597  0.00  0.00     0.275 HD
ENDBRANCH   1  26
TORSDOF 11
ENDMDL
MODEL 6
REMARK VINA RESULT:      -6.0      2.740      3.634
REMARK  11 active torsions:
REMARK  status: ('A' for Active; 'I' for Inactive)
REMARK    1  A    between atoms: Se_1  and  C_2 
REMARK    2  A    between atoms: C_2  and  C_3 
REMARK    3  A    between atoms: C_3  and  C_4 
REMARK    4  A    between atoms: C_3  and  N_7 
REMARK       I    between atoms: N_7  and  C_8 
REMARK    5  A    between atoms: C_8  and  C_9 
REMARK    6  A    between atoms: C_9  and  C_10 
REMARK    7  A    between atoms: C_9  and  N_22 
REMARK    8  A    between atoms: C_10  and  C_11 
REMARK    9  A    between atoms: C_14  and  O_15 
REMARK   10  A    between atoms: O_15  and  P_16 
REMARK   11  A    between atoms: P_16  and  O_17 
ROOT
HETATM    1  C           1     -21.148  -7.752  -5.661  0.00  0.00     0.278 C 
ENDROOT
BRANCH   1   2
HETATM    2  C           1     -20.222  -8.915  -5.403  0.00  0.00     0.249 C 
HETATM    3  N           1     -18.975  -8.694  -4.884  0.00  0.00    -0.345 N 
HETATM    4  H           1     -18.674  -7.751  -4.673  0.00  0.00     0.163 HD
HETATM    5  O           1     -20.581 -10.041  -5.656  0.00  0.00    -0.271 OA
BRANCH   3   6
HETATM    6  C           1     -18.085  -9.811  -4.637  0.00  0.00     0.185 C 
BRANCH   6   7
HETATM    7  C           1     -16.927  -9.768  -5.627  0.00  0.00     0.039 C 
BRANCH   7   8
HETATM    8 Se           1     -16.306 -11.582  -5.979  0.00  0.00     0.000 Se
HETATM    9  H           1     -17.289 -12.216  -5.085  0.00  0.00     0.000 HD
ENDBRANCH   7   8
ENDBRANCH   6   7
BRANCH   6  10
HETATM   10  C           1     -17.544  -9.723  -3.230  0.00  0.00     0.196 C 
HETATM   11  O           1     -16.344  -9.431  -3.039  0.00  0.00    -0.646 OA
HETATM   12  O           1     -18.297  -9.943  -2.257  0.00  0.00    -0.646 OA
ENDBRANCH   6  10
ENDBRANCH   3   6
ENDBRANCH   1   2
BRANCH   1  13
HETATM   13  C           1     -20.332  -6.477  -5.822  0.00  0.00     0.081 C 
BRANCH  13  14
HETATM   14  C           1     -20.950  -5.617  -6.880  0.00  0.00    -0.056 A 
HETATM   15  C           1     -20.284  -5.410  -8.088  0.00  0.00     0.010 A 
HETATM   16  C           1     -20.860  -4.609  -9.074  0.00  0.00     0.038 A 
HETATM   17  C           1     -22.101  -4.013  -8.852  0.00  0.00     0.081 A 
HETATM   18  C           1     -22.767  -4.219  -7.643  0.00  0.00     0.038 A 
HETATM   19  C           1     -22.191  -5.020  -6.658  0.00  0.00     0.010 A 
BRANCH  17  20
HETATM   20  O           1     -22.660  -3.235  -9.809  0.00  0.00    -0.247 OA
BRANCH  20  21
HETATM   21  P           1     -23.517  -3.960 -10.971  0.00  0.00     0.411 P 
HETATM   22  O           1     -22.710  -4.023 -12.211  0.00  0.00    -0.624 OA
HETATM   23  O           1     -23.870  -5.331 -10.540  0.00  0.00    -0.624 OA
BRANCH  21  24
HETATM   24  O           1     -24.866  -3.119 -11.250  0.00  0.00    -0.300 OA
HETATM   25  H           1     -25.096  -3.316 -12.142  0.00  0.00     0.223 HD
ENDBRANCH  21  24
ENDBRANCH  20  21
ENDBRANCH  17  20
ENDBRANCH  13  14
ENDBRANCH   1  13
BRANCH   1  26
HETATM   26  N           1     -22.091  -7.598  -4.504  0.00  0.00    -0.066 N 
HETATM   27  H           1     -21.855  -8.298  -3.765  0.00  0.00     0.275 HD
HETATM   28  H           1     -22.004  -6.634  -4.111  0.00  0.00     0.275 HD
HETATM   29  H           1     -23.072  -7.754  -4.831  0.00  0.00     0.275 HD
ENDBRANCH   1  26
TORSDOF 11
ENDMDL
MODEL 7
REMARK VINA RESULT:      -5.8     13.554     16.438
REMARK  11 active torsions:
REMARK  status: ('A' for Active; 'I' for Inactive)
REMARK    1  A    between atoms: Se_1  and  C_2 
REMARK    2  A    between atoms: C_2  and  C_3 
REMARK    3  A    between atoms: C_3  and  C_4 
REMARK    4  A    between atoms: C_3  and  N_7 
REMARK       I    between atoms: N_7  and  C_8 
REMARK    5  A    between atoms: C_8  and  C_9 
REMARK    6  A    between atoms: C_9  and  C_10 
REMARK    7  A    between atoms: C_9  and  N_22 
REMARK    8  A    between atoms: C_10  and  C_11 
REMARK    9  A    between atoms: C_14  and  O_15 
REMARK   10  A    between atoms: O_15  and  P_16 
REMARK   11  A    between atoms: P_16  and  O_17 
ROOT
HETATM    1  C           1     -36.095  -0.319 -11.638  0.00  0.00     0.278 C 
ENDROOT
BRANCH   1   2
HETATM    2  C           1     -36.896  -0.418 -12.913  0.00  0.00     0.249 C 
HETATM    3  N           1     -36.288  -0.209 -14.121  0.00  0.00    -0.345 N 
HETATM    4  H           1     -35.301   0.012 -14.159  0.00  0.00     0.163 HD
HETATM    5  O           1     -38.075  -0.681 -12.866  0.00  0.00    -0.271 OA
BRANCH   3   6
HETATM    6  C           1     -37.058  -0.303 -15.346  0.00  0.00     0.185 C 
BRANCH   6   7
HETATM    7  C           1     -37.421   1.096 -15.828  0.00  0.00     0.039 C 
BRANCH   7   8
HETATM    8 Se           1     -35.824   2.213 -15.841  0.00  0.00     0.000 Se
HETATM    9  H           1     -35.598   2.075 -17.289  0.00  0.00     0.000 HD
ENDBRANCH   7   8
ENDBRANCH   6   7
BRANCH   6  10
HETATM   10  C           1     -36.238  -1.001 -16.403  0.00  0.00     0.196 C 
HETATM   11  O           1     -35.250  -1.693 -16.072  0.00  0.00    -0.646 OA
HETATM   12  O           1     -36.545  -0.886 -17.609  0.00  0.00    -0.646 OA
ENDBRANCH   6  10
ENDBRANCH   3   6
ENDBRANCH   1   2
BRANCH   1  13
HETATM   13  C           1     -34.619  -0.535 -11.947  0.00  0.00     0.081 C 
BRANCH  13  14
HETATM   14  C           1     -34.269  -1.975 -11.738  0.00  0.00    -0.056 A 
HETATM   15  C           1     -33.813  -2.408 -10.492  0.00  0.00     0.010 A 
HETATM   16  C           1     -33.487  -3.750 -10.297  0.00  0.00     0.038 A 
HETATM   17  C           1     -33.615  -4.659 -11.347  0.00  0.00     0.081 A 
HETATM   18  C           1     -34.071  -4.226 -12.593  0.00  0.00     0.038 A 
HETATM   19  C           1     -34.397  -2.884 -12.788  0.00  0.00     0.010 A 
BRANCH  17  20
HETATM   20  O           1     -33.299  -5.962 -11.158  0.00  0.00    -0.247 OA
BRANCH  20  21
HETATM   21  P           1     -34.476  -6.971 -10.701  0.00  0.00     0.411 P 
HETATM   22  O           1     -33.879  -8.175 -10.080  0.00  0.00    -0.624 OA
HETATM   23  O           1     -35.353  -6.292  -9.721  0.00  0.00    -0.624 OA
BRANCH  21  24
HETATM   24  O           1     -35.344  -7.405 -11.991  0.00  0.00    -0.300 OA
HETATM   25  H           1     -36.044  -7.933 -11.647  0.00  0.00     0.223 HD
ENDBRANCH  21  24
ENDBRANCH  20  21
ENDBRANCH  17  20
ENDBRANCH  13  14
ENDBRANCH   1  13
BRANCH   1  26
HETATM   26  N           1     -36.561  -1.368 -10.672  0.00  0.00    -0.066 N 
HETATM   27  H           1     -36.613  -2.291 -11.157  0.00  0.00     0.275 HD
HETATM   28  H           1     -35.889  -1.430  -9.875  0.00  0.00     0.275 HD
HETATM   29  H           1     -37.508  -1.110 -10.310  0.00  0.00     0.275 HD
ENDBRANCH   1  26
TORSDOF 11
ENDMDL
MODEL 8
REMARK VINA RESULT:      -5.7      5.664      7.742
REMARK  11 active torsions:
REMARK  status: ('A' for Active; 'I' for Inactive)
REMARK    1  A    between atoms: Se_1  and  C_2 
REMARK    2  A    between atoms: C_2  and  C_3 
REMARK    3  A    between atoms: C_3  and  C_4 
REMARK    4  A    between atoms: C_3  and  N_7 
REMARK       I    between atoms: N_7  and  C_8 
REMARK    5  A    between atoms: C_8  and  C_9 
REMARK    6  A    between atoms: C_9  and  C_10 
REMARK    7  A    between atoms: C_9  and  N_22 
REMARK    8  A    between atoms: C_10  and  C_11 
REMARK    9  A    between atoms: C_14  and  O_15 
REMARK   10  A    between atoms: O_15  and  P_16 
REMARK   11  A    between atoms: P_16  and  O_17 
ROOT
HETATM    1  C           1     -21.721  -9.049   0.108  0.00  0.00     0.278 C 
ENDROOT
BRANCH   1   2
HETATM    2  C           1     -22.684 -10.210   0.117  0.00  0.00     0.249 C 
HETATM    3  N           1     -22.216 -11.486   0.278  0.00  0.00    -0.345 N 
HETATM    4  H           1     -21.224 -11.651   0.390  0.00  0.00     0.163 HD
HETATM    5  O           1     -23.869 -10.013  -0.018  0.00  0.00    -0.271 OA
BRANCH   3   6
HETATM    6  C           1     -23.141 -12.602   0.286  0.00  0.00     0.185 C 
BRANCH   6   7
HETATM    7  C           1     -23.034 -13.362  -1.031  0.00  0.00     0.039 C 
BRANCH   7   8
HETATM    8 Se           1     -24.448 -14.700  -1.125  0.00  0.00     0.000 Se
HETATM    9  H           1     -23.699 -15.596  -2.022  0.00  0.00     0.000 HD
ENDBRANCH   7   8
ENDBRANCH   6   7
BRANCH   6  10
HETATM   10  C           1     -22.802 -13.529   1.428  0.00  0.00     0.196 C 
HETATM   11  O           1     -21.675 -14.067   1.483  0.00  0.00    -0.646 OA
HETATM   12  O           1     -23.648 -13.758   2.319  0.00  0.00    -0.646 OA
ENDBRANCH   6  10
ENDBRANCH   3   6
ENDBRANCH   1   2
BRANCH   1  13
HETATM   13  C           1     -20.753  -9.200  -1.058  0.00  0.00     0.081 C 
BRANCH  13  14
HETATM   14  C           1     -21.198  -8.331  -2.193  0.00  0.00    -0.056 A 
HETATM   15  C           1     -21.267  -8.853  -3.485  0.00  0.00     0.010 A 
HETATM   16  C           1     -21.681  -8.044  -4.543  0.00  0.00     0.038 A 
HETATM   17  C           1     -22.024  -6.713  -4.310  0.00  0.00     0.081 A 
HETATM   18  C           1     -21.955  -6.190  -3.018  0.00  0.00     0.038 A 
HETATM   19  C           1     -21.541  -6.999  -1.960  0.00  0.00     0.010 A 
BRANCH  17  20
HETATM   20  O           1     -22.426  -5.927  -5.337  0.00  0.00    -0.247 OA
BRANCH  20  21
HETATM   21  P           1     -21.293  -5.319  -6.316  0.00  0.00     0.411 P 
HETATM   22  O           1     -20.802  -6.382  -7.222  0.00  0.00    -0.624 OA
HETATM   23  O           1     -21.874  -4.217  -7.116  0.00  0.00    -0.624 OA
BRANCH  21  24
HETATM   24  O           1     -20.066  -4.755  -5.433  0.00  0.00    -0.300 OA
HETATM   25  H           1     -19.529  -4.273  -6.041  0.00  0.00     0.223 HD
ENDBRANCH  21  24
ENDBRANCH  20  21
ENDBRANCH  17  20
ENDBRANCH  13  14
ENDBRANCH   1  13
BRANCH   1  26
HETATM   26  N           1     -20.952  -9.027   1.396  0.00  0.00    -0.066 N 
HETATM   27  H           1     -20.490  -8.097   1.511  0.00  0.00     0.275 HD
HETATM   28  H           1     -21.605  -9.193   2.194  0.00  0.00     0.275 HD
HETATM   29  H           1     -20.224  -9.777   1.379  0.00  0.00     0.275 HD
ENDBRANCH   1  26
TORSDOF 11
ENDMDL
MODEL 9
REMARK VINA RESULT:      -5.6      5.468      9.227
REMARK  11 active torsions:
REMARK  status: ('A' for Active; 'I' for Inactive)
REMARK    1  A    between atoms: Se_1  and  C_2 
REMARK    2  A    between atoms: C_2  and  C_3 
REMARK    3  A    between atoms: C_3  and  C_4 
REMARK    4  A    between atoms: C_3  and  N_7 
REMARK       I    between atoms: N_7  and  C_8 
REMARK    5  A    between atoms: C_8  and  C_9 
REMARK    6  A    between atoms: C_9  and  C_10 
REMARK    7  A    between atoms: C_9  and  N_22 
REMARK    8  A    between atoms: C_10  and  C_11 
REMARK    9  A    between atoms: C_14  and  O_15 
REMARK   10  A    between atoms: O_15  and  P_16 
REMARK   11  A    between atoms: P_16  and  O_17 
ROOT
HETATM    1  C           1     -23.951  -4.623 -12.708  0.00  0.00     0.278 C 
ENDROOT
BRANCH   1   2
HETATM    2  C           1     -24.334  -4.826 -14.154  0.00  0.00     0.249 C 
HETATM    3  N           1     -24.889  -6.011 -14.555  0.00  0.00    -0.345 N 
HETATM    4  H           1     -25.043  -6.751 -13.882  0.00  0.00     0.163 HD
HETATM    5  O           1     -24.150  -3.942 -14.957  0.00  0.00    -0.271 OA
BRANCH   3   6
HETATM    6  C           1     -25.256  -6.206 -15.943  0.00  0.00     0.185 C 
BRANCH   6   7
HETATM    7  C           1     -24.430  -7.341 -16.534  0.00  0.00     0.039 C 
BRANCH   7   8
HETATM    8 Se           1     -24.342  -7.142 -18.471  0.00  0.00     0.000 Se
HETATM    9  H           1     -22.979  -6.586 -18.468  0.00  0.00     0.000 HD
ENDBRANCH   7   8
ENDBRANCH   6   7
BRANCH   6  10
HETATM   10  C           1     -26.722  -6.554 -16.032  0.00  0.00     0.196 C 
HETATM   11  O           1     -27.466  -5.929 -16.821  0.00  0.00    -0.646 OA
HETATM   12  O           1     -27.193  -7.464 -15.318  0.00  0.00    -0.646 OA
ENDBRANCH   6  10
ENDBRANCH   3   6
ENDBRANCH   1   2
BRANCH   1  13
HETATM   13  C           1     -22.724  -3.724 -12.628  0.00  0.00     0.081 C 
BRANCH  13  14
HETATM   14  C           1     -22.154  -3.777 -11.245  0.00  0.00    -0.056 A 
HETATM   15  C           1     -20.799  -4.053 -11.060  0.00  0.00     0.010 A 
HETATM   16  C           1     -20.267  -4.103  -9.772  0.00  0.00     0.038 A 
HETATM   17  C           1     -21.090  -3.879  -8.669  0.00  0.00     0.081 A 
HETATM   18  C           1     -22.445  -3.604  -8.853  0.00  0.00     0.038 A 
HETATM   19  C           1     -22.977  -3.553 -10.141  0.00  0.00     0.010 A 
BRANCH  17  20
HETATM   20  O           1     -20.573  -3.927  -7.417  0.00  0.00    -0.247 OA
BRANCH  20  21
HETATM   21  P           1     -20.934  -5.205  -6.496  0.00  0.00     0.411 P 
HETATM   22  O           1     -20.634  -6.449  -7.240  0.00  0.00    -0.624 OA
HETATM   23  O           1     -20.126  -5.163  -5.257  0.00  0.00    -0.624 OA
BRANCH  21  24
HETATM   24  O           1     -22.503  -5.170  -6.118  0.00  0.00    -0.300 OA
HETATM   25  H           1     -22.690  -4.264  -5.937  0.00  0.00     0.223 HD
ENDBRANCH  21  24
ENDBRANCH  20  21
ENDBRANCH  17  20
ENDBRANCH  13  14
ENDBRANCH   1  13
BRANCH   1  26
HETATM   26  N           1     -23.639  -5.950 -12.083  0.00  0.00    -0.066 N 
HETATM   27  H           1     -22.616  -6.143 -12.164  0.00  0.00     0.275 HD
HETATM   28  H           1     -23.911  -5.932 -11.074  0.00  0.00     0.275 HD
HETATM   29  H           1     -24.176  -6.701 -12.575  0.00  0.00     0.275 HD
ENDBRANCH   1  26
TORSDOF 11
ENDMDL
