MODEL 1
REMARK VINA RESULT:      -6.4      0.000      0.000
REMARK  10 active torsions:
REMARK  status: ('A' for Active; 'I' for Inactive)
REMARK    1  A    between atoms: N_2  and  C_9 
REMARK    2  A    between atoms: O_5  and  P_6 
REMARK    3  A    between atoms: P_6  and  O_7 
REMARK    4  A    between atoms: O_7  and  C_8 
REMARK    5  A    between atoms: C_8  and  C_9 
REMARK    6  A    between atoms: C_9  and  C_10 
REMARK       I    between atoms: C_10  and  N_11 
REMARK    7  A    between atoms: N_11  and  C_15 
REMARK    8  A    between atoms: C_14  and  C_15 
REMARK    9  A    between atoms: C_15  and  C_17 
REMARK   10  A    between atoms: C_17  and  C_18 
ROOT
HETATM    1  C           1     -21.073  -5.572  -7.109  0.00  0.00     0.298 C 
ENDROOT
BRANCH   1   2
HETATM    2  N           1     -19.833  -6.059  -7.796  0.00  0.00    -0.064 N 
HETATM    3  H           1     -19.215  -6.540  -7.104  0.00  0.00     0.275 HD
HETATM    4  H           1     -20.095  -6.729  -8.555  0.00  0.00     0.275 HD
HETATM    5  H           1     -19.322  -5.245  -8.210  0.00  0.00     0.275 HD
ENDBRANCH   1   2
BRANCH   1   6
HETATM    6  C           1     -20.710  -5.020  -5.736  0.00  0.00     0.224 C 
BRANCH   6   7
HETATM    7  O           1     -20.498  -6.083  -4.846  0.00  0.00    -0.287 OA
BRANCH   7   8
HETATM    8  P           1     -21.801  -6.610  -4.050  0.00  0.00     0.406 P 
HETATM    9  O           1     -21.859  -5.966  -2.719  0.00  0.00    -0.624 OA
HETATM   10  O           1     -21.716  -8.078  -3.886  0.00  0.00    -0.624 OA
BRANCH   8  11
HETATM   11  O           1     -23.131  -6.238  -4.887  0.00  0.00    -0.300 OA
HETATM   12  H           1     -23.401  -5.399  -4.555  0.00  0.00     0.223 HD
ENDBRANCH   8  11
ENDBRANCH   7   8
ENDBRANCH   6   7
ENDBRANCH   1   6
BRANCH   1  13
HETATM   13  C           1     -21.712  -4.483  -7.935  0.00  0.00     0.251 C 
HETATM   14  O           1     -21.693  -3.340  -7.547  0.00  0.00    -0.271 OA
HETATM   15  N           1     -22.313  -4.791  -9.126  0.00  0.00    -0.344 N 
HETATM   16  H           1     -22.328  -5.749  -9.453  0.00  0.00     0.163 HD
BRANCH  15  17
HETATM   17  C           1     -22.926  -3.745  -9.921  0.00  0.00     0.189 C 
BRANCH  17  18
HETATM   18  C           1     -24.424  -3.792  -9.743  0.00  0.00     0.197 C 
HETATM   19  O           1     -25.056  -2.746  -9.482  0.00  0.00    -0.646 OA
HETATM   20  O           1     -25.032  -4.878  -9.855  0.00  0.00    -0.646 OA
ENDBRANCH  17  18
BRANCH  17  21
HETATM   21  C           1     -22.583  -3.957 -11.390  0.00  0.00     0.014 C 
HETATM   22  C           1     -22.991  -2.726 -12.188  0.00  0.00     0.012 C 
BRANCH  21  23
HETATM   23  C           1     -21.083  -4.181 -11.533  0.00  0.00     0.002 C 
HETATM   24  C           1     -20.343  -2.890 -11.209  0.00  0.00     0.005 C 
ENDBRANCH  21  23
ENDBRANCH  17  21
ENDBRANCH  15  17
ENDBRANCH   1  13
TORSDOF 10
ENDMDL
MODEL 2
REMARK VINA RESULT:      -6.0      3.169      7.156
REMARK  10 active torsions:
REMARK  status: ('A' for Active; 'I' for Inactive)
REMARK    1  A    between atoms: N_2  and  C_9 
REMARK    2  A    between atoms: O_5  and  P_6 
REMARK    3  A    between atoms: P_6  and  O_7 
REMARK    4  A    between atoms: O_7  and  C_8 
REMARK    5  A    between atoms: C_8  and  C_9 
REMARK    6  A    between atoms: C_9  and  C_10 
REMARK       I    between atoms: C_10  and  N_11 
REMARK    7  A    between atoms: N_11  and  C_15 
REMARK    8  A    between atoms: C_14  and  C_15 
REMARK    9  A    between atoms: C_15  and  C_17 
REMARK   10  A    between atoms: C_17  and  C_18 
ROOT
HETATM    1  C           1     -22.466  -5.140  -7.171  0.00  0.00     0.298 C 
ENDROOT
BRANCH   1   2
HETATM    2  N           1     -23.702  -4.857  -6.370  0.00  0.00    -0.064 N 
HETATM    3  H           1     -24.056  -3.901  -6.599  0.00  0.00     0.275 HD
HETATM    4  H           1     -24.436  -5.566  -6.601  0.00  0.00     0.275 HD
HETATM    5  H           1     -23.476  -4.909  -5.350  0.00  0.00     0.275 HD
ENDBRANCH   1   2
BRANCH   1   6
HETATM    6  C           1     -21.942  -3.841  -7.771  0.00  0.00     0.224 C 
BRANCH   6   7
HETATM    7  O           1     -21.897  -3.956  -9.167  0.00  0.00    -0.287 OA
BRANCH   7   8
HETATM    8  P           1     -23.315  -3.838  -9.933  0.00  0.00     0.406 P 
HETATM    9  O           1     -23.753  -5.183 -10.370  0.00  0.00    -0.624 OA
HETATM   10  O           1     -23.164  -2.959 -11.114  0.00  0.00    -0.624 OA
BRANCH   8  11
HETATM   11  O           1     -24.418  -3.211  -8.933  0.00  0.00    -0.300 OA
HETATM   12  H           1     -23.934  -2.638  -8.365  0.00  0.00     0.223 HD
ENDBRANCH   8  11
ENDBRANCH   7   8
ENDBRANCH   6   7
ENDBRANCH   1   6
BRANCH   1  13
HETATM   13  C           1     -21.412  -5.740  -6.273  0.00  0.00     0.251 C 
HETATM   14  O           1     -20.286  -5.303  -6.289  0.00  0.00    -0.271 OA
HETATM   15  N           1     -21.731  -6.779  -5.441  0.00  0.00    -0.344 N 
HETATM   16  H           1     -22.675  -7.144  -5.428  0.00  0.00     0.163 HD
BRANCH  15  17
HETATM   17  C           1     -20.719  -7.355  -4.578  0.00  0.00     0.189 C 
BRANCH  17  18
HETATM   18  C           1     -20.220  -8.645  -5.183  0.00  0.00     0.197 C 
HETATM   19  O           1     -19.049  -8.721  -5.614  0.00  0.00    -0.646 OA
HETATM   20  O           1     -20.978  -9.636  -5.253  0.00  0.00    -0.646 OA
ENDBRANCH  17  18
BRANCH  17  21
HETATM   21  C           1     -21.321  -7.637  -3.208  0.00  0.00     0.014 C 
HETATM   22  C           1     -20.235  -8.158  -2.276  0.00  0.00     0.012 C 
BRANCH  21  23
HETATM   23  C           1     -21.906  -6.351  -2.638  0.00  0.00     0.002 C 
HETATM   24  C           1     -22.314  -6.576  -1.188  0.00  0.00     0.005 C 
ENDBRANCH  21  23
ENDBRANCH  17  21
ENDBRANCH  15  17
ENDBRANCH   1  13
TORSDOF 10
ENDMDL
MODEL 3
REMARK VINA RESULT:      -5.9      1.245      2.122
REMARK  10 active torsions:
REMARK  status: ('A' for Active; 'I' for Inactive)
REMARK    1  A    between atoms: N_2  and  C_9 
REMARK    2  A    between atoms: O_5  and  P_6 
REMARK    3  A    between atoms: P_6  and  O_7 
REMARK    4  A    between atoms: O_7  and  C_8 
REMARK    5  A    between atoms: C_8  and  C_9 
REMARK    6  A    between atoms: C_9  and  C_10 
REMARK       I    between atoms: C_10  and  N_11 
REMARK    7  A    between atoms: N_11  and  C_15 
REMARK    8  A    between atoms: C_14  and  C_15 
REMARK    9  A    between atoms: C_15  and  C_17 
REMARK   10  A    between atoms: C_17  and  C_18 
ROOT
HETATM    1  C           1     -20.521  -5.439  -7.797  0.00  0.00     0.298 C 
ENDROOT
BRANCH   1   2
HETATM    2  N           1     -19.251  -4.783  -7.343  0.00  0.00    -0.064 N 
HETATM    3  H           1     -18.676  -5.469  -6.804  0.00  0.00     0.275 HD
HETATM    4  H           1     -18.712  -4.455  -8.176  0.00  0.00     0.275 HD
HETATM    5  H           1     -19.480  -3.966  -6.732  0.00  0.00     0.275 HD
ENDBRANCH   1   2
BRANCH   1   6
HETATM    6  C           1     -21.131  -6.219  -6.639  0.00  0.00     0.224 C 
BRANCH   6   7
HETATM    7  O           1     -20.152  -7.042  -6.063  0.00  0.00    -0.287 OA
BRANCH   7   8
HETATM    8  P           1     -20.692  -8.193  -5.066  0.00  0.00     0.406 P 
HETATM    9  O           1     -21.059  -9.393  -5.852  0.00  0.00    -0.624 OA
HETATM   10  O           1     -21.881  -7.696  -4.338  0.00  0.00    -0.624 OA
BRANCH   8  11
HETATM   11  O           1     -19.535  -8.576  -4.007  0.00  0.00    -0.300 OA
HETATM   12  H           1     -19.005  -7.801  -3.934  0.00  0.00     0.223 HD
ENDBRANCH   8  11
ENDBRANCH   7   8
ENDBRANCH   6   7
ENDBRANCH   1   6
BRANCH   1  13
HETATM   13  C           1     -21.495  -4.384  -8.260  0.00  0.00     0.251 C 
HETATM   14  O           1     -21.862  -3.524  -7.496  0.00  0.00    -0.271 OA
HETATM   15  N           1     -21.961  -4.401  -9.547  0.00  0.00    -0.344 N 
HETATM   16  H           1     -21.653  -5.121 -10.188  0.00  0.00     0.163 HD
BRANCH  15  17
HETATM   17  C           1     -22.896  -3.386  -9.993  0.00  0.00     0.189 C 
BRANCH  17  18
HETATM   18  C           1     -24.284  -3.976 -10.055  0.00  0.00     0.197 C 
HETATM   19  O           1     -25.283  -3.245  -9.877  0.00  0.00    -0.646 OA
HETATM   20  O           1     -24.435  -5.195 -10.283  0.00  0.00    -0.646 OA
ENDBRANCH  17  18
BRANCH  17  21
HETATM   21  C           1     -22.491  -2.896 -11.376  0.00  0.00     0.014 C 
HETATM   22  C           1     -21.463  -3.850 -11.971  0.00  0.00     0.012 C 
BRANCH  21  23
HETATM   23  C           1     -23.718  -2.846 -12.276  0.00  0.00     0.002 C 
HETATM   24  C           1     -23.281  -2.838 -13.735  0.00  0.00     0.005 C 
ENDBRANCH  21  23
ENDBRANCH  17  21
ENDBRANCH  15  17
ENDBRANCH   1  13
TORSDOF 10
ENDMDL
MODEL 4
REMARK VINA RESULT:      -5.7     10.030     12.555
REMARK  10 active torsions:
REMARK  status: ('A' for Active; 'I' for Inactive)
REMARK    1  A    between atoms: N_2  and  C_9 
REMARK    2  A    between atoms: O_5  and  P_6 
REMARK    3  A    between atoms: P_6  and  O_7 
REMARK    4  A    between atoms: O_7  and  C_8 
REMARK    5  A    between atoms: C_8  and  C_9 
REMARK    6  A    between atoms: C_9  and  C_10 
REMARK       I    between atoms: C_10  and  N_11 
REMARK    7  A    between atoms: N_11  and  C_15 
REMARK    8  A    between atoms: C_14  and  C_15 
REMARK    9  A    between atoms: C_15  and  C_17 
REMARK   10  A    between atoms: C_17  and  C_18 
ROOT
HETATM    1  C           1     -25.689  -6.317 -16.422  0.00  0.00     0.298 C 
ENDROOT
BRANCH   1   2
HETATM    2  N           1     -24.861  -6.677 -15.224  0.00  0.00    -0.064 N 
HETATM    3  H           1     -25.399  -7.331 -14.611  0.00  0.00     0.275 HD
HETATM    4  H           1     -23.978  -7.141 -15.538  0.00  0.00     0.275 HD
HETATM    5  H           1     -24.629  -5.810 -14.688  0.00  0.00     0.275 HD
ENDBRANCH   1   2
BRANCH   1   6
HETATM    6  C           1     -25.010  -6.837 -17.682  0.00  0.00     0.224 C 
BRANCH   6   7
HETATM    7  O           1     -25.720  -6.400 -18.810  0.00  0.00    -0.287 OA
BRANCH   7   8
HETATM    8  P           1     -25.284  -7.058 -20.219  0.00  0.00     0.406 P 
HETATM    9  O           1     -23.982  -7.744 -20.061  0.00  0.00    -0.624 OA
HETATM   10  O           1     -25.162  -5.995 -21.242  0.00  0.00    -0.624 OA
BRANCH   8  11
HETATM   11  O           1     -26.402  -8.127 -20.685  0.00  0.00    -0.300 OA
HETATM   12  H           1     -27.219  -7.661 -20.638  0.00  0.00     0.223 HD
ENDBRANCH   8  11
ENDBRANCH   7   8
ENDBRANCH   6   7
ENDBRANCH   1   6
BRANCH   1  13
HETATM   13  C           1     -27.057  -6.940 -16.293  0.00  0.00     0.251 C 
HETATM   14  O           1     -27.298  -7.683 -15.373  0.00  0.00    -0.271 OA
HETATM   15  N           1     -28.026  -6.661 -17.220  0.00  0.00    -0.344 N 
HETATM   16  H           1     -27.824  -6.037 -17.991  0.00  0.00     0.163 HD
BRANCH  15  17
HETATM   17  C           1     -29.341  -7.259 -17.097  0.00  0.00     0.189 C 
BRANCH  17  18
HETATM   18  C           1     -29.779  -7.789 -18.440  0.00  0.00     0.197 C 
HETATM   19  O           1     -30.969  -8.128 -18.621  0.00  0.00    -0.646 OA
HETATM   20  O           1     -28.952  -7.888 -19.372  0.00  0.00    -0.646 OA
ENDBRANCH  17  18
BRANCH  17  21
HETATM   21  C           1     -30.333  -6.207 -16.617  0.00  0.00     0.014 C 
HETATM   22  C           1     -29.827  -5.587 -15.322  0.00  0.00     0.012 C 
BRANCH  21  23
HETATM   23  C           1     -30.475  -5.124 -17.678  0.00  0.00     0.002 C 
HETATM   24  C           1     -31.607  -4.181 -17.294  0.00  0.00     0.005 C 
ENDBRANCH  21  23
ENDBRANCH  17  21
ENDBRANCH  15  17
ENDBRANCH   1  13
TORSDOF 10
ENDMDL
MODEL 5
REMARK VINA RESULT:      -5.5      6.014      9.235
REMARK  10 active torsions:
REMARK  status: ('A' for Active; 'I' for Inactive)
REMARK    1  A    between atoms: N_2  and  C_9 
REMARK    2  A    between atoms: O_5  and  P_6 
REMARK    3  A    between atoms: P_6  and  O_7 
REMARK    4  A    between atoms: O_7  and  C_8 
REMARK    5  A    between atoms: C_8  and  C_9 
REMARK    6  A    between atoms: C_9  and  C_10 
REMARK       I    between atoms: C_10  and  N_11 
REMARK    7  A    between atoms: N_11  and  C_15 
REMARK    8  A    between atoms: C_14  and  C_15 
REMARK    9  A    between atoms: C_15  and  C_17 
REMARK   10  A    between atoms: C_17  and  C_18 
ROOT
HETATM    1  C           1     -21.706  -7.664  -4.223  0.00  0.00     0.298 C 
ENDROOT
BRANCH   1   2
HETATM    2  N           1     -22.321  -6.310  -4.410  0.00  0.00    -0.064 N 
HETATM    3  H           1     -22.581  -6.179  -5.414  0.00  0.00     0.275 HD
HETATM    4  H           1     -23.177  -6.231  -3.815  0.00  0.00     0.275 HD
HETATM    5  H           1     -21.633  -5.573  -4.131  0.00  0.00     0.275 HD
ENDBRANCH   1   2
BRANCH   1   6
HETATM    6  C           1     -20.449  -7.774  -5.078  0.00  0.00     0.224 C 
BRANCH   6   7
HETATM    7  O           1     -19.509  -8.584  -4.426  0.00  0.00    -0.287 OA
BRANCH   7   8
HETATM    8  P           1     -18.954  -9.844  -5.271  0.00  0.00     0.406 P 
HETATM    9  O           1     -18.012  -9.365  -6.307  0.00  0.00    -0.624 OA
HETATM   10  O           1     -20.088 -10.541  -5.917  0.00  0.00    -0.624 OA
BRANCH   8  11
HETATM   11  O           1     -18.190 -10.864  -4.279  0.00  0.00    -0.300 OA
HETATM   12  H           1     -17.679 -10.315  -3.710  0.00  0.00     0.223 HD
ENDBRANCH   8  11
ENDBRANCH   7   8
ENDBRANCH   6   7
ENDBRANCH   1   6
BRANCH   1  13
HETATM   13  C           1     -21.344  -7.856  -2.771  0.00  0.00     0.251 C 
HETATM   14  O           1     -20.917  -6.928  -2.127  0.00  0.00    -0.271 OA
HETATM   15  N           1     -21.502  -9.082  -2.182  0.00  0.00    -0.344 N 
HETATM   16  H           1     -21.861  -9.860  -2.721  0.00  0.00     0.163 HD
BRANCH  15  17
HETATM   17  C           1     -21.156  -9.267  -0.787  0.00  0.00     0.189 C 
BRANCH  17  18
HETATM   18  C           1     -20.207 -10.434  -0.655  0.00  0.00     0.197 C 
HETATM   19  O           1     -20.093 -11.027   0.439  0.00  0.00    -0.646 OA
HETATM   20  O           1     -19.535 -10.806  -1.641  0.00  0.00    -0.646 OA
ENDBRANCH  17  18
BRANCH  17  21
HETATM   21  C           1     -22.419  -9.547   0.017  0.00  0.00     0.014 C 
HETATM   22  C           1     -23.093  -8.230   0.375  0.00  0.00     0.012 C 
BRANCH  21  23
HETATM   23  C           1     -23.371 -10.395  -0.816  0.00  0.00     0.002 C 
HETATM   24  C           1     -23.788 -11.624  -0.019  0.00  0.00     0.005 C 
ENDBRANCH  21  23
ENDBRANCH  17  21
ENDBRANCH  15  17
ENDBRANCH   1  13
TORSDOF 10
ENDMDL
MODEL 6
REMARK VINA RESULT:      -5.5      5.239      9.048
REMARK  10 active torsions:
REMARK  status: ('A' for Active; 'I' for Inactive)
REMARK    1  A    between atoms: N_2  and  C_9 
REMARK    2  A    between atoms: O_5  and  P_6 
REMARK    3  A    between atoms: P_6  and  O_7 
REMARK    4  A    between atoms: O_7  and  C_8 
REMARK    5  A    between atoms: C_8  and  C_9 
REMARK    6  A    between atoms: C_9  and  C_10 
REMARK       I    between atoms: C_10  and  N_11 
REMARK    7  A    between atoms: N_11  and  C_15 
REMARK    8  A    between atoms: C_14  and  C_15 
REMARK    9  A    between atoms: C_15  and  C_17 
REMARK   10  A    between atoms: C_17  and  C_18 
ROOT
HETATM    1  C           1     -21.718  -7.529  -4.226  0.00  0.00     0.298 C 
ENDROOT
BRANCH   1   2
HETATM    2  N           1     -22.605  -6.321  -4.268  0.00  0.00    -0.064 N 
HETATM    3  H           1     -22.380  -5.694  -3.464  0.00  0.00     0.275 HD
HETATM    4  H           1     -22.450  -5.806  -5.165  0.00  0.00     0.275 HD
HETATM    5  H           1     -23.605  -6.621  -4.206  0.00  0.00     0.275 HD
ENDBRANCH   1   2
BRANCH   1   6
HETATM    6  C           1     -20.477  -7.277  -5.074  0.00  0.00     0.224 C 
BRANCH   6   7
HETATM    7  O           1     -20.859  -7.018  -6.397  0.00  0.00    -0.287 OA
BRANCH   7   8
HETATM    8  P           1     -20.671  -5.495  -6.903  0.00  0.00     0.406 P 
HETATM    9  O           1     -20.122  -5.497  -8.278  0.00  0.00    -0.624 OA
HETATM   10  O           1     -19.738  -4.788  -5.999  0.00  0.00    -0.624 OA
BRANCH   8  11
HETATM   11  O           1     -22.101  -4.744  -6.896  0.00  0.00    -0.300 OA
HETATM   12  H           1     -21.895  -3.829  -6.811  0.00  0.00     0.223 HD
ENDBRANCH   8  11
ENDBRANCH   7   8
ENDBRANCH   6   7
ENDBRANCH   1   6
BRANCH   1  13
HETATM   13  C           1     -21.307  -7.802  -2.801  0.00  0.00     0.251 C 
HETATM   14  O           1     -20.768  -6.938  -2.152  0.00  0.00    -0.271 OA
HETATM   15  N           1     -21.545  -9.030  -2.243  0.00  0.00    -0.344 N 
HETATM   16  H           1     -21.997  -9.754  -2.786  0.00  0.00     0.163 HD
BRANCH  15  17
HETATM   17  C           1     -21.150  -9.292  -0.872  0.00  0.00     0.189 C 
BRANCH  17  18
HETATM   18  C           1     -20.230 -10.488  -0.836  0.00  0.00     0.197 C 
HETATM   19  O           1     -19.612 -10.833  -1.866  0.00  0.00    -0.646 OA
HETATM   20  O           1     -20.087 -11.133   0.225  0.00  0.00    -0.646 OA
ENDBRANCH  17  18
BRANCH  17  21
HETATM   21  C           1     -22.389  -9.579  -0.034  0.00  0.00     0.014 C 
HETATM   22  C           1     -23.052  -8.264   0.355  0.00  0.00     0.012 C 
BRANCH  21  23
HETATM   23  C           1     -23.366 -10.420  -0.845  0.00  0.00     0.002 C 
HETATM   24  C           1     -23.804 -11.624  -0.023  0.00  0.00     0.005 C 
ENDBRANCH  21  23
ENDBRANCH  17  21
ENDBRANCH  15  17
ENDBRANCH   1  13
TORSDOF 10
ENDMDL
MODEL 7
REMARK VINA RESULT:      -5.4      7.380      9.293
REMARK  10 active torsions:
REMARK  status: ('A' for Active; 'I' for Inactive)
REMARK    1  A    between atoms: N_2  and  C_9 
REMARK    2  A    between atoms: O_5  and  P_6 
REMARK    3  A    between atoms: P_6  and  O_7 
REMARK    4  A    between atoms: O_7  and  C_8 
REMARK    5  A    between atoms: C_8  and  C_9 
REMARK    6  A    between atoms: C_9  and  C_10 
REMARK       I    between atoms: C_10  and  N_11 
REMARK    7  A    between atoms: N_11  and  C_15 
REMARK    8  A    between atoms: C_14  and  C_15 
REMARK    9  A    between atoms: C_15  and  C_17 
REMARK   10  A    between atoms: C_17  and  C_18 
ROOT
HETATM    1  C           1     -18.607 -10.959  -2.031  0.00  0.00     0.298 C 
ENDROOT
BRANCH   1   2
HETATM    2  N           1     -18.516 -12.387  -2.481  0.00  0.00    -0.064 N 
HETATM    3  H           1     -18.239 -12.419  -3.488  0.00  0.00     0.275 HD
HETATM    4  H           1     -17.802 -12.889  -1.907  0.00  0.00     0.275 HD
HETATM    5  H           1     -19.447 -12.850  -2.363  0.00  0.00     0.275 HD
ENDBRANCH   1   2
BRANCH   1   6
HETATM    6  C           1     -18.839 -10.060  -3.238  0.00  0.00     0.224 C 
BRANCH   6   7
HETATM    7  O           1     -19.577 -10.757  -4.206  0.00  0.00    -0.287 OA
BRANCH   7   8
HETATM    8  P           1     -20.586  -9.869  -5.102  0.00  0.00     0.406 P 
HETATM    9  O           1     -21.078 -10.679  -6.239  0.00  0.00    -0.624 OA
HETATM   10  O           1     -19.872  -8.679  -5.614  0.00  0.00    -0.624 OA
BRANCH   8  11
HETATM   11  O           1     -21.838  -9.397  -4.197  0.00  0.00    -0.300 OA
HETATM   12  H           1     -22.439  -8.997  -4.802  0.00  0.00     0.223 HD
ENDBRANCH   8  11
ENDBRANCH   7   8
ENDBRANCH   6   7
ENDBRANCH   1   6
BRANCH   1  13
HETATM   13  C           1     -19.756 -10.810  -1.064  0.00  0.00     0.251 C 
HETATM   14  O           1     -19.727 -11.378   0.001  0.00  0.00    -0.271 OA
HETATM   15  N           1     -20.831 -10.028  -1.393  0.00  0.00    -0.344 N 
HETATM   16  H           1     -20.855  -9.551  -2.286  0.00  0.00     0.163 HD
BRANCH  15  17
HETATM   17  C           1     -21.934  -9.883  -0.464  0.00  0.00     0.189 C 
BRANCH  17  18
HETATM   18  C           1     -23.131 -10.641  -0.985  0.00  0.00     0.197 C 
HETATM   19  O           1     -23.149 -11.045  -2.168  0.00  0.00    -0.646 OA
HETATM   20  O           1     -24.104 -10.865  -0.233  0.00  0.00    -0.646 OA
ENDBRANCH  17  18
BRANCH  17  21
HETATM   21  C           1     -22.289  -8.409  -0.324  0.00  0.00     0.014 C 
HETATM   22  C           1     -22.067  -7.970   1.117  0.00  0.00     0.012 C 
BRANCH  21  23
HETATM   23  C           1     -21.403  -7.585  -1.248  0.00  0.00     0.002 C 
HETATM   24  C           1     -22.191  -6.396  -1.782  0.00  0.00     0.005 C 
ENDBRANCH  21  23
ENDBRANCH  17  21
ENDBRANCH  15  17
ENDBRANCH   1  13
TORSDOF 10
ENDMDL
MODEL 8
REMARK VINA RESULT:      -5.4      5.870      8.877
REMARK  10 active torsions:
REMARK  status: ('A' for Active; 'I' for Inactive)
REMARK    1  A    between atoms: N_2  and  C_9 
REMARK    2  A    between atoms: O_5  and  P_6 
REMARK    3  A    between atoms: P_6  and  O_7 
REMARK    4  A    between atoms: O_7  and  C_8 
REMARK    5  A    between atoms: C_8  and  C_9 
REMARK    6  A    between atoms: C_9  and  C_10 
REMARK       I    between atoms: C_10  and  N_11 
REMARK    7  A    between atoms: N_11  and  C_15 
REMARK    8  A    between atoms: C_14  and  C_15 
REMARK    9  A    between atoms: C_15  and  C_17 
REMARK   10  A    between atoms: C_17  and  C_18 
ROOT
HETATM    1  C           1     -20.344  -9.633  -4.287  0.00  0.00     0.298 C 
ENDROOT
BRANCH   1   2
HETATM    2  N           1     -20.892 -10.069  -5.613  0.00  0.00    -0.064 N 
HETATM    3  H           1     -20.297  -9.685  -6.381  0.00  0.00     0.275 HD
HETATM    4  H           1     -20.895 -11.113  -5.663  0.00  0.00     0.275 HD
HETATM    5  H           1     -21.870  -9.712  -5.720  0.00  0.00     0.275 HD
ENDBRANCH   1   2
BRANCH   1   6
HETATM    6  C           1     -19.785  -8.221  -4.408  0.00  0.00     0.224 C 
BRANCH   6   7
HETATM    7  O           1     -20.794  -7.292  -4.113  0.00  0.00    -0.287 OA
BRANCH   7   8
HETATM    8  P           1     -21.239  -6.322  -5.325  0.00  0.00     0.406 P 
HETATM    9  O           1     -22.682  -6.012  -5.203  0.00  0.00    -0.624 OA
HETATM   10  O           1     -20.986  -6.998  -6.616  0.00  0.00    -0.624 OA
BRANCH   8  11
HETATM   11  O           1     -20.387  -4.951  -5.259  0.00  0.00    -0.300 OA
HETATM   12  H           1     -20.076  -4.900  -4.372  0.00  0.00     0.223 HD
ENDBRANCH   8  11
ENDBRANCH   7   8
ENDBRANCH   6   7
ENDBRANCH   1   6
BRANCH   1  13
HETATM   13  C           1     -21.445  -9.652  -3.257  0.00  0.00     0.251 C 
HETATM   14  O           1     -22.522 -10.124  -3.532  0.00  0.00    -0.271 OA
HETATM   15  N           1     -21.224  -9.133  -2.009  0.00  0.00    -0.344 N 
HETATM   16  H           1     -20.322  -8.738  -1.777  0.00  0.00     0.163 HD
BRANCH  15  17
HETATM   17  C           1     -22.283  -9.151  -1.018  0.00  0.00     0.189 C 
BRANCH  17  18
HETATM   18  C           1     -22.360  -7.804  -0.342  0.00  0.00     0.197 C 
HETATM   19  O           1     -22.138  -7.706   0.885  0.00  0.00    -0.646 OA
HETATM   20  O           1     -22.646  -6.786  -1.009  0.00  0.00    -0.646 OA
ENDBRANCH  17  18
BRANCH  17  21
HETATM   21  C           1     -21.986 -10.224   0.021  0.00  0.00     0.014 C 
HETATM   22  C           1     -22.953 -11.387  -0.161  0.00  0.00     0.012 C 
BRANCH  21  23
HETATM   23  C           1     -20.557 -10.720  -0.156  0.00  0.00     0.002 C 
HETATM   24  C           1     -20.468 -12.180   0.267  0.00  0.00     0.005 C 
ENDBRANCH  21  23
ENDBRANCH  17  21
ENDBRANCH  15  17
ENDBRANCH   1  13
TORSDOF 10
ENDMDL
MODEL 9
REMARK VINA RESULT:      -5.4      4.611      8.467
REMARK  10 active torsions:
REMARK  status: ('A' for Active; 'I' for Inactive)
REMARK    1  A    between atoms: N_2  and  C_9 
REMARK    2  A    between atoms: O_5  and  P_6 
REMARK    3  A    between atoms: P_6  and  O_7 
REMARK    4  A    between atoms: O_7  and  C_8 
REMARK    5  A    between atoms: C_8  and  C_9 
REMARK    6  A    between atoms: C_9  and  C_10 
REMARK       I    between atoms: C_10  and  N_11 
REMARK    7  A    between atoms: N_11  and  C_15 
REMARK    8  A    between atoms: C_14  and  C_15 
REMARK    9  A    between atoms: C_15  and  C_17 
REMARK   10  A    between atoms: C_17  and  C_18 
ROOT
HETATM    1  C           1     -21.677  -7.216  -5.286  0.00  0.00     0.298 C 
ENDROOT
BRANCH   1   2
HETATM    2  N           1     -22.661  -6.303  -4.617  0.00  0.00    -0.064 N 
HETATM    3  H           1     -22.742  -5.415  -5.163  0.00  0.00     0.275 HD
HETATM    4  H           1     -23.595  -6.770  -4.571  0.00  0.00     0.275 HD
HETATM    5  H           1     -22.331  -6.086  -3.648  0.00  0.00     0.275 HD
ENDBRANCH   1   2
BRANCH   1   6
HETATM    6  C           1     -20.665  -6.386  -6.067  0.00  0.00     0.224 C 
BRANCH   6   7
HETATM    7  O           1     -21.122  -6.204  -7.379  0.00  0.00    -0.287 OA
BRANCH   7   8
HETATM    8  P           1     -21.583  -4.705  -7.766  0.00  0.00     0.406 P 
HETATM    9  O           1     -21.632  -4.569  -9.240  0.00  0.00    -0.624 OA
HETATM   10  O           1     -20.614  -3.733  -7.212  0.00  0.00    -0.624 OA
BRANCH   8  11
HETATM   11  O           1     -23.048  -4.415  -7.151  0.00  0.00    -0.300 OA
HETATM   12  H           1     -23.101  -3.477  -7.080  0.00  0.00     0.223 HD
ENDBRANCH   8  11
ENDBRANCH   7   8
ENDBRANCH   6   7
ENDBRANCH   1   6
BRANCH   1  13
HETATM   13  C           1     -20.959  -8.034  -4.242  0.00  0.00     0.251 C 
HETATM   14  O           1     -19.757  -8.141  -4.280  0.00  0.00    -0.271 OA
HETATM   15  N           1     -21.670  -8.656  -3.251  0.00  0.00    -0.344 N 
HETATM   16  H           1     -22.678  -8.566  -3.219  0.00  0.00     0.163 HD
BRANCH  15  17
HETATM   17  C           1     -20.981  -9.442  -2.247  0.00  0.00     0.189 C 
BRANCH  17  18
HETATM   18  C           1     -20.844 -10.865  -2.731  0.00  0.00     0.197 C 
HETATM   19  O           1     -21.865 -11.566  -2.907  0.00  0.00    -0.646 OA
HETATM   20  O           1     -19.711 -11.343  -2.954  0.00  0.00    -0.646 OA
ENDBRANCH  17  18
BRANCH  17  21
HETATM   21  C           1     -21.778  -9.420  -0.950  0.00  0.00     0.014 C 
HETATM   22  C           1     -20.935 -10.009   0.173  0.00  0.00     0.012 C 
BRANCH  21  23
HETATM   23  C           1     -22.149  -7.984  -0.607  0.00  0.00     0.002 C 
HETATM   24  C           1     -23.113  -7.975   0.572  0.00  0.00     0.005 C 
ENDBRANCH  21  23
ENDBRANCH  17  21
ENDBRANCH  15  17
ENDBRANCH   1  13
TORSDOF 10
ENDMDL
