MODEL 1
REMARK VINA RESULT:      -6.4      0.000      0.000
REMARK  9 active torsions:
REMARK  status: ('A' for Active; 'I' for Inactive)
REMARK    1  A    between atoms: C_1  and  C_8 
REMARK    2  A    between atoms: C_1  and  C_2 
REMARK    3  A    between atoms: C_2  and  N_12 
REMARK    4  A    between atoms: C_4  and  C_5 
REMARK    5  A    between atoms: C_5  and  C_11 
REMARK    6  A    between atoms: C_5  and  N_21 
REMARK    7  A    between atoms: C_8  and  C_9 
REMARK    8  A    between atoms: C_9  and  C_10 
REMARK    9  A    between atoms: C_9  and  N_23 
REMARK       I    between atoms: C_10  and  N_21 
ROOT
HETATM    1  C           1     -21.181  -5.873  -6.830  0.00  0.00     0.274 C 
ENDROOT
BRANCH   1   2
HETATM    2  C           1     -21.192  -5.490  -5.357  0.00  0.00     0.044 C 
BRANCH   2   3
HETATM    3  C           1     -21.989  -6.521  -4.569  0.00  0.00     0.030 C 
BRANCH   3   4
HETATM    4  C           1     -21.438  -6.615  -3.153  0.00  0.00     0.248 C 
BRANCH   4   5
HETATM    5  N           1     -22.335  -5.864  -2.215  0.00  0.00    -0.079 N 
HETATM    6  H           1     -21.889  -4.953  -1.961  0.00  0.00     0.274 HD
HETATM    7  H           1     -23.253  -5.684  -2.681  0.00  0.00     0.274 HD
HETATM    8  H           1     -22.487  -6.431  -1.350  0.00  0.00     0.274 HD
ENDBRANCH   4   5
ENDBRANCH   3   4
ENDBRANCH   2   3
ENDBRANCH   1   2
BRANCH   1   9
HETATM    9  C           1     -21.670  -4.709  -7.657  0.00  0.00     0.249 C 
HETATM   10  N           1     -22.170  -4.924  -8.914  0.00  0.00    -0.344 N 
HETATM   11  H           1     -22.212  -5.863  -9.288  0.00  0.00     0.163 HD
HETATM   12  O           1     -21.622  -3.588  -7.211  0.00  0.00    -0.271 OA
BRANCH  10  13
HETATM   13  C           1     -22.641  -3.806  -9.708  0.00  0.00     0.189 C 
BRANCH  13  14
HETATM   14  C           1     -22.085  -3.919 -11.121  0.00  0.00     0.010 C 
HETATM   15  C           1     -22.487  -2.688 -11.923  0.00  0.00     0.012 C 
HETATM   16  C           1     -20.566  -4.014 -11.062  0.00  0.00     0.012 C 
ENDBRANCH  13  14
BRANCH  13  17
HETATM   17  C           1     -24.149  -3.825  -9.757  0.00  0.00     0.197 C 
HETATM   18  O           1     -24.796  -2.786  -9.500  0.00  0.00    -0.646 OA
HETATM   19  O           1     -24.752  -4.878 -10.055  0.00  0.00    -0.646 OA
ENDBRANCH  13  17
ENDBRANCH  10  13
ENDBRANCH   1   9
BRANCH   1  20
HETATM   20  N           1     -19.782  -6.226  -7.244  0.00  0.00    -0.067 N 
HETATM   21  H           1     -19.127  -6.041  -6.451  0.00  0.00     0.275 HD
HETATM   22  H           1     -19.741  -7.237  -7.502  0.00  0.00     0.275 HD
HETATM   23  H           1     -19.506  -5.645  -8.068  0.00  0.00     0.257 HD
ENDBRANCH   1  20
TORSDOF 9
ENDMDL
MODEL 2
REMARK VINA RESULT:      -6.4     12.493     14.033
REMARK  9 active torsions:
REMARK  status: ('A' for Active; 'I' for Inactive)
REMARK    1  A    between atoms: C_1  and  C_8 
REMARK    2  A    between atoms: C_1  and  C_2 
REMARK    3  A    between atoms: C_2  and  N_12 
REMARK    4  A    between atoms: C_4  and  C_5 
REMARK    5  A    between atoms: C_5  and  C_11 
REMARK    6  A    between atoms: C_5  and  N_21 
REMARK    7  A    between atoms: C_8  and  C_9 
REMARK    8  A    between atoms: C_9  and  C_10 
REMARK    9  A    between atoms: C_9  and  N_23 
REMARK       I    between atoms: C_10  and  N_21 
ROOT
HETATM    1  C           1     -34.288  -3.835 -12.062  0.00  0.00     0.274 C 
ENDROOT
BRANCH   1   2
HETATM    2  C           1     -33.725  -4.469 -10.798  0.00  0.00     0.044 C 
BRANCH   2   3
HETATM    3  C           1     -33.564  -5.969 -11.010  0.00  0.00     0.030 C 
BRANCH   3   4
HETATM    4  C           1     -34.599  -6.714 -10.177  0.00  0.00     0.248 C 
BRANCH   4   5
HETATM    5  N           1     -34.816  -8.081 -10.754  0.00  0.00    -0.079 N 
HETATM    6  H           1     -33.973  -8.674 -10.572  0.00  0.00     0.274 HD
HETATM    7  H           1     -35.652  -8.520 -10.307  0.00  0.00     0.274 HD
HETATM    8  H           1     -34.971  -8.004 -11.784  0.00  0.00     0.274 HD
ENDBRANCH   4   5
ENDBRANCH   3   4
ENDBRANCH   2   3
ENDBRANCH   1   2
BRANCH   1   9
HETATM    9  C           1     -34.462  -2.352 -11.846  0.00  0.00     0.249 C 
HETATM   10  N           1     -35.359  -1.649 -12.606  0.00  0.00    -0.344 N 
HETATM   11  H           1     -35.906  -2.125 -13.311  0.00  0.00     0.163 HD
HETATM   12  O           1     -33.808  -1.783 -11.004  0.00  0.00    -0.271 OA
BRANCH  10  13
HETATM   13  C           1     -35.526  -0.224 -12.398  0.00  0.00     0.189 C 
BRANCH  13  14
HETATM   14  C           1     -35.760   0.460 -13.738  0.00  0.00     0.010 C 
HETATM   15  C           1     -34.639   1.456 -14.001  0.00  0.00     0.012 C 
HETATM   16  C           1     -35.780  -0.588 -14.845  0.00  0.00     0.012 C 
ENDBRANCH  13  14
BRANCH  13  17
HETATM   17  C           1     -36.712   0.016 -11.496  0.00  0.00     0.197 C 
HETATM   18  O           1     -37.851  -0.364 -11.847  0.00  0.00    -0.646 OA
HETATM   19  O           1     -36.557   0.594 -10.399  0.00  0.00    -0.646 OA
ENDBRANCH  13  17
ENDBRANCH  10  13
ENDBRANCH   1   9
BRANCH   1  20
HETATM   20  N           1     -33.340  -4.066 -13.202  0.00  0.00    -0.067 N 
HETATM   21  H           1     -33.598  -3.444 -14.001  0.00  0.00     0.275 HD
HETATM   22  H           1     -32.366  -3.850 -12.893  0.00  0.00     0.275 HD
HETATM   23  H           1     -33.396  -5.064 -13.506  0.00  0.00     0.257 HD
ENDBRANCH   1  20
TORSDOF 9
ENDMDL
MODEL 3
REMARK VINA RESULT:      -6.2     12.427     14.283
REMARK  9 active torsions:
REMARK  status: ('A' for Active; 'I' for Inactive)
REMARK    1  A    between atoms: C_1  and  C_8 
REMARK    2  A    between atoms: C_1  and  C_2 
REMARK    3  A    between atoms: C_2  and  N_12 
REMARK    4  A    between atoms: C_4  and  C_5 
REMARK    5  A    between atoms: C_5  and  C_11 
REMARK    6  A    between atoms: C_5  and  N_21 
REMARK    7  A    between atoms: C_8  and  C_9 
REMARK    8  A    between atoms: C_9  and  C_10 
REMARK    9  A    between atoms: C_9  and  N_23 
REMARK       I    between atoms: C_10  and  N_21 
ROOT
HETATM    1  C           1     -33.412  -2.931 -11.325  0.00  0.00     0.274 C 
ENDROOT
BRANCH   1   2
HETATM    2  C           1     -33.977  -4.086 -10.510  0.00  0.00     0.044 C 
BRANCH   2   3
HETATM    3  C           1     -33.353  -5.394 -10.980  0.00  0.00     0.030 C 
BRANCH   3   4
HETATM    4  C           1     -34.440  -6.451 -11.129  0.00  0.00     0.248 C 
BRANCH   4   5
HETATM    5  N           1     -35.074  -6.329 -12.483  0.00  0.00    -0.079 N 
HETATM    6  H           1     -35.797  -7.076 -12.598  0.00  0.00     0.274 HD
HETATM    7  H           1     -35.526  -5.391 -12.573  0.00  0.00     0.274 HD
HETATM    8  H           1     -34.342  -6.436 -13.221  0.00  0.00     0.274 HD
ENDBRANCH   4   5
ENDBRANCH   3   4
ENDBRANCH   2   3
ENDBRANCH   1   2
BRANCH   1   9
HETATM    9  C           1     -34.369  -2.587 -12.440  0.00  0.00     0.249 C 
HETATM   10  N           1     -34.879  -1.319 -12.537  0.00  0.00    -0.344 N 
HETATM   11  H           1     -34.615  -0.614 -11.862  0.00  0.00     0.163 HD
HETATM   12  O           1     -34.686  -3.428 -13.247  0.00  0.00    -0.271 OA
BRANCH  10  13
HETATM   13  C           1     -35.799  -0.988 -13.608  0.00  0.00     0.189 C 
BRANCH  13  14
HETATM   14  C           1     -36.832   0.008 -13.100  0.00  0.00     0.010 C 
HETATM   15  C           1     -38.074  -0.056 -13.979  0.00  0.00     0.012 C 
HETATM   16  C           1     -37.206  -0.338 -11.664  0.00  0.00     0.012 C 
ENDBRANCH  13  14
BRANCH  13  17
HETATM   17  C           1     -35.032  -0.377 -14.756  0.00  0.00     0.197 C 
HETATM   18  O           1     -35.040  -0.931 -15.877  0.00  0.00    -0.646 OA
HETATM   19  O           1     -34.391   0.682 -14.587  0.00  0.00    -0.646 OA
ENDBRANCH  13  17
ENDBRANCH  10  13
ENDBRANCH   1   9
BRANCH   1  20
HETATM   20  N           1     -33.230  -1.736 -10.437  0.00  0.00    -0.067 N 
HETATM   21  H           1     -33.164  -2.047  -9.442  0.00  0.00     0.275 HD
HETATM   22  H           1     -32.352  -1.236 -10.703  0.00  0.00     0.275 HD
HETATM   23  H           1     -34.045  -1.091 -10.548  0.00  0.00     0.257 HD
ENDBRANCH   1  20
TORSDOF 9
ENDMDL
MODEL 4
REMARK VINA RESULT:      -6.2     13.316     14.655
REMARK  9 active torsions:
REMARK  status: ('A' for Active; 'I' for Inactive)
REMARK    1  A    between atoms: C_1  and  C_8 
REMARK    2  A    between atoms: C_1  and  C_2 
REMARK    3  A    between atoms: C_2  and  N_12 
REMARK    4  A    between atoms: C_4  and  C_5 
REMARK    5  A    between atoms: C_5  and  C_11 
REMARK    6  A    between atoms: C_5  and  N_21 
REMARK    7  A    between atoms: C_8  and  C_9 
REMARK    8  A    between atoms: C_9  and  C_10 
REMARK    9  A    between atoms: C_9  and  N_23 
REMARK       I    between atoms: C_10  and  N_21 
ROOT
HETATM    1  C           1     -34.401  -2.534 -11.820  0.00  0.00     0.274 C 
ENDROOT
BRANCH   1   2
HETATM    2  C           1     -35.171  -3.755 -11.335  0.00  0.00     0.044 C 
BRANCH   2   3
HETATM    3  C           1     -34.235  -4.670 -10.555  0.00  0.00     0.030 C 
BRANCH   3   4
HETATM    4  C           1     -34.361  -6.093 -11.083  0.00  0.00     0.248 C 
BRANCH   4   5
HETATM    5  N           1     -34.871  -6.061 -12.493  0.00  0.00    -0.079 N 
HETATM    6  H           1     -34.378  -5.307 -13.025  0.00  0.00     0.274 HD
HETATM    7  H           1     -34.691  -6.983 -12.949  0.00  0.00     0.274 HD
HETATM    8  H           1     -35.898  -5.868 -12.487  0.00  0.00     0.274 HD
ENDBRANCH   4   5
ENDBRANCH   3   4
ENDBRANCH   2   3
ENDBRANCH   1   2
BRANCH   1   9
HETATM    9  C           1     -35.286  -1.706 -12.719  0.00  0.00     0.249 C 
HETATM   10  N           1     -34.810  -1.256 -13.922  0.00  0.00    -0.344 N 
HETATM   11  H           1     -33.866  -1.480 -14.208  0.00  0.00     0.163 HD
HETATM   12  O           1     -36.414  -1.439 -12.378  0.00  0.00    -0.271 OA
BRANCH  10  13
HETATM   13  C           1     -35.660  -0.461 -14.786  0.00  0.00     0.189 C 
BRANCH  13  14
HETATM   14  C           1     -35.021   0.903 -15.010  0.00  0.00     0.010 C 
HETATM   15  C           1     -36.028   1.832 -15.676  0.00  0.00     0.012 C 
HETATM   16  C           1     -34.597   1.490 -13.670  0.00  0.00     0.012 C 
ENDBRANCH  13  14
BRANCH  13  17
HETATM   17  C           1     -35.826  -1.163 -16.112  0.00  0.00     0.197 C 
HETATM   18  O           1     -34.859  -1.767 -16.624  0.00  0.00    -0.646 OA
HETATM   19  O           1     -36.930  -1.143 -16.697  0.00  0.00    -0.646 OA
ENDBRANCH  13  17
ENDBRANCH  10  13
ENDBRANCH   1   9
BRANCH   1  20
HETATM   20  N           1     -33.978  -1.709 -10.640  0.00  0.00    -0.067 N 
HETATM   21  H           1     -34.444  -0.775 -10.682  0.00  0.00     0.275 HD
HETATM   22  H           1     -34.253  -2.197  -9.758  0.00  0.00     0.275 HD
HETATM   23  H           1     -32.940  -1.582 -10.659  0.00  0.00     0.257 HD
ENDBRANCH   1  20
TORSDOF 9
ENDMDL
MODEL 5
REMARK VINA RESULT:      -5.9     12.114     13.878
REMARK  9 active torsions:
REMARK  status: ('A' for Active; 'I' for Inactive)
REMARK    1  A    between atoms: C_1  and  C_8 
REMARK    2  A    between atoms: C_1  and  C_2 
REMARK    3  A    between atoms: C_2  and  N_12 
REMARK    4  A    between atoms: C_4  and  C_5 
REMARK    5  A    between atoms: C_5  and  C_11 
REMARK    6  A    between atoms: C_5  and  N_21 
REMARK    7  A    between atoms: C_8  and  C_9 
REMARK    8  A    between atoms: C_9  and  C_10 
REMARK    9  A    between atoms: C_9  and  N_23 
REMARK       I    between atoms: C_10  and  N_21 
ROOT
HETATM    1  C           1     -33.065  -4.522 -16.707  0.00  0.00     0.274 C 
ENDROOT
BRANCH   1   2
HETATM    2  C           1     -31.631  -4.891 -16.355  0.00  0.00     0.044 C 
BRANCH   2   3
HETATM    3  C           1     -31.148  -5.999 -17.283  0.00  0.00     0.030 C 
BRANCH   3   4
HETATM    4  C           1     -29.802  -6.518 -16.796  0.00  0.00     0.248 C 
BRANCH   4   5
HETATM    5  N           1     -29.564  -7.890 -17.352  0.00  0.00    -0.079 N 
HETATM    6  H           1     -30.278  -8.097 -18.088  0.00  0.00     0.274 HD
HETATM    7  H           1     -28.609  -7.935 -17.774  0.00  0.00     0.274 HD
HETATM    8  H           1     -29.640  -8.595 -16.585  0.00  0.00     0.274 HD
ENDBRANCH   4   5
ENDBRANCH   3   4
ENDBRANCH   2   3
ENDBRANCH   1   2
BRANCH   1   9
HETATM    9  C           1     -33.908  -4.531 -15.456  0.00  0.00     0.249 C 
HETATM   10  N           1     -33.409  -4.016 -14.290  0.00  0.00    -0.344 N 
HETATM   11  H           1     -32.475  -3.629 -14.267  0.00  0.00     0.163 HD
HETATM   12  O           1     -35.025  -4.994 -15.483  0.00  0.00    -0.271 OA
BRANCH  10  13
HETATM   13  C           1     -34.220  -4.025 -13.088  0.00  0.00     0.189 C 
BRANCH  13  14
HETATM   14  C           1     -33.327  -4.255 -11.876  0.00  0.00     0.010 C 
HETATM   15  C           1     -33.923  -5.356 -11.008  0.00  0.00     0.012 C 
HETATM   16  C           1     -31.937  -4.670 -12.342  0.00  0.00     0.012 C 
ENDBRANCH  13  14
BRANCH  13  17
HETATM   17  C           1     -34.926  -2.699 -12.949  0.00  0.00     0.197 C 
HETATM   18  O           1     -35.666  -2.485 -11.964  0.00  0.00    -0.646 OA
HETATM   19  O           1     -34.771  -1.814 -13.817  0.00  0.00    -0.646 OA
ENDBRANCH  13  17
ENDBRANCH  10  13
ENDBRANCH   1   9
BRANCH   1  20
HETATM   20  N           1     -33.093  -3.151 -17.318  0.00  0.00    -0.067 N 
HETATM   21  H           1     -33.016  -2.432 -16.563  0.00  0.00     0.275 HD
HETATM   22  H           1     -32.291  -3.049 -17.979  0.00  0.00     0.275 HD
HETATM   23  H           1     -33.991  -3.019 -17.835  0.00  0.00     0.257 HD
ENDBRANCH   1  20
TORSDOF 9
ENDMDL
MODEL 6
REMARK VINA RESULT:      -5.8     12.568     14.792
REMARK  9 active torsions:
REMARK  status: ('A' for Active; 'I' for Inactive)
REMARK    1  A    between atoms: C_1  and  C_8 
REMARK    2  A    between atoms: C_1  and  C_2 
REMARK    3  A    between atoms: C_2  and  N_12 
REMARK    4  A    between atoms: C_4  and  C_5 
REMARK    5  A    between atoms: C_5  and  C_11 
REMARK    6  A    between atoms: C_5  and  N_21 
REMARK    7  A    between atoms: C_8  and  C_9 
REMARK    8  A    between atoms: C_9  and  C_10 
REMARK    9  A    between atoms: C_9  and  N_23 
REMARK       I    between atoms: C_10  and  N_21 
ROOT
HETATM    1  C           1     -36.827  -0.043 -12.766  0.00  0.00     0.274 C 
ENDROOT
BRANCH   1   2
HETATM    2  C           1     -37.467  -0.537 -11.476  0.00  0.00     0.044 C 
BRANCH   2   3
HETATM    3  C           1     -37.154   0.437 -10.347  0.00  0.00     0.030 C 
BRANCH   3   4
HETATM    4  C           1     -36.840  -0.342  -9.077  0.00  0.00     0.248 C 
BRANCH   4   5
HETATM    5  N           1     -35.945   0.478  -8.195  0.00  0.00    -0.079 N 
HETATM    6  H           1     -35.102  -0.084  -7.934  0.00  0.00     0.274 HD
HETATM    7  H           1     -35.645   1.338  -8.707  0.00  0.00     0.274 HD
HETATM    8  H           1     -36.464   0.750  -7.330  0.00  0.00     0.274 HD
ENDBRANCH   4   5
ENDBRANCH   3   4
ENDBRANCH   2   3
ENDBRANCH   1   2
BRANCH   1   9
HETATM    9  C           1     -35.590  -0.856 -13.057  0.00  0.00     0.249 C 
HETATM   10  N           1     -35.403  -2.064 -12.440  0.00  0.00    -0.344 N 
HETATM   11  H           1     -36.095  -2.412 -11.789  0.00  0.00     0.163 HD
HETATM   12  O           1     -34.763  -0.441 -13.835  0.00  0.00    -0.271 OA
BRANCH  10  13
HETATM   13  C           1     -34.214  -2.845 -12.720  0.00  0.00     0.189 C 
BRANCH  13  14
HETATM   14  C           1     -33.682  -3.442 -11.424  0.00  0.00     0.010 C 
HETATM   15  C           1     -32.357  -4.141 -11.693  0.00  0.00     0.012 C 
HETATM   16  C           1     -33.473  -2.331 -10.402  0.00  0.00     0.012 C 
ENDBRANCH  13  14
BRANCH  13  17
HETATM   17  C           1     -34.558  -3.956 -13.682  0.00  0.00     0.197 C 
HETATM   18  O           1     -34.301  -3.830 -14.899  0.00  0.00    -0.646 OA
HETATM   19  O           1     -35.098  -5.002 -13.262  0.00  0.00    -0.646 OA
ENDBRANCH  13  17
ENDBRANCH  10  13
ENDBRANCH   1   9
BRANCH   1  20
HETATM   20  N           1     -37.802  -0.196 -13.897  0.00  0.00    -0.067 N 
HETATM   21  H           1     -38.628   0.423 -13.731  0.00  0.00     0.275 HD
HETATM   22  H           1     -37.339   0.075 -14.793  0.00  0.00     0.275 HD
HETATM   23  H           1     -38.117  -1.190 -13.954  0.00  0.00     0.257 HD
ENDBRANCH   1  20
TORSDOF 9
ENDMDL
MODEL 7
REMARK VINA RESULT:      -5.7      2.600      6.327
REMARK  9 active torsions:
REMARK  status: ('A' for Active; 'I' for Inactive)
REMARK    1  A    between atoms: C_1  and  C_8 
REMARK    2  A    between atoms: C_1  and  C_2 
REMARK    3  A    between atoms: C_2  and  N_12 
REMARK    4  A    between atoms: C_4  and  C_5 
REMARK    5  A    between atoms: C_5  and  C_11 
REMARK    6  A    between atoms: C_5  and  N_21 
REMARK    7  A    between atoms: C_8  and  C_9 
REMARK    8  A    between atoms: C_9  and  C_10 
REMARK    9  A    between atoms: C_9  and  N_23 
REMARK       I    between atoms: C_10  and  N_21 
ROOT
HETATM    1  C           1     -23.683  -3.996  -9.999  0.00  0.00     0.274 C 
ENDROOT
BRANCH   1   2
HETATM    2  C           1     -23.265  -3.020 -11.090  0.00  0.00     0.044 C 
BRANCH   2   3
HETATM    3  C           1     -24.252  -3.097 -12.247  0.00  0.00     0.030 C 
BRANCH   3   4
HETATM    4  C           1     -23.577  -2.609 -13.523  0.00  0.00     0.248 C 
BRANCH   4   5
HETATM    5  N           1     -22.237  -3.266 -13.663  0.00  0.00    -0.079 N 
HETATM    6  H           1     -22.160  -3.706 -14.609  0.00  0.00     0.274 HD
HETATM    7  H           1     -21.484  -2.550 -13.551  0.00  0.00     0.274 HD
HETATM    8  H           1     -22.131  -4.002 -12.928  0.00  0.00     0.274 HD
ENDBRANCH   4   5
ENDBRANCH   3   4
ENDBRANCH   2   3
ENDBRANCH   1   2
BRANCH   1   9
HETATM    9  C           1     -22.453  -4.592  -9.359  0.00  0.00     0.249 C 
HETATM   10  N           1     -22.438  -4.851  -8.014  0.00  0.00    -0.344 N 
HETATM   11  H           1     -23.252  -4.643  -7.450  0.00  0.00     0.163 HD
HETATM   12  O           1     -21.482  -4.841 -10.032  0.00  0.00    -0.271 OA
BRANCH  10  13
HETATM   13  C           1     -21.257  -5.424  -7.399  0.00  0.00     0.189 C 
BRANCH  13  14
HETATM   14  C           1     -20.371  -4.306  -6.864  0.00  0.00     0.010 C 
HETATM   15  C           1     -20.029  -4.584  -5.407  0.00  0.00     0.012 C 
HETATM   16  C           1     -19.089  -4.240  -7.684  0.00  0.00     0.012 C 
ENDBRANCH  13  14
BRANCH  13  17
HETATM   17  C           1     -21.670  -6.326  -6.262  0.00  0.00     0.197 C 
HETATM   18  O           1     -22.549  -5.952  -5.456  0.00  0.00    -0.646 OA
HETATM   19  O           1     -21.135  -7.447  -6.128  0.00  0.00    -0.646 OA
ENDBRANCH  13  17
ENDBRANCH  10  13
ENDBRANCH   1   9
BRANCH   1  20
HETATM   20  N           1     -24.485  -3.270  -8.959  0.00  0.00    -0.067 N 
HETATM   21  H           1     -23.858  -2.634  -8.416  0.00  0.00     0.275 HD
HETATM   22  H           1     -25.232  -2.708  -9.426  0.00  0.00     0.275 HD
HETATM   23  H           1     -24.923  -3.963  -8.311  0.00  0.00     0.257 HD
ENDBRANCH   1  20
TORSDOF 9
ENDMDL
MODEL 8
REMARK VINA RESULT:      -5.7     12.994     15.292
REMARK  9 active torsions:
REMARK  status: ('A' for Active; 'I' for Inactive)
REMARK    1  A    between atoms: C_1  and  C_8 
REMARK    2  A    between atoms: C_1  and  C_2 
REMARK    3  A    between atoms: C_2  and  N_12 
REMARK    4  A    between atoms: C_4  and  C_5 
REMARK    5  A    between atoms: C_5  and  C_11 
REMARK    6  A    between atoms: C_5  and  N_21 
REMARK    7  A    between atoms: C_8  and  C_9 
REMARK    8  A    between atoms: C_9  and  C_10 
REMARK    9  A    between atoms: C_9  and  N_23 
REMARK       I    between atoms: C_10  and  N_21 
ROOT
HETATM    1  C           1     -35.901   0.150 -14.532  0.00  0.00     0.274 C 
ENDROOT
BRANCH   1   2
HETATM    2  C           1     -36.459  -0.513 -15.783  0.00  0.00     0.044 C 
BRANCH   2   3
HETATM    3  C           1     -35.311  -0.979 -16.668  0.00  0.00     0.030 C 
BRANCH   3   4
HETATM    4  C           1     -35.157  -2.490 -16.548  0.00  0.00     0.248 C 
BRANCH   4   5
HETATM    5  N           1     -33.876  -2.916 -17.202  0.00  0.00    -0.079 N 
HETATM    6  H           1     -33.469  -2.110 -17.730  0.00  0.00     0.274 HD
HETATM    7  H           1     -33.199  -3.228 -16.470  0.00  0.00     0.274 HD
HETATM    8  H           1     -34.067  -3.704 -17.861  0.00  0.00     0.274 HD
ENDBRANCH   4   5
ENDBRANCH   3   4
ENDBRANCH   2   3
ENDBRANCH   1   2
BRANCH   1   9
HETATM    9  C           1     -35.930  -0.832 -13.386  0.00  0.00     0.249 C 
HETATM   10  N           1     -34.781  -1.472 -13.003  0.00  0.00    -0.344 N 
HETATM   11  H           1     -33.913  -1.286 -13.489  0.00  0.00     0.163 HD
HETATM   12  O           1     -36.966  -1.054 -12.806  0.00  0.00    -0.271 OA
BRANCH  10  13
HETATM   13  C           1     -34.809  -2.415 -11.903  0.00  0.00     0.189 C 
BRANCH  13  14
HETATM   14  C           1     -33.794  -3.521 -12.157  0.00  0.00     0.010 C 
HETATM   15  C           1     -34.001  -4.642 -11.146  0.00  0.00     0.012 C 
HETATM   16  C           1     -33.981  -4.066 -13.567  0.00  0.00     0.012 C 
ENDBRANCH  13  14
BRANCH  13  17
HETATM   17  C           1     -34.463  -1.699 -10.620  0.00  0.00     0.197 C 
HETATM   18  O           1     -35.371  -1.215  -9.910  0.00  0.00    -0.646 OA
HETATM   19  O           1     -33.269  -1.591 -10.266  0.00  0.00    -0.646 OA
ENDBRANCH  13  17
ENDBRANCH  10  13
ENDBRANCH   1   9
BRANCH   1  20
HETATM   20  N           1     -34.486   0.581 -14.784  0.00  0.00    -0.067 N 
HETATM   21  H           1     -34.132   1.118 -13.960  0.00  0.00     0.275 HD
HETATM   22  H           1     -33.887  -0.263 -14.933  0.00  0.00     0.275 HD
HETATM   23  H           1     -34.452   1.186 -15.635  0.00  0.00     0.257 HD
ENDBRANCH   1  20
TORSDOF 9
ENDMDL
MODEL 9
REMARK VINA RESULT:      -5.7     13.009     15.755
REMARK  9 active torsions:
REMARK  status: ('A' for Active; 'I' for Inactive)
REMARK    1  A    between atoms: C_1  and  C_8 
REMARK    2  A    between atoms: C_1  and  C_2 
REMARK    3  A    between atoms: C_2  and  N_12 
REMARK    4  A    between atoms: C_4  and  C_5 
REMARK    5  A    between atoms: C_5  and  C_11 
REMARK    6  A    between atoms: C_5  and  N_21 
REMARK    7  A    between atoms: C_8  and  C_9 
REMARK    8  A    between atoms: C_9  and  C_10 
REMARK    9  A    between atoms: C_9  and  N_23 
REMARK       I    between atoms: C_10  and  N_21 
ROOT
HETATM    1  C           1     -35.742   0.023 -14.559  0.00  0.00     0.274 C 
ENDROOT
BRANCH   1   2
HETATM    2  C           1     -35.823  -0.760 -15.862  0.00  0.00     0.044 C 
BRANCH   2   3
HETATM    3  C           1     -37.240  -0.680 -16.416  0.00  0.00     0.030 C 
BRANCH   3   4
HETATM    4  C           1     -38.075   0.249 -15.546  0.00  0.00     0.248 C 
BRANCH   4   5
HETATM    5  N           1     -38.045   1.634 -16.121  0.00  0.00    -0.079 N 
HETATM    6  H           1     -37.223   2.154 -15.737  0.00  0.00     0.274 HD
HETATM    7  H           1     -37.966   1.578 -17.161  0.00  0.00     0.274 HD
HETATM    8  H           1     -38.925   2.136 -15.864  0.00  0.00     0.274 HD
ENDBRANCH   4   5
ENDBRANCH   3   4
ENDBRANCH   2   3
ENDBRANCH   1   2
BRANCH   1   9
HETATM    9  C           1     -35.803  -0.932 -13.393  0.00  0.00     0.249 C 
HETATM   10  N           1     -34.694  -1.655 -13.041  0.00  0.00    -0.344 N 
HETATM   11  H           1     -33.834  -1.548 -13.563  0.00  0.00     0.163 HD
HETATM   12  O           1     -36.829  -1.060 -12.769  0.00  0.00    -0.271 OA
BRANCH  10  13
HETATM   13  C           1     -34.752  -2.573 -11.921  0.00  0.00     0.189 C 
BRANCH  13  14
HETATM   14  C           1     -33.815  -3.746 -12.177  0.00  0.00     0.010 C 
HETATM   15  C           1     -34.160  -4.887 -11.229  0.00  0.00     0.012 C 
HETATM   16  C           1     -33.973  -4.215 -13.617  0.00  0.00     0.012 C 
ENDBRANCH  13  14
BRANCH  13  17
HETATM   17  C           1     -34.329  -1.856 -10.662  0.00  0.00     0.197 C 
HETATM   18  O           1     -33.115  -1.690 -10.415  0.00  0.00    -0.646 OA
HETATM   19  O           1     -35.193  -1.427  -9.867  0.00  0.00    -0.646 OA
ENDBRANCH  13  17
ENDBRANCH  10  13
ENDBRANCH   1   9
BRANCH   1  20
HETATM   20  N           1     -34.450   0.785 -14.514  0.00  0.00    -0.067 N 
HETATM   21  H           1     -34.587   1.672 -13.979  0.00  0.00     0.275 HD
HETATM   22  H           1     -33.721   0.204 -14.043  0.00  0.00     0.275 HD
HETATM   23  H           1     -34.143   1.008 -15.487  0.00  0.00     0.257 HD
ENDBRANCH   1  20
TORSDOF 9
ENDMDL
