MODEL 1
REMARK VINA RESULT:      -7.7      0.000      0.000
REMARK  9 active torsions:
REMARK  status: ('A' for Active; 'I' for Inactive)
REMARK    1  A    between atoms: N_3  and  C_26 
REMARK       I    between atoms: N_3  and  C_23 
REMARK    2  A    between atoms: C_4  and  C_16 
REMARK    3  A    between atoms: O_5  and  C_18 
REMARK    4  A    between atoms: C_7  and  C_13 
REMARK    5  A    between atoms: N_10  and  C_17 
REMARK    6  A    between atoms: C_13  and  C_26 
REMARK    7  A    between atoms: C_16  and  C_17 
REMARK    8  A    between atoms: C_17  and  C_23 
REMARK    9  A    between atoms: C_25  and  C_26 
ROOT
HETATM    1  C           1     -22.169  -5.228  -6.851  0.00  0.00     0.260 C 
ENDROOT
BRANCH   1   2
HETATM    2  N           1     -23.563  -4.966  -6.361  0.00  0.00    -0.067 N 
HETATM    3  H           1     -24.163  -4.666  -7.162  0.00  0.00     0.275 HD
HETATM    4  H           1     -23.954  -5.838  -5.940  0.00  0.00     0.275 HD
HETATM    5  H           1     -23.541  -4.209  -5.639  0.00  0.00     0.275 HD
ENDBRANCH   1   2
BRANCH   1   6
HETATM    6  C           1     -21.552  -3.927  -7.346  0.00  0.00     0.079 C 
BRANCH   6   7
HETATM    7  C           1     -21.611  -3.883  -8.840  0.00  0.00    -0.056 A 
HETATM    8  C           1     -20.458  -4.117  -9.591  0.00  0.00     0.010 A 
HETATM    9  C           1     -20.513  -4.076 -10.984  0.00  0.00     0.037 A 
HETATM   10  C           1     -21.719  -3.800 -11.627  0.00  0.00     0.065 A 
HETATM   11  C           1     -22.872  -3.565 -10.877  0.00  0.00     0.037 A 
HETATM   12  C           1     -22.817  -3.606  -9.483  0.00  0.00     0.010 A 
BRANCH  10  13
HETATM   13  O           1     -21.773  -3.759 -12.980  0.00  0.00    -0.361 OA
HETATM   14  H           1     -22.704  -3.822 -13.247  0.00  0.00     0.217 HD
ENDBRANCH  10  13
ENDBRANCH   6   7
ENDBRANCH   1   6
BRANCH   1  15
HETATM   15  C           1     -21.336  -5.784  -5.722  0.00  0.00     0.130 C 
HETATM   16  N           1     -21.420  -7.112  -5.400  0.00  0.00    -0.359 N 
HETATM   17  H           1     -22.040  -7.721  -5.918  0.00  0.00     0.162 HD
HETATM   18  O           1     -20.597  -5.057  -5.102  0.00  0.00    -0.397 OA
BRANCH  16  19
HETATM   19  C           1     -20.619  -7.646  -4.315  0.00  0.00     0.184 C 
BRANCH  19  20
HETATM   20  C           1     -21.536  -8.178  -3.221  0.00  0.00     0.040 C 
BRANCH  20  21
HETATM   21  C           1     -21.325  -7.375  -1.945  0.00  0.00    -0.018 C 
HETATM   22  C           1     -21.753  -8.207  -0.743  0.00  0.00     0.289 C 
HETATM   23  C           1     -22.159  -6.102  -2.003  0.00  0.00     0.009 C 
ENDBRANCH  20  21
ENDBRANCH  19  20
BRANCH  19  24
HETATM   24  C           1     -19.754  -8.768  -4.834  0.00  0.00     0.196 C 
HETATM   25  O           1     -18.639  -8.989  -4.315  0.00  0.00    -0.646 OA
HETATM   26  O           1     -20.152  -9.475  -5.785  0.00  0.00    -0.646 OA
ENDBRANCH  19  24
ENDBRANCH  16  19
ENDBRANCH   1  15
TORSDOF 9
ENDMDL
MODEL 2
REMARK VINA RESULT:      -7.1      2.261      7.950
REMARK  9 active torsions:
REMARK  status: ('A' for Active; 'I' for Inactive)
REMARK    1  A    between atoms: N_3  and  C_26 
REMARK       I    between atoms: N_3  and  C_23 
REMARK    2  A    between atoms: C_4  and  C_16 
REMARK    3  A    between atoms: O_5  and  C_18 
REMARK    4  A    between atoms: C_7  and  C_13 
REMARK    5  A    between atoms: N_10  and  C_17 
REMARK    6  A    between atoms: C_13  and  C_26 
REMARK    7  A    between atoms: C_16  and  C_17 
REMARK    8  A    between atoms: C_17  and  C_23 
REMARK    9  A    between atoms: C_25  and  C_26 
ROOT
HETATM    1  C           1     -21.095  -5.805  -6.959  0.00  0.00     0.260 C 
ENDROOT
BRANCH   1   2
HETATM    2  N           1     -19.696  -6.166  -7.361  0.00  0.00    -0.067 N 
HETATM    3  H           1     -19.354  -6.953  -6.765  0.00  0.00     0.275 HD
HETATM    4  H           1     -19.687  -6.460  -8.364  0.00  0.00     0.275 HD
HETATM    5  H           1     -19.073  -5.336  -7.235  0.00  0.00     0.275 HD
ENDBRANCH   1   2
BRANCH   1   6
HETATM    6  C           1     -21.088  -5.248  -5.541  0.00  0.00     0.079 C 
BRANCH   6   7
HETATM    7  C           1     -21.272  -6.367  -4.564  0.00  0.00    -0.056 A 
HETATM    8  C           1     -21.380  -7.681  -5.021  0.00  0.00     0.010 A 
HETATM    9  C           1     -21.552  -8.723  -4.109  0.00  0.00     0.037 A 
HETATM   10  C           1     -21.616  -8.453  -2.743  0.00  0.00     0.065 A 
HETATM   11  C           1     -21.509  -7.138  -2.286  0.00  0.00     0.037 A 
HETATM   12  C           1     -21.337  -6.096  -3.198  0.00  0.00     0.010 A 
BRANCH  10  13
HETATM   13  O           1     -21.784  -9.464  -1.858  0.00  0.00    -0.361 OA
HETATM   14  H           1     -22.071 -10.250  -2.351  0.00  0.00     0.217 HD
ENDBRANCH  10  13
ENDBRANCH   6   7
ENDBRANCH   1   6
BRANCH   1  15
HETATM   15  C           1     -21.638  -4.763  -7.906  0.00  0.00     0.130 C 
HETATM   16  N           1     -22.331  -5.148  -9.022  0.00  0.00    -0.359 N 
HETATM   17  H           1     -22.480  -6.131  -9.212  0.00  0.00     0.162 HD
HETATM   18  O           1     -21.459  -3.590  -7.681  0.00  0.00    -0.397 OA
BRANCH  16  19
HETATM   19  C           1     -22.852  -4.147  -9.933  0.00  0.00     0.184 C 
BRANCH  19  20
HETATM   20  C           1     -22.641  -4.608 -11.370  0.00  0.00     0.040 C 
BRANCH  20  21
HETATM   21  C           1     -21.907  -3.524 -12.149  0.00  0.00    -0.018 C 
HETATM   22  C           1     -20.835  -2.900 -11.266  0.00  0.00     0.289 C 
HETATM   23  C           1     -22.898  -2.450 -12.578  0.00  0.00     0.009 C 
ENDBRANCH  20  21
ENDBRANCH  19  20
BRANCH  19  24
HETATM   24  C           1     -24.327  -3.956  -9.679  0.00  0.00     0.196 C 
HETATM   25  O           1     -25.095  -4.942  -9.683  0.00  0.00    -0.646 OA
HETATM   26  O           1     -24.781  -2.811  -9.467  0.00  0.00    -0.646 OA
ENDBRANCH  19  24
ENDBRANCH  16  19
ENDBRANCH   1  15
TORSDOF 9
ENDMDL
MODEL 3
REMARK VINA RESULT:      -6.9     13.630     14.958
REMARK  9 active torsions:
REMARK  status: ('A' for Active; 'I' for Inactive)
REMARK    1  A    between atoms: N_3  and  C_26 
REMARK       I    between atoms: N_3  and  C_23 
REMARK    2  A    between atoms: C_4  and  C_16 
REMARK    3  A    between atoms: O_5  and  C_18 
REMARK    4  A    between atoms: C_7  and  C_13 
REMARK    5  A    between atoms: N_10  and  C_17 
REMARK    6  A    between atoms: C_13  and  C_26 
REMARK    7  A    between atoms: C_16  and  C_17 
REMARK    8  A    between atoms: C_17  and  C_23 
REMARK    9  A    between atoms: C_25  and  C_26 
ROOT
HETATM    1  C           1     -33.115  -4.604 -16.488  0.00  0.00     0.260 C 
ENDROOT
BRANCH   1   2
HETATM    2  N           1     -33.346  -3.385 -17.331  0.00  0.00    -0.067 N 
HETATM    3  H           1     -34.372  -3.235 -17.454  0.00  0.00     0.275 HD
HETATM    4  H           1     -32.927  -2.551 -16.860  0.00  0.00     0.275 HD
HETATM    5  H           1     -32.898  -3.519 -18.266  0.00  0.00     0.275 HD
ENDBRANCH   1   2
BRANCH   1   6
HETATM    6  C           1     -31.632  -4.721 -16.162  0.00  0.00     0.079 C 
BRANCH   6   7
HETATM    7  C           1     -31.028  -5.822 -16.975  0.00  0.00    -0.056 A 
HETATM    8  C           1     -31.849  -6.685 -17.701  0.00  0.00     0.010 A 
HETATM    9  C           1     -31.285  -7.711 -18.459  0.00  0.00     0.037 A 
HETATM   10  C           1     -29.901  -7.875 -18.493  0.00  0.00     0.065 A 
HETATM   11  C           1     -29.079  -7.012 -17.766  0.00  0.00     0.037 A 
HETATM   12  C           1     -29.643  -5.986 -17.008  0.00  0.00     0.010 A 
BRANCH  10  13
HETATM   13  O           1     -29.353  -8.871 -19.228  0.00  0.00    -0.361 OA
HETATM   14  H           1     -28.999  -9.538 -18.616  0.00  0.00     0.217 HD
ENDBRANCH  10  13
ENDBRANCH   6   7
ENDBRANCH   1   6
BRANCH   1  15
HETATM   15  C           1     -33.905  -4.486 -15.207  0.00  0.00     0.130 C 
HETATM   16  N           1     -33.369  -3.832 -14.131  0.00  0.00    -0.359 N 
HETATM   17  H           1     -32.443  -3.427 -14.193  0.00  0.00     0.162 HD
HETATM   18  O           1     -35.009  -4.970 -15.132  0.00  0.00    -0.397 OA
BRANCH  16  19
HETATM   19  C           1     -34.128  -3.719 -12.900  0.00  0.00     0.184 C 
BRANCH  19  20
HETATM   20  C           1     -33.229  -4.058 -11.716  0.00  0.00     0.040 C 
BRANCH  20  21
HETATM   21  C           1     -34.023  -4.848 -10.684  0.00  0.00    -0.018 C 
HETATM   22  C           1     -33.758  -6.336 -10.868  0.00  0.00     0.289 C 
HETATM   23  C           1     -35.510  -4.572 -10.870  0.00  0.00     0.009 C 
ENDBRANCH  20  21
ENDBRANCH  19  20
BRANCH  19  24
HETATM   24  C           1     -34.641  -2.308 -12.753  0.00  0.00     0.196 C 
HETATM   25  O           1     -35.463  -1.853 -13.577  0.00  0.00    -0.646 OA
HETATM   26  O           1     -34.242  -1.594 -11.808  0.00  0.00    -0.646 OA
ENDBRANCH  19  24
ENDBRANCH  16  19
ENDBRANCH   1  15
TORSDOF 9
ENDMDL
MODEL 4
REMARK VINA RESULT:      -6.8     13.515     15.842
REMARK  9 active torsions:
REMARK  status: ('A' for Active; 'I' for Inactive)
REMARK    1  A    between atoms: N_3  and  C_26 
REMARK       I    between atoms: N_3  and  C_23 
REMARK    2  A    between atoms: C_4  and  C_16 
REMARK    3  A    between atoms: O_5  and  C_18 
REMARK    4  A    between atoms: C_7  and  C_13 
REMARK    5  A    between atoms: N_10  and  C_17 
REMARK    6  A    between atoms: C_13  and  C_26 
REMARK    7  A    between atoms: C_16  and  C_17 
REMARK    8  A    between atoms: C_17  and  C_23 
REMARK    9  A    between atoms: C_25  and  C_26 
ROOT
HETATM    1  C           1     -36.679  -0.919 -10.602  0.00  0.00     0.260 C 
ENDROOT
BRANCH   1   2
HETATM    2  N           1     -36.939  -0.698  -9.141  0.00  0.00    -0.067 N 
HETATM    3  H           1     -37.770  -0.076  -9.025  0.00  0.00     0.275 HD
HETATM    4  H           1     -37.125  -1.616  -8.677  0.00  0.00     0.275 HD
HETATM    5  H           1     -36.103  -0.249  -8.703  0.00  0.00     0.275 HD
ENDBRANCH   1   2
BRANCH   1   6
HETATM    6  C           1     -36.362   0.414 -11.267  0.00  0.00     0.079 C 
BRANCH   6   7
HETATM    7  C           1     -36.347   0.239 -12.753  0.00  0.00    -0.056 A 
HETATM    8  C           1     -35.172   0.468 -13.470  0.00  0.00     0.010 A 
HETATM    9  C           1     -35.158   0.305 -14.856  0.00  0.00     0.037 A 
HETATM   10  C           1     -36.318  -0.087 -15.524  0.00  0.00     0.065 A 
HETATM   11  C           1     -37.493  -0.315 -14.807  0.00  0.00     0.037 A 
HETATM   12  C           1     -37.506  -0.152 -13.422  0.00  0.00     0.010 A 
BRANCH  10  13
HETATM   13  O           1     -36.304  -0.245 -16.869  0.00  0.00    -0.361 OA
HETATM   14  H           1     -35.686  -0.963 -17.082  0.00  0.00     0.217 HD
ENDBRANCH  10  13
ENDBRANCH   6   7
ENDBRANCH   1   6
BRANCH   1  15
HETATM   15  C           1     -35.508  -1.856 -10.768  0.00  0.00     0.130 C 
HETATM   16  N           1     -35.663  -3.030 -11.454  0.00  0.00    -0.359 N 
HETATM   17  H           1     -36.563  -3.270 -11.851  0.00  0.00     0.162 HD
HETATM   18  O           1     -34.434  -1.571 -10.294  0.00  0.00    -0.397 OA
BRANCH  16  19
HETATM   19  C           1     -34.538  -3.931 -11.614  0.00  0.00     0.184 C 
BRANCH  19  20
HETATM   20  C           1     -35.016  -5.371 -11.470  0.00  0.00     0.040 C 
BRANCH  20  21
HETATM   21  C           1     -34.235  -6.057 -10.358  0.00  0.00    -0.018 C 
HETATM   22  C           1     -32.946  -6.639 -10.924  0.00  0.00     0.289 C 
HETATM   23  C           1     -35.078  -7.178  -9.764  0.00  0.00     0.009 C 
ENDBRANCH  20  21
ENDBRANCH  19  20
BRANCH  19  24
HETATM   24  C           1     -33.930  -3.738 -12.981  0.00  0.00     0.196 C 
HETATM   25  O           1     -32.793  -4.193 -13.230  0.00  0.00    -0.646 OA
HETATM   26  O           1     -34.563  -3.122 -13.865  0.00  0.00    -0.646 OA
ENDBRANCH  19  24
ENDBRANCH  16  19
ENDBRANCH   1  15
TORSDOF 9
ENDMDL
MODEL 5
REMARK VINA RESULT:      -6.7      1.423      2.206
REMARK  9 active torsions:
REMARK  status: ('A' for Active; 'I' for Inactive)
REMARK    1  A    between atoms: N_3  and  C_26 
REMARK       I    between atoms: N_3  and  C_23 
REMARK    2  A    between atoms: C_4  and  C_16 
REMARK    3  A    between atoms: O_5  and  C_18 
REMARK    4  A    between atoms: C_7  and  C_13 
REMARK    5  A    between atoms: N_10  and  C_17 
REMARK    6  A    between atoms: C_13  and  C_26 
REMARK    7  A    between atoms: C_16  and  C_17 
REMARK    8  A    between atoms: C_17  and  C_23 
REMARK    9  A    between atoms: C_25  and  C_26 
ROOT
HETATM    1  C           1     -21.645  -6.290  -6.080  0.00  0.00     0.260 C 
ENDROOT
BRANCH   1   2
HETATM    2  N           1     -22.873  -5.948  -5.290  0.00  0.00    -0.067 N 
HETATM    3  H           1     -23.552  -6.741  -5.339  0.00  0.00     0.275 HD
HETATM    4  H           1     -22.610  -5.775  -4.294  0.00  0.00     0.275 HD
HETATM    5  H           1     -23.314  -5.087  -5.688  0.00  0.00     0.275 HD
ENDBRANCH   1   2
BRANCH   1   6
HETATM    6  C           1     -20.867  -5.017  -6.385  0.00  0.00     0.079 C 
BRANCH   6   7
HETATM    7  C           1     -21.098  -4.619  -7.809  0.00  0.00    -0.056 A 
HETATM    8  C           1     -22.323  -4.069  -8.190  0.00  0.00     0.010 A 
HETATM    9  C           1     -22.538  -3.700  -9.518  0.00  0.00     0.037 A 
HETATM   10  C           1     -21.529  -3.879 -10.465  0.00  0.00     0.065 A 
HETATM   11  C           1     -20.305  -4.430 -10.084  0.00  0.00     0.037 A 
HETATM   12  C           1     -20.090  -4.800  -8.756  0.00  0.00     0.010 A 
BRANCH  10  13
HETATM   13  O           1     -21.738  -3.521 -11.754  0.00  0.00    -0.361 OA
HETATM   14  H           1     -20.984  -3.835 -12.280  0.00  0.00     0.217 HD
ENDBRANCH  10  13
ENDBRANCH   6   7
ENDBRANCH   1   6
BRANCH   1  15
HETATM   15  C           1     -20.778  -7.230  -5.279  0.00  0.00     0.130 C 
HETATM   16  N           1     -21.195  -7.667  -4.051  0.00  0.00    -0.359 N 
HETATM   17  H           1     -22.086  -7.361  -3.680  0.00  0.00     0.162 HD
HETATM   18  O           1     -19.715  -7.596  -5.721  0.00  0.00    -0.397 OA
BRANCH  16  19
HETATM   19  C           1     -20.362  -8.571  -3.281  0.00  0.00     0.184 C 
BRANCH  19  20
HETATM   20  C           1     -20.405  -8.173  -1.811  0.00  0.00     0.040 C 
BRANCH  20  21
HETATM   21  C           1     -21.851  -8.153  -1.332  0.00  0.00    -0.018 C 
HETATM   22  C           1     -22.243  -6.729  -0.959  0.00  0.00     0.289 C 
HETATM   23  C           1     -21.993  -9.053  -0.111  0.00  0.00     0.009 C 
ENDBRANCH  20  21
ENDBRANCH  19  20
BRANCH  19  24
HETATM   24  C           1     -20.874  -9.981  -3.435  0.00  0.00     0.196 C 
HETATM   25  O           1     -21.900 -10.204  -4.114  0.00  0.00    -0.646 OA
HETATM   26  O           1     -20.274 -10.928  -2.882  0.00  0.00    -0.646 OA
ENDBRANCH  19  24
ENDBRANCH  16  19
ENDBRANCH   1  15
TORSDOF 9
ENDMDL
MODEL 6
REMARK VINA RESULT:      -6.7      1.854      2.761
REMARK  9 active torsions:
REMARK  status: ('A' for Active; 'I' for Inactive)
REMARK    1  A    between atoms: N_3  and  C_26 
REMARK       I    between atoms: N_3  and  C_23 
REMARK    2  A    between atoms: C_4  and  C_16 
REMARK    3  A    between atoms: O_5  and  C_18 
REMARK    4  A    between atoms: C_7  and  C_13 
REMARK    5  A    between atoms: N_10  and  C_17 
REMARK    6  A    between atoms: C_13  and  C_26 
REMARK    7  A    between atoms: C_16  and  C_17 
REMARK    8  A    between atoms: C_17  and  C_23 
REMARK    9  A    between atoms: C_25  and  C_26 
ROOT
HETATM    1  C           1     -20.371  -5.192  -6.419  0.00  0.00     0.260 C 
ENDROOT
BRANCH   1   2
HETATM    2  N           1     -20.004  -6.064  -7.583  0.00  0.00    -0.067 N 
HETATM    3  H           1     -20.272  -7.053  -7.376  0.00  0.00     0.275 HD
HETATM    4  H           1     -20.511  -5.737  -8.436  0.00  0.00     0.275 HD
HETATM    5  H           1     -18.973  -6.009  -7.747  0.00  0.00     0.275 HD
ENDBRANCH   1   2
BRANCH   1   6
HETATM    6  C           1     -21.078  -3.941  -6.925  0.00  0.00     0.079 C 
BRANCH   6   7
HETATM    7  C           1     -21.360  -4.084  -8.388  0.00  0.00    -0.056 A 
HETATM    8  C           1     -20.336  -3.897  -9.317  0.00  0.00     0.010 A 
HETATM    9  C           1     -20.600  -4.030 -10.681  0.00  0.00     0.037 A 
HETATM   10  C           1     -21.886  -4.351 -11.115  0.00  0.00     0.065 A 
HETATM   11  C           1     -22.910  -4.537 -10.186  0.00  0.00     0.037 A 
HETATM   12  C           1     -22.646  -4.404  -8.822  0.00  0.00     0.010 A 
BRANCH  10  13
HETATM   13  O           1     -22.142  -4.480 -12.439  0.00  0.00    -0.361 OA
HETATM   14  H           1     -23.067  -4.227 -12.592  0.00  0.00     0.217 HD
ENDBRANCH  10  13
ENDBRANCH   6   7
ENDBRANCH   1   6
BRANCH   1  15
HETATM   15  C           1     -21.290  -5.949  -5.492  0.00  0.00     0.130 C 
HETATM   16  N           1     -20.771  -6.839  -4.591  0.00  0.00    -0.359 N 
HETATM   17  H           1     -19.771  -6.989  -4.545  0.00  0.00     0.162 HD
HETATM   18  O           1     -22.483  -5.772  -5.547  0.00  0.00    -0.397 OA
BRANCH  16  19
HETATM   19  C           1     -21.654  -7.567  -3.700  0.00  0.00     0.184 C 
BRANCH  19  20
HETATM   20  C           1     -21.162  -9.003  -3.560  0.00  0.00     0.040 C 
BRANCH  20  21
HETATM   21  C           1     -19.811  -9.147  -4.247  0.00  0.00    -0.018 C 
HETATM   22  C           1     -19.864 -10.304  -5.237  0.00  0.00     0.289 C 
HETATM   23  C           1     -18.738  -9.424  -3.202  0.00  0.00     0.009 C 
ENDBRANCH  20  21
ENDBRANCH  19  20
BRANCH  19  24
HETATM   24  C           1     -21.659  -6.904  -2.345  0.00  0.00     0.196 C 
HETATM   25  O           1     -22.271  -5.827  -2.178  0.00  0.00    -0.646 OA
HETATM   26  O           1     -21.051  -7.431  -1.389  0.00  0.00    -0.646 OA
ENDBRANCH  19  24
ENDBRANCH  16  19
ENDBRANCH   1  15
TORSDOF 9
ENDMDL
MODEL 7
REMARK VINA RESULT:      -6.6      2.172      2.982
REMARK  9 active torsions:
REMARK  status: ('A' for Active; 'I' for Inactive)
REMARK    1  A    between atoms: N_3  and  C_26 
REMARK       I    between atoms: N_3  and  C_23 
REMARK    2  A    between atoms: C_4  and  C_16 
REMARK    3  A    between atoms: O_5  and  C_18 
REMARK    4  A    between atoms: C_7  and  C_13 
REMARK    5  A    between atoms: N_10  and  C_17 
REMARK    6  A    between atoms: C_13  and  C_26 
REMARK    7  A    between atoms: C_16  and  C_17 
REMARK    8  A    between atoms: C_17  and  C_23 
REMARK    9  A    between atoms: C_25  and  C_26 
ROOT
HETATM    1  C           1     -21.169  -6.096  -5.496  0.00  0.00     0.260 C 
ENDROOT
BRANCH   1   2
HETATM    2  N           1     -21.700  -5.927  -4.103  0.00  0.00    -0.067 N 
HETATM    3  H           1     -21.729  -6.856  -3.626  0.00  0.00     0.275 HD
HETATM    4  H           1     -21.076  -5.280  -3.569  0.00  0.00     0.275 HD
HETATM    5  H           1     -22.664  -5.526  -4.145  0.00  0.00     0.275 HD
ENDBRANCH   1   2
BRANCH   1   6
HETATM    6  C           1     -20.498  -4.803  -5.943  0.00  0.00     0.079 C 
BRANCH   6   7
HETATM    7  C           1     -20.951  -4.458  -7.326  0.00  0.00    -0.056 A 
HETATM    8  C           1     -20.032  -4.431  -8.376  0.00  0.00     0.010 A 
HETATM    9  C           1     -20.455  -4.108  -9.665  0.00  0.00     0.037 A 
HETATM   10  C           1     -21.797  -3.812  -9.906  0.00  0.00     0.065 A 
HETATM   11  C           1     -22.716  -3.838  -8.857  0.00  0.00     0.037 A 
HETATM   12  C           1     -22.293  -4.161  -7.567  0.00  0.00     0.010 A 
BRANCH  10  13
HETATM   13  O           1     -22.207  -3.499 -11.158  0.00  0.00    -0.361 OA
HETATM   14  H           1     -23.167  -3.351 -11.132  0.00  0.00     0.217 HD
ENDBRANCH  10  13
ENDBRANCH   6   7
ENDBRANCH   1   6
BRANCH   1  15
HETATM   15  C           1     -20.162  -7.220  -5.518  0.00  0.00     0.130 C 
HETATM   16  N           1     -20.046  -8.055  -4.439  0.00  0.00    -0.359 N 
HETATM   17  H           1     -20.635  -7.919  -3.627  0.00  0.00     0.162 HD
HETATM   18  O           1     -19.458  -7.381  -6.486  0.00  0.00    -0.397 OA
BRANCH  16  19
HETATM   19  C           1     -19.078  -9.135  -4.460  0.00  0.00     0.184 C 
BRANCH  19  20
HETATM   20  C           1     -18.547  -9.367  -3.051  0.00  0.00     0.040 C 
BRANCH  20  21
HETATM   21  C           1     -17.318 -10.266  -3.113  0.00  0.00    -0.018 C 
HETATM   22  C           1     -17.401 -11.317  -2.014  0.00  0.00     0.289 C 
HETATM   23  C           1     -16.064  -9.424  -2.915  0.00  0.00     0.009 C 
ENDBRANCH  20  21
ENDBRANCH  19  20
BRANCH  19  24
HETATM   24  C           1     -19.741 -10.394  -4.961  0.00  0.00     0.196 C 
HETATM   25  O           1     -20.482 -11.055  -4.201  0.00  0.00    -0.646 OA
HETATM   26  O           1     -19.549 -10.777  -6.134  0.00  0.00    -0.646 OA
ENDBRANCH  19  24
ENDBRANCH  16  19
ENDBRANCH   1  15
TORSDOF 9
ENDMDL
MODEL 8
REMARK VINA RESULT:      -6.3      2.534      3.735
REMARK  9 active torsions:
REMARK  status: ('A' for Active; 'I' for Inactive)
REMARK    1  A    between atoms: N_3  and  C_26 
REMARK       I    between atoms: N_3  and  C_23 
REMARK    2  A    between atoms: C_4  and  C_16 
REMARK    3  A    between atoms: O_5  and  C_18 
REMARK    4  A    between atoms: C_7  and  C_13 
REMARK    5  A    between atoms: N_10  and  C_17 
REMARK    6  A    between atoms: C_13  and  C_26 
REMARK    7  A    between atoms: C_16  and  C_17 
REMARK    8  A    between atoms: C_17  and  C_23 
REMARK    9  A    between atoms: C_25  and  C_26 
ROOT
HETATM    1  C           1     -20.650  -7.381  -4.602  0.00  0.00     0.260 C 
ENDROOT
BRANCH   1   2
HETATM    2  N           1     -21.250  -8.218  -5.692  0.00  0.00    -0.067 N 
HETATM    3  H           1     -20.861  -7.922  -6.615  0.00  0.00     0.275 HD
HETATM    4  H           1     -21.022  -9.224  -5.524  0.00  0.00     0.275 HD
HETATM    5  H           1     -22.289  -8.092  -5.695  0.00  0.00     0.275 HD
ENDBRANCH   1   2
BRANCH   1   6
HETATM    6  C           1     -21.255  -5.984  -4.644  0.00  0.00     0.079 C 
BRANCH   6   7
HETATM    7  C           1     -21.011  -5.374  -5.988  0.00  0.00    -0.056 A 
HETATM    8  C           1     -19.706  -5.148  -6.425  0.00  0.00     0.010 A 
HETATM    9  C           1     -19.479  -4.578  -7.678  0.00  0.00     0.037 A 
HETATM   10  C           1     -20.557  -4.234  -8.494  0.00  0.00     0.065 A 
HETATM   11  C           1     -21.863  -4.459  -8.057  0.00  0.00     0.037 A 
HETATM   12  C           1     -22.089  -5.029  -6.803  0.00  0.00     0.010 A 
BRANCH  10  13
HETATM   13  O           1     -20.337  -3.681  -9.711  0.00  0.00    -0.361 OA
HETATM   14  H           1     -19.398  -3.800  -9.930  0.00  0.00     0.217 HD
ENDBRANCH  10  13
ENDBRANCH   6   7
ENDBRANCH   1   6
BRANCH   1  15
HETATM   15  C           1     -20.937  -8.015  -3.264  0.00  0.00     0.130 C 
HETATM   16  N           1     -21.156  -9.364  -3.179  0.00  0.00    -0.359 N 
HETATM   17  H           1     -21.124  -9.936  -4.013  0.00  0.00     0.162 HD
HETATM   18  O           1     -20.976  -7.333  -2.268  0.00  0.00    -0.397 OA
BRANCH  16  19
HETATM   19  C           1     -21.432  -9.974  -1.892  0.00  0.00     0.184 C 
BRANCH  19  20
HETATM   20  C           1     -22.682 -10.839  -1.998  0.00  0.00     0.040 C 
BRANCH  20  21
HETATM   21  C           1     -23.573 -10.597  -0.787  0.00  0.00    -0.018 C 
HETATM   22  C           1     -23.098  -9.353  -0.046  0.00  0.00     0.289 C 
HETATM   23  C           1     -23.500 -11.800   0.144  0.00  0.00     0.009 C 
ENDBRANCH  20  21
ENDBRANCH  19  20
BRANCH  19  24
HETATM   24  C           1     -20.262 -10.832  -1.481  0.00  0.00     0.196 C 
HETATM   25  O           1     -19.576 -11.413  -2.349  0.00  0.00    -0.646 OA
HETATM   26  O           1     -19.978 -10.963  -0.271  0.00  0.00    -0.646 OA
ENDBRANCH  19  24
ENDBRANCH  16  19
ENDBRANCH   1  15
TORSDOF 9
ENDMDL
MODEL 9
REMARK VINA RESULT:      -6.2      6.853      8.976
REMARK  9 active torsions:
REMARK  status: ('A' for Active; 'I' for Inactive)
REMARK    1  A    between atoms: N_3  and  C_26 
REMARK       I    between atoms: N_3  and  C_23 
REMARK    2  A    between atoms: C_4  and  C_16 
REMARK    3  A    between atoms: O_5  and  C_18 
REMARK    4  A    between atoms: C_7  and  C_13 
REMARK    5  A    between atoms: N_10  and  C_17 
REMARK    6  A    between atoms: C_13  and  C_26 
REMARK    7  A    between atoms: C_16  and  C_17 
REMARK    8  A    between atoms: C_17  and  C_23 
REMARK    9  A    between atoms: C_25  and  C_26 
ROOT
HETATM    1  C           1     -20.966 -11.545  -0.004  0.00  0.00     0.260 C 
ENDROOT
BRANCH   1   2
HETATM    2  N           1     -21.966 -12.368   0.752  0.00  0.00    -0.067 N 
HETATM    3  H           1     -22.202 -11.891   1.651  0.00  0.00     0.275 HD
HETATM    4  H           1     -22.832 -12.478   0.178  0.00  0.00     0.275 HD
HETATM    5  H           1     -21.560 -13.310   0.954  0.00  0.00     0.275 HD
ENDBRANCH   1   2
BRANCH   1   6
HETATM    6  C           1     -20.661 -10.273   0.777  0.00  0.00     0.079 C 
BRANCH   6   7
HETATM    7  C           1     -21.172  -9.088   0.020  0.00  0.00    -0.056 A 
HETATM    8  C           1     -22.203  -8.312   0.551  0.00  0.00     0.010 A 
HETATM    9  C           1     -22.678  -7.207  -0.155  0.00  0.00     0.037 A 
HETATM   10  C           1     -22.124  -6.877  -1.392  0.00  0.00     0.065 A 
HETATM   11  C           1     -21.093  -7.654  -1.924  0.00  0.00     0.037 A 
HETATM   12  C           1     -20.618  -8.759  -1.217  0.00  0.00     0.010 A 
BRANCH  10  13
HETATM   13  O           1     -22.586  -5.805  -2.078  0.00  0.00    -0.361 OA
HETATM   14  H           1     -23.332  -5.429  -1.582  0.00  0.00     0.217 HD
ENDBRANCH  10  13
ENDBRANCH   6   7
ENDBRANCH   1   6
BRANCH   1  15
HETATM   15  C           1     -19.696 -12.340  -0.187  0.00  0.00     0.130 C 
HETATM   16  N           1     -18.549 -11.713  -0.593  0.00  0.00    -0.359 N 
HETATM   17  H           1     -18.552 -10.716  -0.771  0.00  0.00     0.162 HD
HETATM   18  O           1     -19.693 -13.529   0.023  0.00  0.00    -0.397 OA
BRANCH  16  19
HETATM   19  C           1     -17.329 -12.476  -0.770  0.00  0.00     0.184 C 
BRANCH  19  20
HETATM   20  C           1     -16.592 -11.978  -2.007  0.00  0.00     0.040 C 
BRANCH  20  21
HETATM   21  C           1     -17.315 -10.764  -2.575  0.00  0.00    -0.018 C 
HETATM   22  C           1     -17.844 -11.092  -3.966  0.00  0.00     0.289 C 
HETATM   23  C           1     -16.346  -9.593  -2.664  0.00  0.00     0.009 C 
ENDBRANCH  20  21
ENDBRANCH  19  20
BRANCH  19  24
HETATM   24  C           1     -16.448 -12.304   0.443  0.00  0.00     0.196 C 
HETATM   25  O           1     -15.541 -11.444   0.439  0.00  0.00    -0.646 OA
HETATM   26  O           1     -16.625 -13.022   1.450  0.00  0.00    -0.646 OA
ENDBRANCH  19  24
ENDBRANCH  16  19
ENDBRANCH   1  15
TORSDOF 9
ENDMDL
