MODEL 1
REMARK VINA RESULT:      -5.8      0.000      0.000
REMARK  9 active torsions:
REMARK  status: ('A' for Active; 'I' for Inactive)
REMARK    1  A    between atoms: C_1  and  C_2 
REMARK    2  A    between atoms: C_2  and  C_4 
REMARK    3  A    between atoms: C_2  and  N_17 
REMARK    4  A    between atoms: C_4  and  C_5 
REMARK    5  A    between atoms: C_7  and  C_11 
REMARK    6  A    between atoms: C_7  and  C_8 
REMARK    7  A    between atoms: C_7  and  N_21 
REMARK    8  A    between atoms: C_8  and  C_9 
REMARK    9  A    between atoms: C_9  and  Se_10 
REMARK       I    between atoms: C_11  and  N_17 
ROOT
HETATM    1  C           1     -21.653  -4.436  -7.703  0.00  0.00     0.249 C 
HETATM    2  H           1     -22.305  -5.811  -9.106  0.00  0.00     0.163 HD
HETATM    3  O           1     -21.588  -3.263  -7.423  0.00  0.00    -0.271 OA
HETATM    4  N           1     -22.250  -4.828  -8.870  0.00  0.00    -0.344 N 
ENDROOT
BRANCH   1   5
HETATM    5  C           1     -21.074  -5.468  -6.768  0.00  0.00     0.274 C 
BRANCH   5   6
HETATM    6  C           1     -22.132  -5.886  -5.755  0.00  0.00     0.042 C 
BRANCH   6   7
HETATM    7  C           1     -21.568  -6.976  -4.852  0.00  0.00     0.003 C 
BRANCH   7   8
HETATM    8 Se           1     -21.567  -6.352  -3.004  0.00  0.00     0.000 Se
HETATM    9  C           1     -20.914  -8.034  -2.266  0.00  0.00     0.000 C 
ENDBRANCH   7   8
ENDBRANCH   6   7
ENDBRANCH   5   6
BRANCH   5  10
HETATM   10  N           1     -19.895  -4.884  -6.046  0.00  0.00    -0.067 N 
HETATM   11  H           1     -20.171  -3.978  -5.606  0.00  0.00     0.275 HD
HETATM   12  H           1     -19.118  -4.722  -6.726  0.00  0.00     0.275 HD
HETATM   13  H           1     -19.577  -5.548  -5.305  0.00  0.00     0.275 HD
ENDBRANCH   5  10
ENDBRANCH   1   5
BRANCH   4  14
HETATM   14  C           1     -22.807  -3.835  -9.770  0.00  0.00     0.189 C 
BRANCH  14  15
HETATM   15  C           1     -24.313  -3.865  -9.680  0.00  0.00     0.197 C 
HETATM   16  O           1     -24.927  -4.941  -9.840  0.00  0.00    -0.646 OA
HETATM   17  O           1     -24.946  -2.812  -9.446  0.00  0.00    -0.646 OA
ENDBRANCH  14  15
BRANCH  14  18
HETATM   18  C           1     -22.376  -4.147 -11.197  0.00  0.00     0.014 C 
HETATM   19  C           1     -22.887  -3.056 -12.130  0.00  0.00     0.012 C 
BRANCH  18  20
HETATM   20  C           1     -20.857  -4.205 -11.267  0.00  0.00     0.002 C 
HETATM   21  C           1     -20.290  -2.794 -11.181  0.00  0.00     0.005 C 
ENDBRANCH  18  20
ENDBRANCH  14  18
ENDBRANCH   4  14
TORSDOF 9
ENDMDL
MODEL 2
REMARK VINA RESULT:      -5.4      3.433      7.281
REMARK  9 active torsions:
REMARK  status: ('A' for Active; 'I' for Inactive)
REMARK    1  A    between atoms: C_1  and  C_2 
REMARK    2  A    between atoms: C_2  and  C_4 
REMARK    3  A    between atoms: C_2  and  N_17 
REMARK    4  A    between atoms: C_4  and  C_5 
REMARK    5  A    between atoms: C_7  and  C_11 
REMARK    6  A    between atoms: C_7  and  C_8 
REMARK    7  A    between atoms: C_7  and  N_21 
REMARK    8  A    between atoms: C_8  and  C_9 
REMARK    9  A    between atoms: C_9  and  Se_10 
REMARK       I    between atoms: C_11  and  N_17 
ROOT
HETATM    1  C           1     -21.027  -5.379  -6.264  0.00  0.00     0.249 C 
HETATM    2  H           1     -22.488  -6.719  -5.668  0.00  0.00     0.163 HD
HETATM    3  O           1     -19.867  -5.062  -6.145  0.00  0.00    -0.271 OA
HETATM    4  N           1     -21.516  -6.452  -5.569  0.00  0.00    -0.344 N 
ENDROOT
BRANCH   1   5
HETATM    5  C           1     -21.935  -4.593  -7.176  0.00  0.00     0.274 C 
BRANCH   5   6
HETATM    6  C           1     -21.724  -5.043  -8.616  0.00  0.00     0.042 C 
BRANCH   6   7
HETATM    7  C           1     -22.730  -4.342  -9.520  0.00  0.00     0.003 C 
BRANCH   7   8
HETATM    8 Se           1     -21.806  -3.611 -11.074  0.00  0.00     0.000 Se
HETATM    9  C           1     -23.417  -2.879 -11.890  0.00  0.00     0.000 C 
ENDBRANCH   7   8
ENDBRANCH   6   7
ENDBRANCH   5   6
BRANCH   5  10
HETATM   10  N           1     -21.617  -3.131  -7.059  0.00  0.00    -0.067 N 
HETATM   11  H           1     -21.399  -2.746  -8.006  0.00  0.00     0.275 HD
HETATM   12  H           1     -20.792  -3.004  -6.430  0.00  0.00     0.275 HD
HETATM   13  H           1     -22.441  -2.627  -6.660  0.00  0.00     0.275 HD
ENDBRANCH   5  10
ENDBRANCH   1   5
BRANCH   4  14
HETATM   14  C           1     -20.643  -7.209  -4.692  0.00  0.00     0.189 C 
BRANCH  14  15
HETATM   15  C           1     -20.219  -8.482  -5.382  0.00  0.00     0.197 C 
HETATM   16  O           1     -19.012  -8.681  -5.639  0.00  0.00    -0.646 OA
HETATM   17  O           1     -21.074  -9.338  -5.696  0.00  0.00    -0.646 OA
ENDBRANCH  14  15
BRANCH  14  18
HETATM   18  C           1     -21.387  -7.550  -3.408  0.00  0.00     0.014 C 
HETATM   19  C           1     -20.442  -8.262  -2.448  0.00  0.00     0.012 C 
BRANCH  18  20
HETATM   20  C           1     -21.897  -6.269  -2.762  0.00  0.00     0.002 C 
HETATM   21  C           1     -22.274  -6.547  -1.312  0.00  0.00     0.005 C 
ENDBRANCH  18  20
ENDBRANCH  14  18
ENDBRANCH   4  14
TORSDOF 9
ENDMDL
MODEL 3
REMARK VINA RESULT:      -5.2      3.364      7.187
REMARK  9 active torsions:
REMARK  status: ('A' for Active; 'I' for Inactive)
REMARK    1  A    between atoms: C_1  and  C_2 
REMARK    2  A    between atoms: C_2  and  C_4 
REMARK    3  A    between atoms: C_2  and  N_17 
REMARK    4  A    between atoms: C_4  and  C_5 
REMARK    5  A    between atoms: C_7  and  C_11 
REMARK    6  A    between atoms: C_7  and  C_8 
REMARK    7  A    between atoms: C_7  and  N_21 
REMARK    8  A    between atoms: C_8  and  C_9 
REMARK    9  A    between atoms: C_9  and  Se_10 
REMARK       I    between atoms: C_11  and  N_17 
ROOT
HETATM    1  C           1     -21.481  -5.938  -5.505  0.00  0.00     0.249 C 
HETATM    2  H           1     -19.808  -6.817  -4.659  0.00  0.00     0.163 HD
HETATM    3  O           1     -22.687  -5.883  -5.486  0.00  0.00    -0.271 OA
HETATM    4  N           1     -20.819  -6.771  -4.643  0.00  0.00    -0.344 N 
ENDROOT
BRANCH   1   5
HETATM    5  C           1     -20.702  -5.089  -6.479  0.00  0.00     0.274 C 
BRANCH   5   6
HETATM    6  C           1     -21.647  -4.118  -7.177  0.00  0.00     0.042 C 
BRANCH   6   7
HETATM    7  C           1     -21.937  -4.616  -8.587  0.00  0.00     0.003 C 
BRANCH   7   8
HETATM    8 Se           1     -23.674  -3.948  -9.167  0.00  0.00     0.000 Se
HETATM    9  C           1     -23.613  -4.825 -10.906  0.00  0.00     0.000 C 
ENDBRANCH   7   8
ENDBRANCH   6   7
ENDBRANCH   5   6
BRANCH   5  10
HETATM   10  N           1     -20.051  -5.973  -7.503  0.00  0.00    -0.067 N 
HETATM   11  H           1     -19.397  -6.633  -7.025  0.00  0.00     0.275 HD
HETATM   12  H           1     -19.519  -5.383  -8.183  0.00  0.00     0.275 HD
HETATM   13  H           1     -20.784  -6.516  -8.011  0.00  0.00     0.275 HD
ENDBRANCH   5  10
ENDBRANCH   1   5
BRANCH   4  14
HETATM   14  C           1     -21.567  -7.587  -3.706  0.00  0.00     0.189 C 
BRANCH  14  15
HETATM   15  C           1     -21.594  -6.908  -2.359  0.00  0.00     0.197 C 
HETATM   16  O           1     -22.273  -5.872  -2.195  0.00  0.00    -0.646 OA
HETATM   17  O           1     -20.937  -7.382  -1.406  0.00  0.00    -0.646 OA
ENDBRANCH  14  15
BRANCH  14  18
HETATM   18  C           1     -20.899  -8.949  -3.576  0.00  0.00     0.014 C 
HETATM   19  C           1     -21.814 -10.020  -4.156  0.00  0.00     0.012 C 
BRANCH  18  20
HETATM   20  C           1     -19.580  -8.942  -4.335  0.00  0.00     0.002 C 
HETATM   21  C           1     -18.452  -9.355  -3.398  0.00  0.00     0.005 C 
ENDBRANCH  18  20
ENDBRANCH  14  18
ENDBRANCH   4  14
TORSDOF 9
ENDMDL
MODEL 4
REMARK VINA RESULT:      -5.1      3.201      6.627
REMARK  9 active torsions:
REMARK  status: ('A' for Active; 'I' for Inactive)
REMARK    1  A    between atoms: C_1  and  C_2 
REMARK    2  A    between atoms: C_2  and  C_4 
REMARK    3  A    between atoms: C_2  and  N_17 
REMARK    4  A    between atoms: C_4  and  C_5 
REMARK    5  A    between atoms: C_7  and  C_11 
REMARK    6  A    between atoms: C_7  and  C_8 
REMARK    7  A    between atoms: C_7  and  N_21 
REMARK    8  A    between atoms: C_8  and  C_9 
REMARK    9  A    between atoms: C_9  and  Se_10 
REMARK       I    between atoms: C_11  and  N_17 
ROOT
HETATM    1  C           1     -23.092  -4.195  -8.856  0.00  0.00     0.249 C 
HETATM    2  H           1     -22.182  -6.043  -8.654  0.00  0.00     0.163 HD
HETATM    3  O           1     -23.035  -3.026  -8.559  0.00  0.00    -0.271 OA
HETATM    4  N           1     -22.135  -5.063  -8.406  0.00  0.00    -0.344 N 
ENDROOT
BRANCH   1   5
HETATM    5  C           1     -24.219  -4.699  -9.722  0.00  0.00     0.274 C 
BRANCH   5   6
HETATM    6  C           1     -23.709  -4.926 -11.140  0.00  0.00     0.042 C 
BRANCH   6   7
HETATM    7  C           1     -23.081  -3.642 -11.666  0.00  0.00     0.003 C 
BRANCH   7   8
HETATM    8 Se           1     -24.262  -2.838 -12.993  0.00  0.00     0.000 Se
HETATM    9  C           1     -22.921  -2.807 -14.406  0.00  0.00     0.000 C 
ENDBRANCH   7   8
ENDBRANCH   6   7
ENDBRANCH   5   6
BRANCH   5  10
HETATM   10  N           1     -25.324  -3.683  -9.747  0.00  0.00    -0.067 N 
HETATM   11  H           1     -25.483  -3.367 -10.730  0.00  0.00     0.275 HD
HETATM   12  H           1     -25.056  -2.864  -9.155  0.00  0.00     0.275 HD
HETATM   13  H           1     -26.200  -4.112  -9.373  0.00  0.00     0.275 HD
ENDBRANCH   5  10
ENDBRANCH   1   5
BRANCH   4  14
HETATM   14  C           1     -21.050  -4.579  -7.572  0.00  0.00     0.189 C 
BRANCH  14  15
HETATM   15  C           1     -19.783  -4.508  -8.389  0.00  0.00     0.197 C 
HETATM   16  O           1     -18.717  -4.131  -7.856  0.00  0.00    -0.646 OA
HETATM   17  O           1     -19.799  -4.827  -9.597  0.00  0.00    -0.646 OA
ENDBRANCH  14  15
BRANCH  14  18
HETATM   18  C           1     -20.848  -5.531  -6.401  0.00  0.00     0.014 C 
HETATM   19  C           1     -20.187  -4.784  -5.249  0.00  0.00     0.012 C 
BRANCH  18  20
HETATM   20  C           1     -22.196  -6.073  -5.949  0.00  0.00     0.002 C 
HETATM   21  C           1     -22.072  -6.632  -4.538  0.00  0.00     0.005 C 
ENDBRANCH  18  20
ENDBRANCH  14  18
ENDBRANCH   4  14
TORSDOF 9
ENDMDL
MODEL 5
REMARK VINA RESULT:      -5.0      3.070      6.651
REMARK  9 active torsions:
REMARK  status: ('A' for Active; 'I' for Inactive)
REMARK    1  A    between atoms: C_1  and  C_2 
REMARK    2  A    between atoms: C_2  and  C_4 
REMARK    3  A    between atoms: C_2  and  N_17 
REMARK    4  A    between atoms: C_4  and  C_5 
REMARK    5  A    between atoms: C_7  and  C_11 
REMARK    6  A    between atoms: C_7  and  C_8 
REMARK    7  A    between atoms: C_7  and  N_21 
REMARK    8  A    between atoms: C_8  and  C_9 
REMARK    9  A    between atoms: C_9  and  Se_10 
REMARK       I    between atoms: C_11  and  N_17 
ROOT
HETATM    1  C           1     -22.724  -4.318  -7.846  0.00  0.00     0.249 C 
HETATM    2  H           1     -23.097  -6.209  -7.093  0.00  0.00     0.163 HD
HETATM    3  O           1     -22.067  -3.313  -7.717  0.00  0.00    -0.271 OA
HETATM    4  N           1     -22.547  -5.367  -6.985  0.00  0.00    -0.344 N 
ENDROOT
BRANCH   1   5
HETATM    5  C           1     -23.742  -4.416  -8.955  0.00  0.00     0.274 C 
BRANCH   5   6
HETATM    6  C           1     -23.028  -4.617 -10.286  0.00  0.00     0.042 C 
BRANCH   6   7
HETATM    7  C           1     -23.858  -4.001 -11.405  0.00  0.00     0.003 C 
BRANCH   7   8
HETATM    8 Se           1     -22.678  -3.089 -12.661  0.00  0.00     0.000 Se
HETATM    9  C           1     -21.138  -3.088 -11.466  0.00  0.00     0.000 C 
ENDBRANCH   7   8
ENDBRANCH   6   7
ENDBRANCH   5   6
BRANCH   5  10
HETATM   10  N           1     -24.548  -3.151  -9.007  0.00  0.00    -0.067 N 
HETATM   11  H           1     -23.920  -2.348  -9.236  0.00  0.00     0.275 HD
HETATM   12  H           1     -25.001  -2.989  -8.079  0.00  0.00     0.275 HD
HETATM   13  H           1     -25.285  -3.237  -9.744  0.00  0.00     0.275 HD
ENDBRANCH   5  10
ENDBRANCH   1   5
BRANCH   4  14
HETATM   14  C           1     -21.568  -5.273  -5.919  0.00  0.00     0.189 C 
BRANCH  14  15
HETATM   15  C           1     -20.188  -5.516  -6.481  0.00  0.00     0.197 C 
HETATM   16  O           1     -19.226  -4.816  -6.099  0.00  0.00    -0.646 OA
HETATM   17  O           1     -20.008  -6.418  -7.328  0.00  0.00    -0.646 OA
ENDBRANCH  14  15
BRANCH  14  18
HETATM   18  C           1     -21.875  -6.318  -4.855  0.00  0.00     0.014 C 
HETATM   19  C           1     -21.468  -7.695  -5.365  0.00  0.00     0.012 C 
BRANCH  18  20
HETATM   20  C           1     -21.098  -5.995  -3.587  0.00  0.00     0.002 C 
HETATM   21  C           1     -21.980  -6.248  -2.372  0.00  0.00     0.005 C 
ENDBRANCH  18  20
ENDBRANCH  14  18
ENDBRANCH   4  14
TORSDOF 9
ENDMDL
MODEL 6
REMARK VINA RESULT:      -4.9      2.242      3.067
REMARK  9 active torsions:
REMARK  status: ('A' for Active; 'I' for Inactive)
REMARK    1  A    between atoms: C_1  and  C_2 
REMARK    2  A    between atoms: C_2  and  C_4 
REMARK    3  A    between atoms: C_2  and  N_17 
REMARK    4  A    between atoms: C_4  and  C_5 
REMARK    5  A    between atoms: C_7  and  C_11 
REMARK    6  A    between atoms: C_7  and  C_8 
REMARK    7  A    between atoms: C_7  and  N_21 
REMARK    8  A    between atoms: C_8  and  C_9 
REMARK    9  A    between atoms: C_9  and  Se_10 
REMARK       I    between atoms: C_11  and  N_17 
ROOT
HETATM    1  C           1     -20.660  -4.369  -9.147  0.00  0.00     0.249 C 
HETATM    2  H           1     -22.464  -3.356  -9.160  0.00  0.00     0.163 HD
HETATM    3  O           1     -19.911  -5.065  -9.790  0.00  0.00    -0.271 OA
HETATM    4  N           1     -21.836  -3.939  -9.699  0.00  0.00    -0.344 N 
ENDROOT
BRANCH   1   5
HETATM    5  C           1     -20.299  -3.975  -7.737  0.00  0.00     0.274 C 
BRANCH   5   6
HETATM    6  C           1     -19.978  -5.224  -6.926  0.00  0.00     0.042 C 
BRANCH   6   7
HETATM    7  C           1     -21.194  -5.616  -6.095  0.00  0.00     0.003 C 
BRANCH   7   8
HETATM    8 Se           1     -20.748  -7.149  -4.975  0.00  0.00     0.000 Se
HETATM    9  C           1     -21.600  -6.434  -3.375  0.00  0.00     0.000 C 
ENDBRANCH   7   8
ENDBRANCH   6   7
ENDBRANCH   5   6
BRANCH   5  10
HETATM   10  N           1     -21.456  -3.255  -7.108  0.00  0.00    -0.067 N 
HETATM   11  H           1     -21.153  -2.839  -6.198  0.00  0.00     0.275 HD
HETATM   12  H           1     -22.236  -3.931  -6.940  0.00  0.00     0.275 HD
HETATM   13  H           1     -21.783  -2.496  -7.747  0.00  0.00     0.275 HD
ENDBRANCH   5  10
ENDBRANCH   1   5
BRANCH   4  14
HETATM   14  C           1     -22.183  -4.317 -11.055  0.00  0.00     0.189 C 
BRANCH  14  15
HETATM   15  C           1     -21.832  -3.191 -11.996  0.00  0.00     0.197 C 
HETATM   16  O           1     -21.167  -2.217 -11.583  0.00  0.00    -0.646 OA
HETATM   17  O           1     -22.205  -3.233 -13.189  0.00  0.00    -0.646 OA
ENDBRANCH  14  15
BRANCH  14  18
HETATM   18  C           1     -23.678  -4.600 -11.136  0.00  0.00     0.014 C 
HETATM   19  C           1     -24.083  -5.517  -9.989  0.00  0.00     0.012 C 
BRANCH  18  20
HETATM   20  C           1     -24.447  -3.290 -11.036  0.00  0.00     0.002 C 
HETATM   21  C           1     -25.123  -3.200  -9.674  0.00  0.00     0.005 C 
ENDBRANCH  18  20
ENDBRANCH  14  18
ENDBRANCH   4  14
TORSDOF 9
ENDMDL
MODEL 7
REMARK VINA RESULT:      -4.9     18.085     19.628
REMARK  9 active torsions:
REMARK  status: ('A' for Active; 'I' for Inactive)
REMARK    1  A    between atoms: C_1  and  C_2 
REMARK    2  A    between atoms: C_2  and  C_4 
REMARK    3  A    between atoms: C_2  and  N_17 
REMARK    4  A    between atoms: C_4  and  C_5 
REMARK    5  A    between atoms: C_7  and  C_11 
REMARK    6  A    between atoms: C_7  and  C_8 
REMARK    7  A    between atoms: C_7  and  N_21 
REMARK    8  A    between atoms: C_8  and  C_9 
REMARK    9  A    between atoms: C_9  and  Se_10 
REMARK       I    between atoms: C_11  and  N_17 
ROOT
HETATM    1  C           1     -11.757   7.126 -20.595  0.00  0.00     0.249 C 
HETATM    2  H           1     -12.468   5.977 -19.027  0.00  0.00     0.163 HD
HETATM    3  O           1     -11.724   7.251 -21.796  0.00  0.00    -0.271 OA
HETATM    4  N           1     -12.440   6.082 -20.033  0.00  0.00    -0.344 N 
ENDROOT
BRANCH   1   5
HETATM    5  C           1     -11.043   8.121 -19.714  0.00  0.00     0.274 C 
BRANCH   5   6
HETATM    6  C           1     -11.761   9.463 -19.776  0.00  0.00     0.042 C 
BRANCH   6   7
HETATM    7  C           1     -12.916   9.468 -18.783  0.00  0.00     0.003 C 
BRANCH   7   8
HETATM    8 Se           1     -14.023  11.045 -19.081  0.00  0.00     0.000 Se
HETATM    9  C           1     -14.997  10.880 -17.402  0.00  0.00     0.000 C 
ENDBRANCH   7   8
ENDBRANCH   6   7
ENDBRANCH   5   6
BRANCH   5  10
HETATM   10  N           1      -9.630   8.289 -20.191  0.00  0.00    -0.067 N 
HETATM   11  H           1      -9.533   7.868 -21.143  0.00  0.00     0.275 HD
HETATM   12  H           1      -8.980   7.809 -19.528  0.00  0.00     0.275 HD
HETATM   13  H           1      -9.396   9.306 -20.235  0.00  0.00     0.275 HD
ENDBRANCH   5  10
ENDBRANCH   1   5
BRANCH   4  14
HETATM   14  C           1     -13.127   5.125 -20.880  0.00  0.00     0.189 C 
BRANCH  14  15
HETATM   15  C           1     -14.615   5.232 -20.654  0.00  0.00     0.197 C 
HETATM   16  O           1     -15.384   5.402 -21.625  0.00  0.00    -0.646 OA
HETATM   17  O           1     -15.079   5.150 -19.496  0.00  0.00    -0.646 OA
ENDBRANCH  14  15
BRANCH  14  18
HETATM   18  C           1     -12.660   3.717 -20.536  0.00  0.00     0.014 C 
HETATM   19  C           1     -13.378   2.712 -21.428  0.00  0.00     0.012 C 
BRANCH  18  20
HETATM   20  C           1     -11.158   3.613 -20.759  0.00  0.00     0.002 C 
HETATM   21  C           1     -10.853   3.753 -22.244  0.00  0.00     0.005 C 
ENDBRANCH  18  20
ENDBRANCH  14  18
ENDBRANCH   4  14
TORSDOF 9
ENDMDL
MODEL 8
REMARK VINA RESULT:      -4.9      4.830      9.355
REMARK  9 active torsions:
REMARK  status: ('A' for Active; 'I' for Inactive)
REMARK    1  A    between atoms: C_1  and  C_2 
REMARK    2  A    between atoms: C_2  and  C_4 
REMARK    3  A    between atoms: C_2  and  N_17 
REMARK    4  A    between atoms: C_4  and  C_5 
REMARK    5  A    between atoms: C_7  and  C_11 
REMARK    6  A    between atoms: C_7  and  C_8 
REMARK    7  A    between atoms: C_7  and  N_21 
REMARK    8  A    between atoms: C_8  and  C_9 
REMARK    9  A    between atoms: C_9  and  Se_10 
REMARK       I    between atoms: C_11  and  N_17 
ROOT
HETATM    1  C           1     -21.351  -7.806  -2.894  0.00  0.00     0.249 C 
HETATM    2  H           1     -22.063  -9.750  -2.860  0.00  0.00     0.163 HD
HETATM    3  O           1     -20.779  -6.951  -2.262  0.00  0.00    -0.271 OA
HETATM    4  N           1     -21.584  -9.032  -2.331  0.00  0.00    -0.344 N 
ENDROOT
BRANCH   1   5
HETATM    5  C           1     -21.810  -7.524  -4.303  0.00  0.00     0.274 C 
BRANCH   5   6
HETATM    6  C           1     -20.597  -7.330  -5.204  0.00  0.00     0.042 C 
BRANCH   6   7
HETATM    7  C           1     -20.441  -5.851  -5.533  0.00  0.00     0.003 C 
BRANCH   7   8
HETATM    8 Se           1     -20.548  -5.600  -7.464  0.00  0.00     0.000 Se
HETATM    9  C           1     -21.843  -4.147  -7.368  0.00  0.00     0.000 C 
ENDBRANCH   7   8
ENDBRANCH   6   7
ENDBRANCH   5   6
BRANCH   5  10
HETATM   10  N           1     -22.646  -6.278  -4.316  0.00  0.00    -0.067 N 
HETATM   11  H           1     -22.345  -5.666  -5.108  0.00  0.00     0.275 HD
HETATM   12  H           1     -22.522  -5.767  -3.413  0.00  0.00     0.275 HD
HETATM   13  H           1     -23.652  -6.534  -4.436  0.00  0.00     0.275 HD
ENDBRANCH   5  10
ENDBRANCH   1   5
BRANCH   4  14
HETATM   14  C           1     -21.143  -9.304  -0.976  0.00  0.00     0.189 C 
BRANCH  14  15
HETATM   15  C           1     -20.232 -10.508  -0.977  0.00  0.00     0.197 C 
HETATM   16  O           1     -19.787 -10.954  -2.056  0.00  0.00    -0.646 OA
HETATM   17  O           1     -19.923 -11.058   0.102  0.00  0.00    -0.646 OA
ENDBRANCH  14  15
BRANCH  14  18
HETATM   18  C           1     -22.353  -9.582  -0.095  0.00  0.00     0.014 C 
HETATM   19  C           1     -23.005  -8.264   0.302  0.00  0.00     0.012 C 
BRANCH  18  20
HETATM   20  C           1     -23.354 -10.433  -0.864  0.00  0.00     0.002 C 
HETATM   21  C           1     -23.813 -11.593   0.011  0.00  0.00     0.005 C 
ENDBRANCH  18  20
ENDBRANCH  14  18
ENDBRANCH   4  14
TORSDOF 9
ENDMDL
MODEL 9
REMARK VINA RESULT:      -4.9      3.810      7.661
REMARK  9 active torsions:
REMARK  status: ('A' for Active; 'I' for Inactive)
REMARK    1  A    between atoms: C_1  and  C_2 
REMARK    2  A    between atoms: C_2  and  C_4 
REMARK    3  A    between atoms: C_2  and  N_17 
REMARK    4  A    between atoms: C_4  and  C_5 
REMARK    5  A    between atoms: C_7  and  C_11 
REMARK    6  A    between atoms: C_7  and  C_8 
REMARK    7  A    between atoms: C_7  and  N_21 
REMARK    8  A    between atoms: C_8  and  C_9 
REMARK    9  A    between atoms: C_9  and  Se_10 
REMARK       I    between atoms: C_11  and  N_17 
ROOT
HETATM    1  C           1     -20.760  -7.146  -5.634  0.00  0.00     0.249 C 
HETATM    2  H           1     -22.402  -7.293  -4.382  0.00  0.00     0.163 HD
HETATM    3  O           1     -19.681  -7.612  -5.909  0.00  0.00    -0.271 OA
HETATM    4  N           1     -21.498  -7.683  -4.614  0.00  0.00    -0.344 N 
ENDROOT
BRANCH   1   5
HETATM    5  C           1     -21.295  -5.970  -6.413  0.00  0.00     0.274 C 
BRANCH   5   6
HETATM    6  C           1     -20.280  -4.835  -6.383  0.00  0.00     0.042 C 
BRANCH   6   7
HETATM    7  C           1     -19.797  -4.548  -7.799  0.00  0.00     0.003 C 
BRANCH   7   8
HETATM    8 Se           1     -21.335  -4.296  -8.971  0.00  0.00     0.000 Se
HETATM    9  C           1     -20.310  -4.462 -10.620  0.00  0.00     0.000 C 
ENDBRANCH   7   8
ENDBRANCH   6   7
ENDBRANCH   5   6
BRANCH   5  10
HETATM   10  N           1     -22.582  -5.505  -5.796  0.00  0.00    -0.067 N 
HETATM   11  H           1     -22.380  -5.029  -4.888  0.00  0.00     0.275 HD
HETATM   12  H           1     -23.204  -6.328  -5.629  0.00  0.00     0.275 HD
HETATM   13  H           1     -23.056  -4.835  -6.443  0.00  0.00     0.275 HD
ENDBRANCH   5  10
ENDBRANCH   1   5
BRANCH   4  14
HETATM   14  C           1     -20.984  -8.813  -3.864  0.00  0.00     0.189 C 
BRANCH  14  15
HETATM   15  C           1     -21.602 -10.087  -4.389  0.00  0.00     0.197 C 
HETATM   16  O           1     -21.130 -10.636  -5.408  0.00  0.00    -0.646 OA
HETATM   17  O           1     -22.584 -10.592  -3.804  0.00  0.00    -0.646 OA
ENDBRANCH  14  15
BRANCH  14  18
HETATM   18  C           1     -21.335  -8.647  -2.392  0.00  0.00     0.014 C 
HETATM   19  C           1     -20.275  -9.331  -1.537  0.00  0.00     0.012 C 
BRANCH  18  20
HETATM   20  C           1     -21.386  -7.165  -2.047  0.00  0.00     0.002 C 
HETATM   21  C           1     -22.361  -6.944  -0.899  0.00  0.00     0.005 C 
ENDBRANCH  18  20
ENDBRANCH  14  18
ENDBRANCH   4  14
TORSDOF 9
ENDMDL
