MODEL 1
REMARK VINA RESULT:      -6.8      0.000      0.000
REMARK  7 active torsions:
REMARK  status: ('A' for Active; 'I' for Inactive)
REMARK    1  A    between atoms: C_2  and  C_11 
REMARK    2  A    between atoms: C_3  and  C_10 
REMARK       I    between atoms: C_5  and  N_7 
REMARK    3  A    between atoms: C_5  and  C_6 
REMARK    4  A    between atoms: C_6  and  C_10 
REMARK    5  A    between atoms: C_6  and  N_9 
REMARK    6  A    between atoms: N_7  and  C_11 
REMARK    7  A    between atoms: C_11  and  C_15 
ROOT
HETATM    1  C           1     -35.260  -1.684 -12.627  0.00  0.00     0.249 C 
HETATM    2  N           1     -34.762  -1.222 -13.815  0.00  0.00    -0.344 N 
HETATM    3  O           1     -36.417  -1.487 -12.339  0.00  0.00    -0.271 OA
HETATM    4  H           1     -33.792  -1.387 -14.055  0.00  0.00     0.163 HD
ENDROOT
BRANCH   1   5
HETATM    5  C           1     -34.364  -2.439 -11.675  0.00  0.00     0.275 C 
BRANCH   5   6
HETATM    6  C           1     -35.027  -3.754 -11.288  0.00  0.00     0.046 C 
BRANCH   6   7
HETATM    7  C           1     -33.985  -4.696 -10.700  0.00  0.00    -0.020 C 
HETATM    8  C           1     -34.599  -6.074 -10.498  0.00  0.00     0.009 C 
HETATM    9  C           1     -32.803  -4.803 -11.655  0.00  0.00     0.009 C 
ENDBRANCH   6   7
ENDBRANCH   5   6
BRANCH   5  10
HETATM   10  N           1     -34.135  -1.614 -10.444  0.00  0.00    -0.066 N 
HETATM   11  H           1     -33.170  -1.213 -10.469  0.00  0.00     0.275 HD
HETATM   12  H           1     -34.239  -2.216  -9.597  0.00  0.00     0.275 HD
HETATM   13  H           1     -34.834  -0.839 -10.409  0.00  0.00     0.275 HD
ENDBRANCH   5  10
ENDBRANCH   1   5
BRANCH   2  14
HETATM   14  C           1     -35.622  -0.496 -14.730  0.00  0.00     0.189 C 
BRANCH  14  15
HETATM   15  C           1     -35.736  -1.261 -16.025  0.00  0.00     0.197 C 
HETATM   16  O           1     -36.856  -1.439 -16.551  0.00  0.00    -0.646 OA
HETATM   17  O           1     -34.709  -1.718 -16.573  0.00  0.00    -0.646 OA
ENDBRANCH  14  15
BRANCH  14  18
HETATM   18  C           1     -35.028   0.879 -15.001  0.00  0.00     0.010 C 
HETATM   19  C           1     -34.628   1.528 -13.683  0.00  0.00     0.012 C 
HETATM   20  C           1     -36.062   1.749 -15.703  0.00  0.00     0.012 C 
ENDBRANCH  14  18
ENDBRANCH   2  14
TORSDOF 7
ENDMDL
MODEL 2
REMARK VINA RESULT:      -6.8     12.610     14.439
REMARK  7 active torsions:
REMARK  status: ('A' for Active; 'I' for Inactive)
REMARK    1  A    between atoms: C_2  and  C_11 
REMARK    2  A    between atoms: C_3  and  C_10 
REMARK       I    between atoms: C_5  and  N_7 
REMARK    3  A    between atoms: C_5  and  C_6 
REMARK    4  A    between atoms: C_6  and  C_10 
REMARK    5  A    between atoms: C_6  and  N_9 
REMARK    6  A    between atoms: N_7  and  C_11 
REMARK    7  A    between atoms: C_11  and  C_15 
ROOT
HETATM    1  C           1     -21.622  -4.686  -7.677  0.00  0.00     0.249 C 
HETATM    2  N           1     -22.116  -4.898  -8.935  0.00  0.00    -0.344 N 
HETATM    3  O           1     -21.608  -3.571  -7.212  0.00  0.00    -0.271 OA
HETATM    4  H           1     -22.127  -5.833  -9.324  0.00  0.00     0.163 HD
ENDROOT
BRANCH   1   5
HETATM    5  C           1     -21.091  -5.846  -6.869  0.00  0.00     0.275 C 
BRANCH   5   6
HETATM    6  C           1     -20.971  -5.435  -5.408  0.00  0.00     0.046 C 
BRANCH   6   7
HETATM    7  C           1     -21.842  -6.344  -4.550  0.00  0.00    -0.020 C 
HETATM    8  C           1     -21.624  -7.793  -4.961  0.00  0.00     0.009 C 
HETATM    9  C           1     -21.466  -6.170  -3.085  0.00  0.00     0.009 C 
ENDBRANCH   6   7
ENDBRANCH   5   6
BRANCH   5  10
HETATM   10  N           1     -19.742  -6.242  -7.389  0.00  0.00    -0.066 N 
HETATM   11  H           1     -19.811  -7.171  -7.865  0.00  0.00     0.275 HD
HETATM   12  H           1     -19.067  -6.308  -6.595  0.00  0.00     0.275 HD
HETATM   13  H           1     -19.408  -5.525  -8.072  0.00  0.00     0.275 HD
ENDBRANCH   5  10
ENDBRANCH   1   5
BRANCH   2  14
HETATM   14  C           1     -22.626  -3.784  -9.712  0.00  0.00     0.189 C 
BRANCH  14  15
HETATM   15  C           1     -24.133  -3.841  -9.743  0.00  0.00     0.197 C 
HETATM   16  O           1     -24.713  -4.904 -10.053  0.00  0.00    -0.646 OA
HETATM   17  O           1     -24.803  -2.824  -9.458  0.00  0.00    -0.646 OA
ENDBRANCH  14  15
BRANCH  14  18
HETATM   18  C           1     -22.083  -3.866 -11.133  0.00  0.00     0.010 C 
HETATM   19  C           1     -20.562  -3.859 -11.096  0.00  0.00     0.012 C 
HETATM   20  C           1     -22.578  -2.670 -11.934  0.00  0.00     0.012 C 
ENDBRANCH  14  18
ENDBRANCH   2  14
TORSDOF 7
ENDMDL
MODEL 3
REMARK VINA RESULT:      -5.9      3.191      5.188
REMARK  7 active torsions:
REMARK  status: ('A' for Active; 'I' for Inactive)
REMARK    1  A    between atoms: C_2  and  C_11 
REMARK    2  A    between atoms: C_3  and  C_10 
REMARK       I    between atoms: C_5  and  N_7 
REMARK    3  A    between atoms: C_5  and  C_6 
REMARK    4  A    between atoms: C_6  and  C_10 
REMARK    5  A    between atoms: C_6  and  N_9 
REMARK    6  A    between atoms: N_7  and  C_11 
REMARK    7  A    between atoms: C_11  and  C_15 
ROOT
HETATM    1  C           1     -35.520  -0.804 -11.646  0.00  0.00     0.249 C 
HETATM    2  N           1     -35.301  -2.155 -11.635  0.00  0.00    -0.344 N 
HETATM    3  O           1     -34.735  -0.069 -12.195  0.00  0.00    -0.271 OA
HETATM    4  H           1     -35.960  -2.771 -11.175  0.00  0.00     0.163 HD
ENDROOT
BRANCH   1   5
HETATM    5  C           1     -36.743  -0.232 -10.972  0.00  0.00     0.275 C 
BRANCH   5   6
HETATM    6  C           1     -36.800  -0.714  -9.528  0.00  0.00     0.046 C 
BRANCH   6   7
HETATM    7  C           1     -37.892   0.041  -8.782  0.00  0.00    -0.020 C 
HETATM    8  C           1     -37.864  -0.345  -7.310  0.00  0.00     0.009 C 
HETATM    9  C           1     -37.655   1.539  -8.917  0.00  0.00     0.009 C 
ENDBRANCH   6   7
ENDBRANCH   5   6
BRANCH   5  10
HETATM   10  N           1     -37.973  -0.687 -11.698  0.00  0.00    -0.066 N 
HETATM   11  H           1     -37.798  -1.624 -12.127  0.00  0.00     0.275 HD
HETATM   12  H           1     -38.209  -0.000 -12.449  0.00  0.00     0.275 HD
HETATM   13  H           1     -38.770  -0.756 -11.025  0.00  0.00     0.275 HD
ENDBRANCH   5  10
ENDBRANCH   1   5
BRANCH   2  14
HETATM   14  C           1     -34.126  -2.705 -12.283  0.00  0.00     0.189 C 
BRANCH  14  15
HETATM   15  C           1     -34.552  -3.693 -13.340  0.00  0.00     0.197 C 
HETATM   16  O           1     -35.166  -4.732 -13.015  0.00  0.00    -0.646 OA
HETATM   17  O           1     -34.290  -3.473 -14.543  0.00  0.00    -0.646 OA
ENDBRANCH  14  15
BRANCH  14  18
HETATM   18  C           1     -33.258  -3.409 -11.248  0.00  0.00     0.010 C 
HETATM   19  C           1     -32.279  -4.337 -11.952  0.00  0.00     0.012 C 
HETATM   20  C           1     -34.144  -4.221 -10.312  0.00  0.00     0.012 C 
ENDBRANCH  14  18
ENDBRANCH   2  14
TORSDOF 7
ENDMDL
MODEL 4
REMARK VINA RESULT:      -5.6     14.266     17.039
REMARK  7 active torsions:
REMARK  status: ('A' for Active; 'I' for Inactive)
REMARK    1  A    between atoms: C_2  and  C_11 
REMARK    2  A    between atoms: C_3  and  C_10 
REMARK       I    between atoms: C_5  and  N_7 
REMARK    3  A    between atoms: C_5  and  C_6 
REMARK    4  A    between atoms: C_6  and  C_10 
REMARK    5  A    between atoms: C_6  and  N_9 
REMARK    6  A    between atoms: N_7  and  C_11 
REMARK    7  A    between atoms: C_11  and  C_15 
ROOT
HETATM    1  C           1     -21.051  -5.419  -6.338  0.00  0.00     0.249 C 
HETATM    2  N           1     -21.573  -6.356  -5.487  0.00  0.00    -0.344 N 
HETATM    3  O           1     -19.858  -5.240  -6.381  0.00  0.00    -0.271 OA
HETATM    4  H           1     -22.573  -6.505  -5.452  0.00  0.00     0.163 HD
ENDROOT
BRANCH   1   5
HETATM    5  C           1     -21.968  -4.609  -7.222  0.00  0.00     0.275 C 
BRANCH   5   6
HETATM    6  C           1     -21.766  -5.019  -8.675  0.00  0.00     0.046 C 
BRANCH   6   7
HETATM    7  C           1     -22.498  -4.042  -9.586  0.00  0.00    -0.020 C 
HETATM    8  C           1     -21.593  -3.651 -10.745  0.00  0.00     0.009 C 
HETATM    9  C           1     -23.759  -4.703 -10.128  0.00  0.00     0.009 C 
ENDBRANCH   6   7
ENDBRANCH   5   6
BRANCH   5  10
HETATM   10  N           1     -21.653  -3.152  -7.067  0.00  0.00    -0.066 N 
HETATM   11  H           1     -21.559  -2.922  -6.051  0.00  0.00     0.275 HD
HETATM   12  H           1     -22.424  -2.581  -7.482  0.00  0.00     0.275 HD
HETATM   13  H           1     -20.756  -2.935  -7.557  0.00  0.00     0.275 HD
ENDBRANCH   5  10
ENDBRANCH   1   5
BRANCH   2  14
HETATM   14  C           1     -20.692  -7.134  -4.637  0.00  0.00     0.189 C 
BRANCH  14  15
HETATM   15  C           1     -20.315  -8.413  -5.343  0.00  0.00     0.197 C 
HETATM   16  O           1     -19.117  -8.653  -5.606  0.00  0.00    -0.646 OA
HETATM   17  O           1     -21.202  -9.234  -5.665  0.00  0.00    -0.646 OA
ENDBRANCH  14  15
BRANCH  14  18
HETATM   18  C           1     -21.408  -7.464  -3.333  0.00  0.00     0.010 C 
HETATM   19  C           1     -21.843  -6.173  -2.654  0.00  0.00     0.012 C 
HETATM   20  C           1     -20.462  -8.228  -2.416  0.00  0.00     0.012 C 
ENDBRANCH  14  18
ENDBRANCH   2  14
TORSDOF 7
ENDMDL
MODEL 5
REMARK VINA RESULT:      -5.6     14.459     17.443
REMARK  7 active torsions:
REMARK  status: ('A' for Active; 'I' for Inactive)
REMARK    1  A    between atoms: C_2  and  C_11 
REMARK    2  A    between atoms: C_3  and  C_10 
REMARK       I    between atoms: C_5  and  N_7 
REMARK    3  A    between atoms: C_5  and  C_6 
REMARK    4  A    between atoms: C_6  and  C_10 
REMARK    5  A    between atoms: C_6  and  N_9 
REMARK    6  A    between atoms: N_7  and  C_11 
REMARK    7  A    between atoms: C_11  and  C_15 
ROOT
HETATM    1  C           1     -21.708  -5.754  -5.561  0.00  0.00     0.249 C 
HETATM    2  N           1     -20.936  -6.520  -4.731  0.00  0.00    -0.344 N 
HETATM    3  O           1     -22.911  -5.862  -5.540  0.00  0.00    -0.271 OA
HETATM    4  H           1     -19.928  -6.428  -4.749  0.00  0.00     0.163 HD
ENDROOT
BRANCH   1   5
HETATM    5  C           1     -21.056  -4.771  -6.504  0.00  0.00     0.275 C 
BRANCH   5   6
HETATM    6  C           1     -21.280  -5.221  -7.941  0.00  0.00     0.046 C 
BRANCH   6   7
HETATM    7  C           1     -21.755  -4.039  -8.777  0.00  0.00    -0.020 C 
HETATM    8  C           1     -21.122  -4.106 -10.159  0.00  0.00     0.009 C 
HETATM    9  C           1     -23.271  -4.090  -8.910  0.00  0.00     0.009 C 
ENDBRANCH   6   7
ENDBRANCH   5   6
BRANCH   5  10
HETATM   10  N           1     -19.585  -4.710  -6.223  0.00  0.00    -0.066 N 
HETATM   11  H           1     -19.103  -4.204  -7.000  0.00  0.00     0.275 HD
HETATM   12  H           1     -19.203  -5.680  -6.150  0.00  0.00     0.275 HD
HETATM   13  H           1     -19.423  -4.203  -5.324  0.00  0.00     0.275 HD
ENDBRANCH   5  10
ENDBRANCH   1   5
BRANCH   2  14
HETATM   14  C           1     -21.562  -7.464  -3.825  0.00  0.00     0.189 C 
BRANCH  14  15
HETATM   15  C           1     -21.597  -6.879  -2.435  0.00  0.00     0.197 C 
HETATM   16  O           1     -20.890  -7.372  -1.530  0.00  0.00    -0.646 OA
HETATM   17  O           1     -22.333  -5.899  -2.188  0.00  0.00    -0.646 OA
ENDBRANCH  14  15
BRANCH  14  18
HETATM   18  C           1     -20.763  -8.761  -3.812  0.00  0.00     0.010 C 
HETATM   19  C           1     -19.653  -8.683  -4.851  0.00  0.00     0.012 C 
HETATM   20  C           1     -21.685  -9.928  -4.139  0.00  0.00     0.012 C 
ENDBRANCH  14  18
ENDBRANCH   2  14
TORSDOF 7
ENDMDL
MODEL 6
REMARK VINA RESULT:      -5.5     17.062     19.191
REMARK  7 active torsions:
REMARK  status: ('A' for Active; 'I' for Inactive)
REMARK    1  A    between atoms: C_2  and  C_11 
REMARK    2  A    between atoms: C_3  and  C_10 
REMARK       I    between atoms: C_5  and  N_7 
REMARK    3  A    between atoms: C_5  and  C_6 
REMARK    4  A    between atoms: C_6  and  C_10 
REMARK    5  A    between atoms: C_6  and  N_9 
REMARK    6  A    between atoms: N_7  and  C_11 
REMARK    7  A    between atoms: C_11  and  C_15 
ROOT
HETATM    1  C           1     -20.245  -8.627  -3.439  0.00  0.00     0.249 C 
HETATM    2  N           1     -21.438  -8.615  -2.770  0.00  0.00    -0.344 N 
HETATM    3  O           1     -19.233  -8.949  -2.865  0.00  0.00    -0.271 OA
HETATM    4  H           1     -22.287  -8.345  -3.252  0.00  0.00     0.163 HD
ENDROOT
BRANCH   1   5
HETATM    5  C           1     -20.193  -8.236  -4.897  0.00  0.00     0.275 C 
BRANCH   5   6
HETATM    6  C           1     -21.026  -6.980  -5.116  0.00  0.00     0.046 C 
BRANCH   6   7
HETATM    7  C           1     -20.286  -6.037  -6.056  0.00  0.00    -0.020 C 
HETATM    8  C           1     -21.077  -5.882  -7.348  0.00  0.00     0.009 C 
HETATM    9  C           1     -20.133  -4.676  -5.390  0.00  0.00     0.009 C 
ENDBRANCH   6   7
ENDBRANCH   5   6
BRANCH   5  10
HETATM   10  N           1     -20.742  -9.352  -5.733  0.00  0.00    -0.066 N 
HETATM   11  H           1     -20.459  -9.213  -6.729  0.00  0.00     0.275 HD
HETATM   12  H           1     -21.785  -9.357  -5.666  0.00  0.00     0.275 HD
HETATM   13  H           1     -20.366 -10.264  -5.388  0.00  0.00     0.275 HD
ENDBRANCH   5  10
ENDBRANCH   1   5
BRANCH   2  14
HETATM   14  C           1     -21.489  -8.990  -1.370  0.00  0.00     0.189 C 
BRANCH  14  15
HETATM   15  C           1     -22.046 -10.386  -1.244  0.00  0.00     0.197 C 
HETATM   16  O           1     -21.278 -11.372  -1.263  0.00  0.00    -0.646 OA
HETATM   17  O           1     -23.279 -10.558  -1.121  0.00  0.00    -0.646 OA
ENDBRANCH  14  15
BRANCH  14  18
HETATM   18  C           1     -22.383  -8.015  -0.615  0.00  0.00     0.010 C 
HETATM   19  C           1     -22.259  -6.630  -1.235  0.00  0.00     0.012 C 
HETATM   20  C           1     -21.952  -7.958   0.845  0.00  0.00     0.012 C 
ENDBRANCH  14  18
ENDBRANCH   2  14
TORSDOF 7
ENDMDL
MODEL 7
REMARK VINA RESULT:      -5.4     12.468     14.976
REMARK  7 active torsions:
REMARK  status: ('A' for Active; 'I' for Inactive)
REMARK    1  A    between atoms: C_2  and  C_11 
REMARK    2  A    between atoms: C_3  and  C_10 
REMARK       I    between atoms: C_5  and  N_7 
REMARK    3  A    between atoms: C_5  and  C_6 
REMARK    4  A    between atoms: C_6  and  C_10 
REMARK    5  A    between atoms: C_6  and  N_9 
REMARK    6  A    between atoms: N_7  and  C_11 
REMARK    7  A    between atoms: C_11  and  C_15 
ROOT
HETATM    1  C           1     -22.997  -4.231  -8.769  0.00  0.00     0.249 C 
HETATM    2  N           1     -22.071  -5.078  -8.223  0.00  0.00    -0.344 N 
HETATM    3  O           1     -22.951  -3.049  -8.529  0.00  0.00    -0.271 OA
HETATM    4  H           1     -22.110  -6.070  -8.425  0.00  0.00     0.163 HD
ENDROOT
BRANCH   1   5
HETATM    5  C           1     -24.078  -4.776  -9.672  0.00  0.00     0.275 C 
BRANCH   5   6
HETATM    6  C           1     -23.589  -4.765 -11.114  0.00  0.00     0.046 C 
BRANCH   6   7
HETATM    7  C           1     -23.409  -3.326 -11.579  0.00  0.00    -0.020 C 
HETATM    8  C           1     -21.963  -3.104 -12.002  0.00  0.00     0.009 C 
HETATM    9  C           1     -24.330  -3.057 -12.762  0.00  0.00     0.009 C 
ENDBRANCH   6   7
ENDBRANCH   5   6
BRANCH   5  10
HETATM   10  N           1     -25.304  -3.922  -9.554  0.00  0.00    -0.066 N 
HETATM   11  H           1     -25.659  -3.688 -10.509  0.00  0.00     0.275 HD
HETATM   12  H           1     -25.068  -3.040  -9.045  0.00  0.00     0.275 HD
HETATM   13  H           1     -26.042  -4.442  -9.026  0.00  0.00     0.275 HD
ENDBRANCH   5  10
ENDBRANCH   1   5
BRANCH   2  14
HETATM   14  C           1     -21.032  -4.556  -7.356  0.00  0.00     0.189 C 
BRANCH  14  15
HETATM   15  C           1     -19.735  -4.472  -8.121  0.00  0.00     0.197 C 
HETATM   16  O           1     -18.680  -4.155  -7.531  0.00  0.00    -0.646 OA
HETATM   17  O           1     -19.715  -4.719  -9.346  0.00  0.00    -0.646 OA
ENDBRANCH  14  15
BRANCH  14  18
HETATM   18  C           1     -20.859  -5.481  -6.158  0.00  0.00     0.010 C 
HETATM   19  C           1     -20.065  -6.710  -6.577  0.00  0.00     0.012 C 
HETATM   20  C           1     -22.228  -5.910  -5.647  0.00  0.00     0.012 C 
ENDBRANCH  14  18
ENDBRANCH   2  14
TORSDOF 7
ENDMDL
MODEL 8
REMARK VINA RESULT:      -5.3     12.920     15.469
REMARK  7 active torsions:
REMARK  status: ('A' for Active; 'I' for Inactive)
REMARK    1  A    between atoms: C_2  and  C_11 
REMARK    2  A    between atoms: C_3  and  C_10 
REMARK       I    between atoms: C_5  and  N_7 
REMARK    3  A    between atoms: C_5  and  C_6 
REMARK    4  A    between atoms: C_6  and  C_10 
REMARK    5  A    between atoms: C_6  and  N_9 
REMARK    6  A    between atoms: N_7  and  C_11 
REMARK    7  A    between atoms: C_11  and  C_15 
ROOT
HETATM    1  C           1     -22.182  -4.876  -9.095  0.00  0.00     0.249 C 
HETATM    2  N           1     -22.021  -5.346  -7.820  0.00  0.00    -0.344 N 
HETATM    3  O           1     -21.223  -4.743  -9.817  0.00  0.00    -0.271 OA
HETATM    4  H           1     -22.826  -5.458  -7.216  0.00  0.00     0.163 HD
ENDROOT
BRANCH   1   5
HETATM    5  C           1     -23.561  -4.524  -9.601  0.00  0.00     0.275 C 
BRANCH   5   6
HETATM    6  C           1     -23.550  -4.490 -11.123  0.00  0.00     0.046 C 
BRANCH   6   7
HETATM    7  C           1     -23.648  -3.046 -11.600  0.00  0.00    -0.020 C 
HETATM    8  C           1     -22.310  -2.610 -12.182  0.00  0.00     0.009 C 
HETATM    9  C           1     -24.725  -2.939 -12.672  0.00  0.00     0.009 C 
ENDBRANCH   6   7
ENDBRANCH   5   6
BRANCH   5  10
HETATM   10  N           1     -23.957  -3.178  -9.074  0.00  0.00    -0.066 N 
HETATM   11  H           1     -24.845  -2.872  -9.534  0.00  0.00     0.275 HD
HETATM   12  H           1     -23.202  -2.486  -9.281  0.00  0.00     0.275 HD
HETATM   13  H           1     -24.103  -3.237  -8.041  0.00  0.00     0.275 HD
ENDBRANCH   5  10
ENDBRANCH   1   5
BRANCH   2  14
HETATM   14  C           1     -20.697  -5.684  -7.334  0.00  0.00     0.189 C 
BRANCH  14  15
HETATM   15  C           1     -20.810  -6.744  -6.267  0.00  0.00     0.197 C 
HETATM   16  O           1     -19.850  -7.513  -6.043  0.00  0.00    -0.646 OA
HETATM   17  O           1     -21.866  -6.855  -5.605  0.00  0.00    -0.646 OA
ENDBRANCH  14  15
BRANCH  14  18
HETATM   18  C           1     -20.039  -4.441  -6.750  0.00  0.00     0.010 C 
HETATM   19  C           1     -18.621  -4.317  -7.290  0.00  0.00     0.012 C 
HETATM   20  C           1     -19.996  -4.556  -5.231  0.00  0.00     0.012 C 
ENDBRANCH  14  18
ENDBRANCH   2  14
TORSDOF 7
ENDMDL
MODEL 9
REMARK VINA RESULT:      -5.3     15.837     18.686
REMARK  7 active torsions:
REMARK  status: ('A' for Active; 'I' for Inactive)
REMARK    1  A    between atoms: C_2  and  C_11 
REMARK    2  A    between atoms: C_3  and  C_10 
REMARK       I    between atoms: C_5  and  N_7 
REMARK    3  A    between atoms: C_5  and  C_6 
REMARK    4  A    between atoms: C_6  and  C_10 
REMARK    5  A    between atoms: C_6  and  N_9 
REMARK    6  A    between atoms: N_7  and  C_11 
REMARK    7  A    between atoms: C_11  and  C_15 
ROOT
HETATM    1  C           1     -20.305  -7.206  -5.565  0.00  0.00     0.249 C 
HETATM    2  N           1     -20.349  -8.191  -4.616  0.00  0.00    -0.344 N 
HETATM    3  O           1     -19.561  -7.310  -6.511  0.00  0.00    -0.271 OA
HETATM    4  H           1     -20.974  -8.103  -3.824  0.00  0.00     0.163 HD
ENDROOT
BRANCH   1   5
HETATM    5  C           1     -21.188  -5.988  -5.431  0.00  0.00     0.275 C 
BRANCH   5   6
HETATM    6  C           1     -20.353  -4.731  -5.633  0.00  0.00     0.046 C 
BRANCH   6   7
HETATM    7  C           1     -20.852  -3.981  -6.861  0.00  0.00    -0.020 C 
HETATM    8  C           1     -19.856  -4.148  -8.000  0.00  0.00     0.009 C 
HETATM    9  C           1     -22.203  -4.543  -7.283  0.00  0.00     0.009 C 
ENDBRANCH   6   7
ENDBRANCH   5   6
BRANCH   5  10
HETATM   10  N           1     -21.802  -5.966  -4.063  0.00  0.00    -0.066 N 
HETATM   11  H           1     -22.310  -6.863  -3.895  0.00  0.00     0.275 HD
HETATM   12  H           1     -22.474  -5.168  -3.996  0.00  0.00     0.275 HD
HETATM   13  H           1     -21.051  -5.850  -3.346  0.00  0.00     0.275 HD
ENDBRANCH   5  10
ENDBRANCH   1   5
BRANCH   2  14
HETATM   14  C           1     -19.502  -9.361  -4.745  0.00  0.00     0.189 C 
BRANCH  14  15
HETATM   15  C           1     -20.312 -10.510  -5.294  0.00  0.00     0.197 C 
HETATM   16  O           1     -20.105 -10.923  -6.455  0.00  0.00    -0.646 OA
HETATM   17  O           1     -21.191 -11.048  -4.586  0.00  0.00    -0.646 OA
ENDBRANCH  14  15
BRANCH  14  18
HETATM   18  C           1     -18.946  -9.737  -3.378  0.00  0.00     0.010 C 
HETATM   19  C           1     -19.609  -8.882  -2.308  0.00  0.00     0.012 C 
HETATM   20  C           1     -17.441  -9.499  -3.360  0.00  0.00     0.012 C 
ENDBRANCH  14  18
ENDBRANCH   2  14
TORSDOF 7
ENDMDL
