MODEL 1
REMARK VINA RESULT:      -8.0      0.000      0.000
REMARK  12 active torsions:
REMARK  status: ('A' for Active; 'I' for Inactive)
REMARK    1  A    between atoms: C_1  and  C_24 
REMARK    2  A    between atoms: C_1  and  C_2 
REMARK    3  A    between atoms: C_1  and  N_7 
REMARK    4  A    between atoms: C_2  and  C_3 
REMARK    5  A    between atoms: C_3  and  C_4 
REMARK       I    between atoms: C_4  and  N_5 
REMARK    6  A    between atoms: C_10  and  C_11 
REMARK    7  A    between atoms: C_11  and  C_12 
REMARK    8  A    between atoms: C_11  and  N_19 
REMARK    9  A    between atoms: C_12  and  C_18 
REMARK       I    between atoms: N_19  and  C_24 
REMARK   10  A    between atoms: C_22  and  O_23 
REMARK   11  A    between atoms: O_23  and  P_29 
REMARK   12  A    between atoms: P_29  and  O_33 
ROOT
HETATM    1  C           1     -21.590  -5.532  -6.659  0.00  0.00     0.189 C 
ENDROOT
BRANCH   1   2
HETATM    2  C           1     -20.099  -5.610  -6.434  0.00  0.00     0.197 C 
HETATM    3  O           1     -19.472  -6.641  -6.758  0.00  0.00    -0.646 OA
HETATM    4  O           1     -19.493  -4.643  -5.923  0.00  0.00    -0.646 OA
ENDBRANCH   1   2
BRANCH   1   5
HETATM    5  C           1     -21.959  -4.133  -7.136  0.00  0.00     0.074 C 
BRANCH   5   6
HETATM    6  C           1     -22.414  -4.195  -8.561  0.00  0.00    -0.056 A 
HETATM    7  C           1     -21.482  -4.371  -9.584  0.00  0.00     0.010 A 
HETATM    8  C           1     -21.905  -4.429 -10.911  0.00  0.00     0.038 A 
HETATM    9  C           1     -23.261  -4.310 -11.216  0.00  0.00     0.081 A 
HETATM   10  C           1     -24.193  -4.135 -10.194  0.00  0.00     0.038 A 
HETATM   11  C           1     -23.770  -4.077  -8.867  0.00  0.00     0.010 A 
BRANCH   9  12
HETATM   12  O           1     -23.673  -4.367 -12.506  0.00  0.00    -0.247 OA
BRANCH  12  13
HETATM   13  P           1     -23.989  -2.975 -13.263  0.00  0.00     0.411 P 
HETATM   14  O           1     -25.409  -2.612 -13.056  0.00  0.00    -0.624 OA
HETATM   15  O           1     -23.726  -3.131 -14.711  0.00  0.00    -0.624 OA
BRANCH  13  16
HETATM   16  O           1     -23.043  -1.811 -12.665  0.00  0.00    -0.300 OA
HETATM   17  H           1     -23.602  -1.057 -12.593  0.00  0.00     0.223 HD
ENDBRANCH  13  16
ENDBRANCH  12  13
ENDBRANCH   9  12
ENDBRANCH   5   6
ENDBRANCH   1   5
BRANCH   1  18
HETATM   18  N           1     -22.281  -5.816  -5.417  0.00  0.00    -0.344 N 
HETATM   19  H           1     -23.243  -5.523  -5.295  0.00  0.00     0.163 HD
HETATM   20  C           1     -21.635  -6.480  -4.410  0.00  0.00     0.249 C 
HETATM   21  O           1     -21.022  -5.859  -3.574  0.00  0.00    -0.271 OA
BRANCH  20  22
HETATM   22  C           1     -21.688  -7.986  -4.343  0.00  0.00     0.275 C 
BRANCH  22  23
HETATM   23  C           1     -20.820  -8.475  -3.190  0.00  0.00     0.052 C 
BRANCH  23  24
HETATM   24  C           1     -21.709  -9.040  -2.090  0.00  0.00     0.105 C 
BRANCH  24  25
HETATM   25  C           1     -21.674  -8.121  -0.894  0.00  0.00     0.215 C 
HETATM   26  N           1     -22.312  -6.910  -0.942  0.00  0.00    -0.370 N 
HETATM   27  H           1     -22.289  -6.294  -0.139  0.00  0.00     0.159 HD
HETATM   28  H           1     -22.806  -6.632  -1.780  0.00  0.00     0.159 HD
HETATM   29  O           1     -21.085  -8.453   0.107  0.00  0.00    -0.274 OA
ENDBRANCH  24  25
ENDBRANCH  23  24
ENDBRANCH  22  23
BRANCH  22  30
HETATM   30  N           1     -21.177  -8.561  -5.631  0.00  0.00    -0.066 N 
HETATM   31  H           1     -21.937  -8.539  -6.348  0.00  0.00     0.275 HD
HETATM   32  H           1     -20.365  -7.995  -5.967  0.00  0.00     0.275 HD
HETATM   33  H           1     -20.874  -9.549  -5.475  0.00  0.00     0.275 HD
ENDBRANCH  22  30
ENDBRANCH  20  22
ENDBRANCH   1  18
TORSDOF 12
ENDMDL
MODEL 2
REMARK VINA RESULT:      -7.9      1.390      2.152
REMARK  12 active torsions:
REMARK  status: ('A' for Active; 'I' for Inactive)
REMARK    1  A    between atoms: C_1  and  C_24 
REMARK    2  A    between atoms: C_1  and  C_2 
REMARK    3  A    between atoms: C_1  and  N_7 
REMARK    4  A    between atoms: C_2  and  C_3 
REMARK    5  A    between atoms: C_3  and  C_4 
REMARK       I    between atoms: C_4  and  N_5 
REMARK    6  A    between atoms: C_10  and  C_11 
REMARK    7  A    between atoms: C_11  and  C_12 
REMARK    8  A    between atoms: C_11  and  N_19 
REMARK    9  A    between atoms: C_12  and  C_18 
REMARK       I    between atoms: N_19  and  C_24 
REMARK   10  A    between atoms: C_22  and  O_23 
REMARK   11  A    between atoms: O_23  and  P_29 
REMARK   12  A    between atoms: P_29  and  O_33 
ROOT
HETATM    1  C           1     -20.095  -5.938  -7.290  0.00  0.00     0.189 C 
ENDROOT
BRANCH   1   2
HETATM    2  C           1     -19.444  -4.718  -6.684  0.00  0.00     0.197 C 
HETATM    3  O           1     -19.914  -4.210  -5.644  0.00  0.00    -0.646 OA
HETATM    4  O           1     -18.434  -4.215  -7.224  0.00  0.00    -0.646 OA
ENDBRANCH   1   2
BRANCH   1   5
HETATM    5  C           1     -21.602  -5.729  -7.358  0.00  0.00     0.074 C 
BRANCH   5   6
HETATM    6  C           1     -21.938  -4.900  -8.558  0.00  0.00    -0.056 A 
HETATM    7  C           1     -23.186  -4.282  -8.651  0.00  0.00     0.010 A 
HETATM    8  C           1     -23.500  -3.509  -9.769  0.00  0.00     0.038 A 
HETATM    9  C           1     -22.566  -3.354 -10.793  0.00  0.00     0.081 A 
HETATM   10  C           1     -21.319  -3.971 -10.700  0.00  0.00     0.038 A 
HETATM   11  C           1     -21.005  -4.744  -9.583  0.00  0.00     0.010 A 
BRANCH   9  12
HETATM   12  O           1     -22.871  -2.603 -11.880  0.00  0.00    -0.247 OA
BRANCH  12  13
HETATM   13  P           1     -23.915  -3.210 -12.953  0.00  0.00     0.411 P 
HETATM   14  O           1     -23.598  -2.685 -14.300  0.00  0.00    -0.624 OA
HETATM   15  O           1     -25.290  -2.813 -12.580  0.00  0.00    -0.624 OA
BRANCH  13  16
HETATM   16  O           1     -23.801  -4.821 -12.963  0.00  0.00    -0.300 OA
HETATM   17  H           1     -23.574  -5.053 -12.079  0.00  0.00     0.223 HD
ENDBRANCH  13  16
ENDBRANCH  12  13
ENDBRANCH   9  12
ENDBRANCH   5   6
ENDBRANCH   1   5
BRANCH   1  18
HETATM   18  N           1     -19.805  -7.097  -6.468  0.00  0.00    -0.344 N 
HETATM   19  H           1     -18.910  -7.563  -6.548  0.00  0.00     0.163 HD
HETATM   20  C           1     -20.742  -7.561  -5.585  0.00  0.00     0.249 C 
HETATM   21  O           1     -21.546  -8.390  -5.939  0.00  0.00    -0.271 OA
BRANCH  20  22
HETATM   22  C           1     -20.771  -7.038  -4.170  0.00  0.00     0.275 C 
BRANCH  22  23
HETATM   23  C           1     -20.983  -8.195  -3.204  0.00  0.00     0.052 C 
BRANCH  23  24
HETATM   24  C           1     -20.792  -7.706  -1.774  0.00  0.00     0.105 C 
BRANCH  24  25
HETATM   25  C           1     -22.078  -7.885  -1.005  0.00  0.00     0.215 C 
HETATM   26  N           1     -22.526  -9.142  -0.704  0.00  0.00    -0.370 N 
HETATM   27  H           1     -23.389  -9.262  -0.187  0.00  0.00     0.159 HD
HETATM   28  H           1     -21.995  -9.953  -0.997  0.00  0.00     0.159 HD
HETATM   29  O           1     -22.712  -6.917  -0.654  0.00  0.00    -0.274 OA
ENDBRANCH  24  25
ENDBRANCH  23  24
ENDBRANCH  22  23
BRANCH  22  30
HETATM   30  N           1     -21.892  -6.053  -4.025  0.00  0.00    -0.066 N 
HETATM   31  H           1     -22.717  -6.379  -4.578  0.00  0.00     0.275 HD
HETATM   32  H           1     -22.159  -5.975  -3.016  0.00  0.00     0.275 HD
HETATM   33  H           1     -21.584  -5.119  -4.377  0.00  0.00     0.275 HD
ENDBRANCH  22  30
ENDBRANCH  20  22
ENDBRANCH   1  18
TORSDOF 12
ENDMDL
MODEL 3
REMARK VINA RESULT:      -7.9      1.854      2.801
REMARK  12 active torsions:
REMARK  status: ('A' for Active; 'I' for Inactive)
REMARK    1  A    between atoms: C_1  and  C_24 
REMARK    2  A    between atoms: C_1  and  C_2 
REMARK    3  A    between atoms: C_1  and  N_7 
REMARK    4  A    between atoms: C_2  and  C_3 
REMARK    5  A    between atoms: C_3  and  C_4 
REMARK       I    between atoms: C_4  and  N_5 
REMARK    6  A    between atoms: C_10  and  C_11 
REMARK    7  A    between atoms: C_11  and  C_12 
REMARK    8  A    between atoms: C_11  and  N_19 
REMARK    9  A    between atoms: C_12  and  C_18 
REMARK       I    between atoms: N_19  and  C_24 
REMARK   10  A    between atoms: C_22  and  O_23 
REMARK   11  A    between atoms: O_23  and  P_29 
REMARK   12  A    between atoms: P_29  and  O_33 
ROOT
HETATM    1  C           1     -21.691  -6.756  -5.412  0.00  0.00     0.189 C 
ENDROOT
BRANCH   1   2
HETATM    2  C           1     -20.908  -8.027  -5.190  0.00  0.00     0.197 C 
HETATM    3  O           1     -19.670  -7.977  -5.023  0.00  0.00    -0.646 OA
HETATM    4  O           1     -21.497  -9.129  -5.172  0.00  0.00    -0.646 OA
ENDBRANCH   1   2
BRANCH   1   5
HETATM    5  C           1     -20.735  -5.627  -5.778  0.00  0.00     0.074 C 
BRANCH   5   6
HETATM    6  C           1     -21.159  -5.014  -7.076  0.00  0.00    -0.056 A 
HETATM    7  C           1     -22.418  -4.423  -7.189  0.00  0.00     0.010 A 
HETATM    8  C           1     -22.813  -3.850  -8.397  0.00  0.00     0.038 A 
HETATM    9  C           1     -21.949  -3.869  -9.493  0.00  0.00     0.081 A 
HETATM   10  C           1     -20.691  -4.458  -9.380  0.00  0.00     0.038 A 
HETATM   11  C           1     -20.296  -5.031  -8.171  0.00  0.00     0.010 A 
BRANCH   9  12
HETATM   12  O           1     -22.333  -3.312 -10.668  0.00  0.00    -0.247 OA
BRANCH  12  13
HETATM   13  P           1     -23.603  -3.954 -11.432  0.00  0.00     0.411 P 
HETATM   14  O           1     -24.815  -3.163 -11.126  0.00  0.00    -0.624 OA
HETATM   15  O           1     -23.797  -5.349 -10.978  0.00  0.00    -0.624 OA
BRANCH  13  16
HETATM   16  O           1     -23.337  -3.937 -13.025  0.00  0.00    -0.300 OA
HETATM   17  H           1     -23.292  -3.024 -13.254  0.00  0.00     0.223 HD
ENDBRANCH  13  16
ENDBRANCH  12  13
ENDBRANCH   9  12
ENDBRANCH   5   6
ENDBRANCH   1   5
BRANCH   1  18
HETATM   18  N           1     -22.404  -6.409  -4.198  0.00  0.00    -0.344 N 
HETATM   19  H           1     -23.397  -6.216  -4.232  0.00  0.00     0.163 HD
HETATM   20  C           1     -21.735  -6.344  -3.006  0.00  0.00     0.249 C 
HETATM   21  O           1     -21.236  -5.302  -2.650  0.00  0.00    -0.271 OA
BRANCH  20  22
HETATM   22  C           1     -21.619  -7.572  -2.137  0.00  0.00     0.275 C 
BRANCH  22  23
HETATM   23  C           1     -22.332  -7.328  -0.813  0.00  0.00     0.052 C 
BRANCH  23  24
HETATM   24  C           1     -21.741  -8.236   0.257  0.00  0.00     0.105 C 
BRANCH  24  25
HETATM   25  C           1     -22.364  -9.606   0.154  0.00  0.00     0.215 C 
HETATM   26  N           1     -21.580 -10.724   0.256  0.00  0.00    -0.370 N 
HETATM   27  H           1     -21.999 -11.644   0.187  0.00  0.00     0.159 HD
HETATM   28  H           1     -20.583 -10.631   0.400  0.00  0.00     0.159 HD
HETATM   29  O           1     -23.555  -9.718  -0.018  0.00  0.00    -0.274 OA
ENDBRANCH  24  25
ENDBRANCH  23  24
ENDBRANCH  22  23
BRANCH  22  30
HETATM   30  N           1     -20.171  -7.865  -1.877  0.00  0.00    -0.066 N 
HETATM   31  H           1     -20.091  -8.685  -1.234  0.00  0.00     0.275 HD
HETATM   32  H           1     -19.693  -8.085  -2.781  0.00  0.00     0.275 HD
HETATM   33  H           1     -19.720  -7.032  -1.437  0.00  0.00     0.275 HD
ENDBRANCH  22  30
ENDBRANCH  20  22
ENDBRANCH   1  18
TORSDOF 12
ENDMDL
MODEL 4
REMARK VINA RESULT:      -7.8      1.812      2.567
REMARK  12 active torsions:
REMARK  status: ('A' for Active; 'I' for Inactive)
REMARK    1  A    between atoms: C_1  and  C_24 
REMARK    2  A    between atoms: C_1  and  C_2 
REMARK    3  A    between atoms: C_1  and  N_7 
REMARK    4  A    between atoms: C_2  and  C_3 
REMARK    5  A    between atoms: C_3  and  C_4 
REMARK       I    between atoms: C_4  and  N_5 
REMARK    6  A    between atoms: C_10  and  C_11 
REMARK    7  A    between atoms: C_11  and  C_12 
REMARK    8  A    between atoms: C_11  and  N_19 
REMARK    9  A    between atoms: C_12  and  C_18 
REMARK       I    between atoms: N_19  and  C_24 
REMARK   10  A    between atoms: C_22  and  O_23 
REMARK   11  A    between atoms: O_23  and  P_29 
REMARK   12  A    between atoms: P_29  and  O_33 
ROOT
HETATM    1  C           1     -21.645  -6.833  -5.410  0.00  0.00     0.189 C 
ENDROOT
BRANCH   1   2
HETATM    2  C           1     -20.849  -8.090  -5.156  0.00  0.00     0.197 C 
HETATM    3  O           1     -21.438  -9.180  -4.991  0.00  0.00    -0.646 OA
HETATM    4  O           1     -19.601  -8.041  -5.112  0.00  0.00    -0.646 OA
ENDBRANCH   1   2
BRANCH   1   5
HETATM    5  C           1     -20.699  -5.696  -5.772  0.00  0.00     0.074 C 
BRANCH   5   6
HETATM    6  C           1     -21.145  -5.060  -7.051  0.00  0.00    -0.056 A 
HETATM    7  C           1     -20.298  -5.055  -8.159  0.00  0.00     0.010 A 
HETATM    8  C           1     -20.713  -4.464  -9.352  0.00  0.00     0.038 A 
HETATM    9  C           1     -21.976  -3.877  -9.436  0.00  0.00     0.081 A 
HETATM   10  C           1     -22.823  -3.882  -8.329  0.00  0.00     0.038 A 
HETATM   11  C           1     -22.408  -4.474  -7.136  0.00  0.00     0.010 A 
BRANCH   9  12
HETATM   12  O           1     -22.380  -3.301 -10.595  0.00  0.00    -0.247 OA
BRANCH  12  13
HETATM   13  P           1     -23.638  -3.955 -11.368  0.00  0.00     0.411 P 
HETATM   14  O           1     -24.866  -3.198 -11.041  0.00  0.00    -0.624 OA
HETATM   15  O           1     -23.800  -5.363 -10.942  0.00  0.00    -0.624 OA
BRANCH  13  16
HETATM   16  O           1     -23.379  -3.899 -12.961  0.00  0.00    -0.300 OA
HETATM   17  H           1     -23.469  -4.790 -13.253  0.00  0.00     0.223 HD
ENDBRANCH  13  16
ENDBRANCH  12  13
ENDBRANCH   9  12
ENDBRANCH   5   6
ENDBRANCH   1   5
BRANCH   1  18
HETATM   18  N           1     -22.388  -6.482  -4.215  0.00  0.00    -0.344 N 
HETATM   19  H           1     -23.383  -6.308  -4.271  0.00  0.00     0.163 HD
HETATM   20  C           1     -21.743  -6.387  -3.012  0.00  0.00     0.249 C 
HETATM   21  O           1     -21.271  -5.331  -2.663  0.00  0.00    -0.271 OA
BRANCH  20  22
HETATM   22  C           1     -21.621  -7.599  -2.122  0.00  0.00     0.275 C 
BRANCH  22  23
HETATM   23  C           1     -22.107  -7.253  -0.721  0.00  0.00     0.052 C 
BRANCH  23  24
HETATM   24  C           1     -22.648  -8.506  -0.047  0.00  0.00     0.105 C 
BRANCH  24  25
HETATM   25  C           1     -21.550  -9.162   0.753  0.00  0.00     0.215 C 
HETATM   26  N           1     -21.216 -10.468   0.515  0.00  0.00    -0.370 N 
HETATM   27  H           1     -20.479 -10.908   1.051  0.00  0.00     0.159 HD
HETATM   28  H           1     -21.707 -10.994  -0.197  0.00  0.00     0.159 HD
HETATM   29  O           1     -20.963  -8.535   1.603  0.00  0.00    -0.274 OA
ENDBRANCH  24  25
ENDBRANCH  23  24
ENDBRANCH  22  23
BRANCH  22  30
HETATM   30  N           1     -20.186  -8.032  -2.061  0.00  0.00    -0.066 N 
HETATM   31  H           1     -20.135  -9.025  -1.740  0.00  0.00     0.275 HD
HETATM   32  H           1     -19.757  -7.951  -3.011  0.00  0.00     0.275 HD
HETATM   33  H           1     -19.667  -7.421  -1.391  0.00  0.00     0.275 HD
ENDBRANCH  22  30
ENDBRANCH  20  22
ENDBRANCH   1  18
TORSDOF 12
ENDMDL
MODEL 5
REMARK VINA RESULT:      -7.7      3.812      9.306
REMARK  12 active torsions:
REMARK  status: ('A' for Active; 'I' for Inactive)
REMARK    1  A    between atoms: C_1  and  C_24 
REMARK    2  A    between atoms: C_1  and  C_2 
REMARK    3  A    between atoms: C_1  and  N_7 
REMARK    4  A    between atoms: C_2  and  C_3 
REMARK    5  A    between atoms: C_3  and  C_4 
REMARK       I    between atoms: C_4  and  N_5 
REMARK    6  A    between atoms: C_10  and  C_11 
REMARK    7  A    between atoms: C_11  and  C_12 
REMARK    8  A    between atoms: C_11  and  N_19 
REMARK    9  A    between atoms: C_12  and  C_18 
REMARK       I    between atoms: N_19  and  C_24 
REMARK   10  A    between atoms: C_22  and  O_23 
REMARK   11  A    between atoms: O_23  and  P_29 
REMARK   12  A    between atoms: P_29  and  O_33 
ROOT
HETATM    1  C           1     -21.082  -4.750  -6.608  0.00  0.00     0.189 C 
ENDROOT
BRANCH   1   2
HETATM    2  C           1     -19.810  -5.177  -7.300  0.00  0.00     0.197 C 
HETATM    3  O           1     -19.015  -4.314  -7.732  0.00  0.00    -0.646 OA
HETATM    4  O           1     -19.553  -6.392  -7.441  0.00  0.00    -0.646 OA
ENDBRANCH   1   2
BRANCH   1   5
HETATM    5  C           1     -21.969  -5.967  -6.379  0.00  0.00     0.074 C 
BRANCH   5   6
HETATM    6  C           1     -21.673  -6.556  -5.035  0.00  0.00    -0.056 A 
HETATM    7  C           1     -21.261  -5.731  -3.988  0.00  0.00     0.010 A 
HETATM    8  C           1     -20.985  -6.279  -2.736  0.00  0.00     0.038 A 
HETATM    9  C           1     -21.122  -7.652  -2.531  0.00  0.00     0.081 A 
HETATM   10  C           1     -21.534  -8.477  -3.577  0.00  0.00     0.038 A 
HETATM   11  C           1     -21.809  -7.929  -4.829  0.00  0.00     0.010 A 
BRANCH   9  12
HETATM   12  O           1     -20.854  -8.186  -1.313  0.00  0.00    -0.247 OA
BRANCH  12  13
HETATM   13  P           1     -22.073  -8.330  -0.264  0.00  0.00     0.411 P 
HETATM   14  O           1     -22.836  -9.562  -0.560  0.00  0.00    -0.624 OA
HETATM   15  O           1     -22.966  -7.156  -0.382  0.00  0.00    -0.624 OA
BRANCH  13  16
HETATM   16  O           1     -21.483  -8.410   1.238  0.00  0.00    -0.300 OA
HETATM   17  H           1     -20.680  -7.919   1.210  0.00  0.00     0.223 HD
ENDBRANCH  13  16
ENDBRANCH  12  13
ENDBRANCH   9  12
ENDBRANCH   5   6
ENDBRANCH   1   5
BRANCH   1  18
HETATM   18  N           1     -21.785  -3.791  -7.438  0.00  0.00    -0.344 N 
HETATM   19  H           1     -21.526  -2.813  -7.411  0.00  0.00     0.163 HD
HETATM   20  C           1     -22.799  -4.207  -8.257  0.00  0.00     0.249 C 
HETATM   21  O           1     -23.935  -4.229  -7.848  0.00  0.00    -0.271 OA
BRANCH  20  22
HETATM   22  C           1     -22.498  -4.639  -9.671  0.00  0.00     0.275 C 
BRANCH  22  23
HETATM   23  C           1     -21.898  -3.472 -10.443  0.00  0.00     0.052 C 
BRANCH  23  24
HETATM   24  C           1     -21.668  -3.884 -11.891  0.00  0.00     0.105 C 
BRANCH  24  25
HETATM   25  C           1     -22.610  -3.118 -12.788  0.00  0.00     0.215 C 
HETATM   26  N           1     -22.417  -3.119 -14.143  0.00  0.00    -0.370 N 
HETATM   27  H           1     -23.049  -2.606 -14.744  0.00  0.00     0.159 HD
HETATM   28  H           1     -21.643  -3.634 -14.544  0.00  0.00     0.159 HD
HETATM   29  O           1     -23.534  -2.504 -12.310  0.00  0.00    -0.274 OA
ENDBRANCH  24  25
ENDBRANCH  23  24
ENDBRANCH  22  23
BRANCH  22  30
HETATM   30  N           1     -23.766  -5.081 -10.339  0.00  0.00    -0.066 N 
HETATM   31  H           1     -24.131  -4.308 -10.941  0.00  0.00     0.275 HD
HETATM   32  H           1     -23.574  -5.920 -10.932  0.00  0.00     0.275 HD
HETATM   33  H           1     -24.477  -5.322  -9.612  0.00  0.00     0.275 HD
ENDBRANCH  22  30
ENDBRANCH  20  22
ENDBRANCH   1  18
TORSDOF 12
ENDMDL
MODEL 6
REMARK VINA RESULT:      -7.2      3.872      9.386
REMARK  12 active torsions:
REMARK  status: ('A' for Active; 'I' for Inactive)
REMARK    1  A    between atoms: C_1  and  C_24 
REMARK    2  A    between atoms: C_1  and  C_2 
REMARK    3  A    between atoms: C_1  and  N_7 
REMARK    4  A    between atoms: C_2  and  C_3 
REMARK    5  A    between atoms: C_3  and  C_4 
REMARK       I    between atoms: C_4  and  N_5 
REMARK    6  A    between atoms: C_10  and  C_11 
REMARK    7  A    between atoms: C_11  and  C_12 
REMARK    8  A    between atoms: C_11  and  N_19 
REMARK    9  A    between atoms: C_12  and  C_18 
REMARK       I    between atoms: N_19  and  C_24 
REMARK   10  A    between atoms: C_22  and  O_23 
REMARK   11  A    between atoms: O_23  and  P_29 
REMARK   12  A    between atoms: P_29  and  O_33 
ROOT
HETATM    1  C           1     -21.030  -6.821  -6.346  0.00  0.00     0.189 C 
ENDROOT
BRANCH   1   2
HETATM    2  C           1     -21.632  -5.927  -5.289  0.00  0.00     0.197 C 
HETATM    3  O           1     -22.873  -5.797  -5.213  0.00  0.00    -0.646 OA
HETATM    4  O           1     -20.889  -5.315  -4.491  0.00  0.00    -0.646 OA
ENDBRANCH   1   2
BRANCH   1   5
HETATM    5  C           1     -19.816  -7.539  -5.772  0.00  0.00     0.074 C 
BRANCH   5   6
HETATM    6  C           1     -20.261  -8.542  -4.754  0.00  0.00    -0.056 A 
HETATM    7  C           1     -19.502  -8.751  -3.603  0.00  0.00     0.010 A 
HETATM    8  C           1     -19.917  -9.685  -2.654  0.00  0.00     0.038 A 
HETATM    9  C           1     -21.091 -10.410  -2.856  0.00  0.00     0.081 A 
HETATM   10  C           1     -21.851 -10.200  -4.006  0.00  0.00     0.038 A 
HETATM   11  C           1     -21.436  -9.267  -4.955  0.00  0.00     0.010 A 
BRANCH   9  12
HETATM   12  O           1     -21.495 -11.318  -1.934  0.00  0.00    -0.247 OA
BRANCH  12  13
HETATM   13  P           1     -22.662 -10.885  -0.904  0.00  0.00     0.411 P 
HETATM   14  O           1     -22.446 -11.556   0.397  0.00  0.00    -0.624 OA
HETATM   15  O           1     -23.976 -11.287  -1.454  0.00  0.00    -0.624 OA
BRANCH  13  16
HETATM   16  O           1     -22.631  -9.284  -0.697  0.00  0.00    -0.300 OA
HETATM   17  H           1     -23.086  -8.933  -1.442  0.00  0.00     0.223 HD
ENDBRANCH  13  16
ENDBRANCH  12  13
ENDBRANCH   9  12
ENDBRANCH   5   6
ENDBRANCH   1   5
BRANCH   1  18
HETATM   18  N           1     -20.624  -6.020  -7.483  0.00  0.00    -0.344 N 
HETATM   19  H           1     -19.880  -6.342  -8.090  0.00  0.00     0.163 HD
HETATM   20  C           1     -21.246  -4.827  -7.738  0.00  0.00     0.249 C 
HETATM   21  O           1     -20.817  -3.808  -7.251  0.00  0.00    -0.271 OA
BRANCH  20  22
HETATM   22  C           1     -22.465  -4.786  -8.625  0.00  0.00     0.275 C 
BRANCH  22  23
HETATM   23  C           1     -22.164  -3.955  -9.865  0.00  0.00     0.052 C 
BRANCH  23  24
HETATM   24  C           1     -23.053  -4.415 -11.013  0.00  0.00     0.105 C 
BRANCH  24  25
HETATM   25  C           1     -24.055  -3.335 -11.337  0.00  0.00     0.215 C 
HETATM   26  N           1     -23.862  -2.526 -12.425  0.00  0.00    -0.370 N 
HETATM   27  H           1     -24.535  -1.801 -12.642  0.00  0.00     0.159 HD
HETATM   28  H           1     -23.047  -2.652 -13.011  0.00  0.00     0.159 HD
HETATM   29  O           1     -25.029  -3.184 -10.638  0.00  0.00    -0.274 OA
ENDBRANCH  24  25
ENDBRANCH  23  24
ENDBRANCH  22  23
BRANCH  22  30
HETATM   30  N           1     -23.607  -4.168  -7.875  0.00  0.00    -0.066 N 
HETATM   31  H           1     -23.777  -4.703  -6.994  0.00  0.00     0.275 HD
HETATM   32  H           1     -23.373  -3.176  -7.639  0.00  0.00     0.275 HD
HETATM   33  H           1     -24.467  -4.192  -8.469  0.00  0.00     0.275 HD
ENDBRANCH  22  30
ENDBRANCH  20  22
ENDBRANCH   1  18
TORSDOF 12
ENDMDL
MODEL 7
REMARK VINA RESULT:      -7.0      2.288      3.335
REMARK  12 active torsions:
REMARK  status: ('A' for Active; 'I' for Inactive)
REMARK    1  A    between atoms: C_1  and  C_24 
REMARK    2  A    between atoms: C_1  and  C_2 
REMARK    3  A    between atoms: C_1  and  N_7 
REMARK    4  A    between atoms: C_2  and  C_3 
REMARK    5  A    between atoms: C_3  and  C_4 
REMARK       I    between atoms: C_4  and  N_5 
REMARK    6  A    between atoms: C_10  and  C_11 
REMARK    7  A    between atoms: C_11  and  C_12 
REMARK    8  A    between atoms: C_11  and  N_19 
REMARK    9  A    between atoms: C_12  and  C_18 
REMARK       I    between atoms: N_19  and  C_24 
REMARK   10  A    between atoms: C_22  and  O_23 
REMARK   11  A    between atoms: O_23  and  P_29 
REMARK   12  A    between atoms: P_29  and  O_33 
ROOT
HETATM    1  C           1     -20.674  -7.766  -5.267  0.00  0.00     0.189 C 
ENDROOT
BRANCH   1   2
HETATM    2  C           1     -20.146  -9.115  -5.691  0.00  0.00     0.197 C 
HETATM    3  O           1     -18.914  -9.299  -5.797  0.00  0.00    -0.646 OA
HETATM    4  O           1     -20.941 -10.049  -5.934  0.00  0.00    -0.646 OA
ENDBRANCH   1   2
BRANCH   1   5
HETATM    5  C           1     -19.866  -6.668  -5.948  0.00  0.00     0.074 C 
BRANCH   5   6
HETATM    6  C           1     -20.786  -5.776  -6.721  0.00  0.00    -0.056 A 
HETATM    7  C           1     -22.071  -5.518  -6.244  0.00  0.00     0.010 A 
HETATM    8  C           1     -22.929  -4.687  -6.963  0.00  0.00     0.038 A 
HETATM    9  C           1     -22.501  -4.114  -8.161  0.00  0.00     0.081 A 
HETATM   10  C           1     -21.216  -4.371  -8.638  0.00  0.00     0.038 A 
HETATM   11  C           1     -20.359  -5.202  -7.919  0.00  0.00     0.010 A 
BRANCH   9  12
HETATM   12  O           1     -23.334  -3.305  -8.861  0.00  0.00    -0.247 OA
BRANCH  12  13
HETATM   13  P           1     -23.828  -3.802 -10.316  0.00  0.00     0.411 P 
HETATM   14  O           1     -22.972  -3.197 -11.361  0.00  0.00    -0.624 OA
HETATM   15  O           1     -25.232  -3.387 -10.528  0.00  0.00    -0.624 OA
BRANCH  13  16
HETATM   16  O           1     -23.722  -5.412 -10.399  0.00  0.00    -0.300 OA
HETATM   17  H           1     -22.870  -5.581 -10.762  0.00  0.00     0.223 HD
ENDBRANCH  13  16
ENDBRANCH  12  13
ENDBRANCH   9  12
ENDBRANCH   5   6
ENDBRANCH   1   5
BRANCH   1  18
HETATM   18  N           1     -20.556  -7.631  -3.829  0.00  0.00    -0.344 N 
HETATM   19  H           1     -20.536  -6.711  -3.407  0.00  0.00     0.163 HD
HETATM   20  C           1     -20.471  -8.747  -3.041  0.00  0.00     0.249 C 
HETATM   21  O           1     -19.391  -9.221  -2.781  0.00  0.00    -0.271 OA
BRANCH  20  22
HETATM   22  C           1     -21.726  -9.385  -2.498  0.00  0.00     0.275 C 
BRANCH  22  23
HETATM   23  C           1     -21.525  -9.732  -1.029  0.00  0.00     0.052 C 
BRANCH  23  24
HETATM   24  C           1     -21.321  -8.454  -0.228  0.00  0.00     0.105 C 
BRANCH  24  25
HETATM   25  C           1     -22.602  -7.657  -0.215  0.00  0.00     0.215 C 
HETATM   26  N           1     -23.685  -8.114   0.488  0.00  0.00    -0.370 N 
HETATM   27  H           1     -24.545  -7.579   0.496  0.00  0.00     0.159 HD
HETATM   28  H           1     -23.626  -8.985   0.999  0.00  0.00     0.159 HD
HETATM   29  O           1     -22.673  -6.616  -0.824  0.00  0.00    -0.274 OA
ENDBRANCH  24  25
ENDBRANCH  23  24
ENDBRANCH  22  23
BRANCH  22  30
HETATM   30  N           1     -22.025 -10.635  -3.270  0.00  0.00    -0.066 N 
HETATM   31  H           1     -21.243 -10.829  -3.936  0.00  0.00     0.275 HD
HETATM   32  H           1     -22.126 -11.438  -2.608  0.00  0.00     0.275 HD
HETATM   33  H           1     -22.914 -10.509  -3.805  0.00  0.00     0.275 HD
ENDBRANCH  22  30
ENDBRANCH  20  22
ENDBRANCH   1  18
TORSDOF 12
ENDMDL
MODEL 8
REMARK VINA RESULT:      -6.9      3.935      8.443
REMARK  12 active torsions:
REMARK  status: ('A' for Active; 'I' for Inactive)
REMARK    1  A    between atoms: C_1  and  C_24 
REMARK    2  A    between atoms: C_1  and  C_2 
REMARK    3  A    between atoms: C_1  and  N_7 
REMARK    4  A    between atoms: C_2  and  C_3 
REMARK    5  A    between atoms: C_3  and  C_4 
REMARK       I    between atoms: C_4  and  N_5 
REMARK    6  A    between atoms: C_10  and  C_11 
REMARK    7  A    between atoms: C_11  and  C_12 
REMARK    8  A    between atoms: C_11  and  N_19 
REMARK    9  A    between atoms: C_12  and  C_18 
REMARK       I    between atoms: N_19  and  C_24 
REMARK   10  A    between atoms: C_22  and  O_23 
REMARK   11  A    between atoms: O_23  and  P_29 
REMARK   12  A    between atoms: P_29  and  O_33 
ROOT
HETATM    1  C           1     -21.403  -7.729  -2.390  0.00  0.00     0.189 C 
ENDROOT
BRANCH   1   2
HETATM    2  C           1     -22.245  -7.710  -1.137  0.00  0.00     0.197 C 
HETATM    3  O           1     -22.428  -8.764  -0.492  0.00  0.00    -0.646 OA
HETATM    4  O           1     -22.759  -6.640  -0.746  0.00  0.00    -0.646 OA
ENDBRANCH   1   2
BRANCH   1   5
HETATM    5  C           1     -19.967  -8.087  -2.031  0.00  0.00     0.074 C 
BRANCH   5   6
HETATM    6  C           1     -19.511  -9.235  -2.877  0.00  0.00    -0.056 A 
HETATM    7  C           1     -18.153  -9.404  -3.149  0.00  0.00     0.010 A 
HETATM    8  C           1     -17.727 -10.473  -3.937  0.00  0.00     0.038 A 
HETATM    9  C           1     -18.660 -11.373  -4.453  0.00  0.00     0.081 A 
HETATM   10  C           1     -20.017 -11.205  -4.181  0.00  0.00     0.038 A 
HETATM   11  C           1     -20.443 -10.136  -3.393  0.00  0.00     0.010 A 
BRANCH   9  12
HETATM   12  O           1     -18.247 -12.413  -5.219  0.00  0.00    -0.247 OA
BRANCH  12  13
HETATM   13  P           1     -18.469 -12.315  -6.815  0.00  0.00     0.411 P 
HETATM   14  O           1     -18.651 -10.898  -7.201  0.00  0.00    -0.624 OA
HETATM   15  O           1     -19.673 -13.087  -7.193  0.00  0.00    -0.624 OA
BRANCH  13  16
HETATM   16  O           1     -17.179 -12.918  -7.576  0.00  0.00    -0.300 OA
HETATM   17  H           1     -16.848 -12.206  -8.095  0.00  0.00     0.223 HD
ENDBRANCH  13  16
ENDBRANCH  12  13
ENDBRANCH   9  12
ENDBRANCH   5   6
ENDBRANCH   1   5
BRANCH   1  18
HETATM   18  N           1     -21.433  -6.420  -3.012  0.00  0.00    -0.344 N 
HETATM   19  H           1     -21.292  -5.590  -2.450  0.00  0.00     0.163 HD
HETATM   20  C           1     -21.651  -6.306  -4.358  0.00  0.00     0.249 C 
HETATM   21  O           1     -22.779  -6.197  -4.780  0.00  0.00    -0.271 OA
BRANCH  20  22
HETATM   22  C           1     -20.486  -6.317  -5.316  0.00  0.00     0.275 C 
BRANCH  22  23
HETATM   23  C           1     -20.489  -5.034  -6.136  0.00  0.00     0.052 C 
BRANCH  23  24
HETATM   24  C           1     -20.652  -5.374  -7.611  0.00  0.00     0.105 C 
BRANCH  24  25
HETATM   25  C           1     -21.945  -4.788  -8.123  0.00  0.00     0.215 C 
HETATM   26  N           1     -22.847  -4.249  -7.246  0.00  0.00    -0.370 N 
HETATM   27  H           1     -23.714  -3.855  -7.589  0.00  0.00     0.159 HD
HETATM   28  H           1     -22.647  -4.244  -6.254  0.00  0.00     0.159 HD
HETATM   29  O           1     -22.184  -4.793  -9.308  0.00  0.00    -0.274 OA
ENDBRANCH  24  25
ENDBRANCH  23  24
ENDBRANCH  22  23
BRANCH  22  30
HETATM   30  N           1     -20.605  -7.497  -6.234  0.00  0.00    -0.066 N 
HETATM   31  H           1     -20.959  -8.321  -5.699  0.00  0.00     0.275 HD
HETATM   32  H           1     -21.272  -7.271  -7.007  0.00  0.00     0.275 HD
HETATM   33  H           1     -19.667  -7.720  -6.637  0.00  0.00     0.275 HD
ENDBRANCH  22  30
ENDBRANCH  20  22
ENDBRANCH   1  18
TORSDOF 12
ENDMDL
MODEL 9
REMARK VINA RESULT:      -6.7      2.750      3.969
REMARK  12 active torsions:
REMARK  status: ('A' for Active; 'I' for Inactive)
REMARK    1  A    between atoms: C_1  and  C_24 
REMARK    2  A    between atoms: C_1  and  C_2 
REMARK    3  A    between atoms: C_1  and  N_7 
REMARK    4  A    between atoms: C_2  and  C_3 
REMARK    5  A    between atoms: C_3  and  C_4 
REMARK       I    between atoms: C_4  and  N_5 
REMARK    6  A    between atoms: C_10  and  C_11 
REMARK    7  A    between atoms: C_11  and  C_12 
REMARK    8  A    between atoms: C_11  and  N_19 
REMARK    9  A    between atoms: C_12  and  C_18 
REMARK       I    between atoms: N_19  and  C_24 
REMARK   10  A    between atoms: C_22  and  O_23 
REMARK   11  A    between atoms: O_23  and  P_29 
REMARK   12  A    between atoms: P_29  and  O_33 
ROOT
HETATM    1  C           1     -20.974  -7.138  -3.843  0.00  0.00     0.189 C 
ENDROOT
BRANCH   1   2
HETATM    2  C           1     -21.548  -6.814  -2.485  0.00  0.00     0.197 C 
HETATM    3  O           1     -22.442  -5.947  -2.376  0.00  0.00    -0.646 OA
HETATM    4  O           1     -21.130  -7.413  -1.471  0.00  0.00    -0.646 OA
ENDBRANCH   1   2
BRANCH   1   5
HETATM    5  C           1     -22.072  -7.045  -4.895  0.00  0.00     0.074 C 
BRANCH   5   6
HETATM    6  C           1     -21.640  -6.118  -5.988  0.00  0.00    -0.056 A 
HETATM    7  C           1     -20.367  -6.243  -6.545  0.00  0.00     0.010 A 
HETATM    8  C           1     -19.964  -5.381  -7.565  0.00  0.00     0.038 A 
HETATM    9  C           1     -20.835  -4.394  -8.027  0.00  0.00     0.081 A 
HETATM   10  C           1     -22.107  -4.270  -7.471  0.00  0.00     0.038 A 
HETATM   11  C           1     -22.510  -5.132  -6.452  0.00  0.00     0.010 A 
BRANCH   9  12
HETATM   12  O           1     -20.444  -3.556  -9.018  0.00  0.00    -0.247 OA
BRANCH  12  13
HETATM   13  P           1     -20.657  -4.035 -10.546  0.00  0.00     0.411 P 
HETATM   14  O           1     -22.009  -4.617 -10.696  0.00  0.00    -0.624 OA
HETATM   15  O           1     -19.641  -5.055 -10.887  0.00  0.00    -0.624 OA
BRANCH  13  16
HETATM   16  O           1     -20.503  -2.767 -11.534  0.00  0.00    -0.300 OA
HETATM   17  H           1     -20.553  -2.014 -10.972  0.00  0.00     0.223 HD
ENDBRANCH  13  16
ENDBRANCH  12  13
ENDBRANCH   9  12
ENDBRANCH   5   6
ENDBRANCH   1   5
BRANCH   1  18
HETATM   18  N           1     -20.431  -8.482  -3.830  0.00  0.00    -0.344 N 
HETATM   19  H           1     -19.576  -8.677  -3.325  0.00  0.00     0.163 HD
HETATM   20  C           1     -21.075  -9.487  -4.499  0.00  0.00     0.249 C 
HETATM   21  O           1     -20.802  -9.714  -5.654  0.00  0.00    -0.271 OA
BRANCH  20  22
HETATM   22  C           1     -22.125 -10.311  -3.796  0.00  0.00     0.275 C 
BRANCH  22  23
HETATM   23  C           1     -21.654 -10.641  -2.386  0.00  0.00     0.052 C 
BRANCH  23  24
HETATM   24  C           1     -22.555 -11.712  -1.786  0.00  0.00     0.105 C 
BRANCH  24  25
HETATM   25  C           1     -23.248 -11.160  -0.565  0.00  0.00     0.215 C 
HETATM   26  N           1     -23.739 -12.012   0.387  0.00  0.00    -0.370 N 
HETATM   27  H           1     -24.204 -11.641   1.207  0.00  0.00     0.159 HD
HETATM   28  H           1     -23.637 -13.012   0.272  0.00  0.00     0.159 HD
HETATM   29  O           1     -23.370  -9.966  -0.427  0.00  0.00    -0.274 OA
ENDBRANCH  24  25
ENDBRANCH  23  24
ENDBRANCH  22  23
BRANCH  22  30
HETATM   30  N           1     -22.354 -11.583  -4.557  0.00  0.00    -0.066 N 
HETATM   31  H           1     -22.874 -12.261  -3.955  0.00  0.00     0.275 HD
HETATM   32  H           1     -22.915 -11.379  -5.415  0.00  0.00     0.275 HD
HETATM   33  H           1     -21.434 -11.995  -4.830  0.00  0.00     0.275 HD
ENDBRANCH  22  30
ENDBRANCH  20  22
ENDBRANCH   1  18
TORSDOF 12
ENDMDL
