MODEL 1
REMARK VINA RESULT:      -6.1      0.000      0.000
REMARK  8 active torsions:
REMARK  status: ('A' for Active; 'I' for Inactive)
REMARK    1  A    between atoms: C_2  and  C_16 
REMARK    2  A    between atoms: C_2  and  C_3 
REMARK    3  A    between atoms: C_2  and  N_19 
REMARK    4  A    between atoms: O_7  and  C_8 
REMARK    5  A    between atoms: C_8  and  C_17 
REMARK    6  A    between atoms: O_11  and  C_16 
REMARK    7  A    between atoms: N_15  and  C_17 
REMARK    8  A    between atoms: C_17  and  C_20 
REMARK       I    between atoms: N_19  and  C_20 
ROOT
HETATM    1  H           1     -33.943  -1.116 -14.297  0.00  0.00     0.163 HD
HETATM    2  O           1     -36.260  -1.695 -12.263  0.00  0.00    -0.271 OA
HETATM    3  N           1     -34.887  -1.142 -13.936  0.00  0.00    -0.342 N 
HETATM    4  C           1     -35.131  -1.664 -12.693  0.00  0.00     0.251 C 
ENDROOT
BRANCH   4   5
HETATM    5  C           1     -33.991  -2.199 -11.862  0.00  0.00     0.302 C 
BRANCH   5   6
HETATM    6  C           1     -33.861  -3.700 -12.084  0.00  0.00     0.153 C 
HETATM    7  C           1     -34.111  -4.430 -10.771  0.00  0.00     0.042 C 
BRANCH   6   8
HETATM    8  O           1     -34.802  -4.115 -13.036  0.00  0.00    -0.393 OA
HETATM    9  H           1     -35.430  -3.418 -13.122  0.00  0.00     0.210 HD
ENDBRANCH   6   8
ENDBRANCH   5   6
BRANCH   5  10
HETATM   10  N           1     -34.260  -1.930 -10.412  0.00  0.00    -0.064 N 
HETATM   11  H           1     -34.918  -2.651 -10.039  0.00  0.00     0.275 HD
HETATM   12  H           1     -33.363  -1.968  -9.878  0.00  0.00     0.275 HD
HETATM   13  H           1     -34.688  -0.982 -10.307  0.00  0.00     0.275 HD
ENDBRANCH   5  10
ENDBRANCH   4   5
BRANCH   3  14
HETATM   14  C           1     -35.983  -0.628 -14.734  0.00  0.00     0.214 C 
BRANCH  14  15
HETATM   15  C           1     -36.010   0.891 -14.639  0.00  0.00     0.147 C 
HETATM   16  C           1     -34.701   1.385 -14.037  0.00  0.00     0.042 C 
BRANCH  15  17
HETATM   17  O           1     -36.170   1.437 -15.921  0.00  0.00    -0.393 OA
HETATM   18  H           1     -35.306   1.604 -16.257  0.00  0.00     0.210 HD
ENDBRANCH  15  17
ENDBRANCH  14  15
BRANCH  14  19
HETATM   19  C           1     -35.792  -1.039 -16.173  0.00  0.00     0.199 C 
HETATM   20  O           1     -34.675  -1.439 -16.566  0.00  0.00    -0.646 OA
HETATM   21  O           1     -36.751  -0.979 -16.973  0.00  0.00    -0.646 OA
ENDBRANCH  14  19
ENDBRANCH   3  14
TORSDOF 8
ENDMDL
MODEL 2
REMARK VINA RESULT:      -5.8     12.980     14.596
REMARK  8 active torsions:
REMARK  status: ('A' for Active; 'I' for Inactive)
REMARK    1  A    between atoms: C_2  and  C_16 
REMARK    2  A    between atoms: C_2  and  C_3 
REMARK    3  A    between atoms: C_2  and  N_19 
REMARK    4  A    between atoms: O_7  and  C_8 
REMARK    5  A    between atoms: C_8  and  C_17 
REMARK    6  A    between atoms: O_11  and  C_16 
REMARK    7  A    between atoms: N_15  and  C_17 
REMARK    8  A    between atoms: C_17  and  C_20 
REMARK       I    between atoms: N_19  and  C_20 
ROOT
HETATM    1  H           1     -22.057  -5.715  -9.657  0.00  0.00     0.163 HD
HETATM    2  O           1     -21.887  -3.521  -7.420  0.00  0.00    -0.271 OA
HETATM    3  N           1     -22.135  -4.798  -9.236  0.00  0.00    -0.342 N 
HETATM    4  C           1     -21.794  -4.616  -7.922  0.00  0.00     0.251 C 
ENDROOT
BRANCH   4   5
HETATM    5  C           1     -21.301  -5.783  -7.103  0.00  0.00     0.302 C 
BRANCH   5   6
HETATM    6  C           1     -21.299  -5.403  -5.627  0.00  0.00     0.153 C 
HETATM    7  C           1     -21.280  -6.668  -4.778  0.00  0.00     0.042 C 
BRANCH   6   8
HETATM    8  O           1     -20.163  -4.633  -5.344  0.00  0.00    -0.393 OA
HETATM    9  H           1     -19.420  -5.113  -5.668  0.00  0.00     0.210 HD
ENDBRANCH   6   8
ENDBRANCH   5   6
BRANCH   5  10
HETATM   10  N           1     -19.907  -6.140  -7.528  0.00  0.00    -0.064 N 
HETATM   11  H           1     -19.289  -6.196  -6.688  0.00  0.00     0.275 HD
HETATM   12  H           1     -19.918  -7.065  -8.014  0.00  0.00     0.275 HD
HETATM   13  H           1     -19.544  -5.408  -8.180  0.00  0.00     0.275 HD
ENDBRANCH   5  10
ENDBRANCH   4   5
BRANCH   3  14
HETATM   14  C           1     -22.609  -3.677 -10.024  0.00  0.00     0.214 C 
BRANCH  14  15
HETATM   15  C           1     -21.844  -3.623 -11.340  0.00  0.00     0.147 C 
HETATM   16  C           1     -20.413  -4.095 -11.115  0.00  0.00     0.042 C 
BRANCH  15  17
HETATM   17  O           1     -22.470  -4.458 -12.277  0.00  0.00    -0.393 OA
HETATM   18  H           1     -21.804  -4.737 -12.882  0.00  0.00     0.210 HD
ENDBRANCH  15  17
ENDBRANCH  14  15
BRANCH  14  19
HETATM   19  C           1     -24.081  -3.846 -10.304  0.00  0.00     0.199 C 
HETATM   20  O           1     -24.707  -2.956 -10.920  0.00  0.00    -0.646 OA
HETATM   21  O           1     -24.677  -4.877  -9.920  0.00  0.00    -0.646 OA
ENDBRANCH  14  19
ENDBRANCH   3  14
TORSDOF 8
ENDMDL
MODEL 3
REMARK VINA RESULT:      -5.5      3.213      5.656
REMARK  8 active torsions:
REMARK  status: ('A' for Active; 'I' for Inactive)
REMARK    1  A    between atoms: C_2  and  C_16 
REMARK    2  A    between atoms: C_2  and  C_3 
REMARK    3  A    between atoms: C_2  and  N_19 
REMARK    4  A    between atoms: O_7  and  C_8 
REMARK    5  A    between atoms: C_8  and  C_17 
REMARK    6  A    between atoms: O_11  and  C_16 
REMARK    7  A    between atoms: N_15  and  C_17 
REMARK    8  A    between atoms: C_17  and  C_20 
REMARK       I    between atoms: N_19  and  C_20 
ROOT
HETATM    1  H           1     -32.701  -3.361 -14.373  0.00  0.00     0.163 HD
HETATM    2  O           1     -35.082  -5.182 -15.300  0.00  0.00    -0.271 OA
HETATM    3  N           1     -33.542  -3.917 -14.291  0.00  0.00    -0.342 N 
HETATM    4  C           1     -34.077  -4.519 -15.399  0.00  0.00     0.251 C 
ENDROOT
BRANCH   4   5
HETATM    5  C           1     -33.410  -4.355 -16.742  0.00  0.00     0.302 C 
BRANCH   5   6
HETATM    6  C           1     -31.898  -4.320 -16.558  0.00  0.00     0.153 C 
HETATM    7  C           1     -31.298  -5.635 -17.040  0.00  0.00     0.042 C 
BRANCH   6   8
HETATM    8  O           1     -31.361  -3.261 -17.303  0.00  0.00    -0.393 OA
HETATM    9  H           1     -32.065  -2.903 -17.816  0.00  0.00     0.210 HD
ENDBRANCH   6   8
ENDBRANCH   5   6
BRANCH   5  10
HETATM   10  N           1     -33.865  -3.073 -17.373  0.00  0.00    -0.064 N 
HETATM   11  H           1     -33.247  -2.844 -18.184  0.00  0.00     0.275 HD
HETATM   12  H           1     -34.850  -3.179 -17.706  0.00  0.00     0.275 HD
HETATM   13  H           1     -33.816  -2.301 -16.670  0.00  0.00     0.275 HD
ENDBRANCH   5  10
ENDBRANCH   4   5
BRANCH   3  14
HETATM   14  C           1     -34.183  -4.075 -13.000  0.00  0.00     0.214 C 
BRANCH  14  15
HETATM   15  C           1     -33.135  -4.430 -11.954  0.00  0.00     0.147 C 
HETATM   16  C           1     -33.619  -5.618 -11.133  0.00  0.00     0.042 C 
BRANCH  15  17
HETATM   17  O           1     -31.931  -4.762 -12.593  0.00  0.00    -0.393 OA
HETATM   18  H           1     -32.147  -5.357 -13.291  0.00  0.00     0.210 HD
ENDBRANCH  15  17
ENDBRANCH  14  15
BRANCH  14  19
HETATM   19  C           1     -34.861  -2.783 -12.614  0.00  0.00     0.199 C 
HETATM   20  O           1     -34.654  -1.746 -13.279  0.00  0.00    -0.646 OA
HETATM   21  O           1     -35.631  -2.752 -11.629  0.00  0.00    -0.646 OA
ENDBRANCH  14  19
ENDBRANCH   3  14
TORSDOF 8
ENDMDL
MODEL 4
REMARK VINA RESULT:      -5.2     13.060     15.288
REMARK  8 active torsions:
REMARK  status: ('A' for Active; 'I' for Inactive)
REMARK    1  A    between atoms: C_2  and  C_16 
REMARK    2  A    between atoms: C_2  and  C_3 
REMARK    3  A    between atoms: C_2  and  N_19 
REMARK    4  A    between atoms: O_7  and  C_8 
REMARK    5  A    between atoms: C_8  and  C_17 
REMARK    6  A    between atoms: O_11  and  C_16 
REMARK    7  A    between atoms: N_15  and  C_17 
REMARK    8  A    between atoms: C_17  and  C_20 
REMARK       I    between atoms: N_19  and  C_20 
ROOT
HETATM    1  H           1     -22.140  -6.143  -8.563  0.00  0.00     0.163 HD
HETATM    2  O           1     -22.839  -3.089  -8.735  0.00  0.00    -0.271 OA
HETATM    3  N           1     -22.064  -5.152  -8.372  0.00  0.00    -0.342 N 
HETATM    4  C           1     -22.931  -4.272  -8.963  0.00  0.00     0.251 C 
ENDROOT
BRANCH   4   5
HETATM    5  C           1     -24.000  -4.780  -9.898  0.00  0.00     0.302 C 
BRANCH   5   6
HETATM    6  C           1     -23.522  -4.645 -11.338  0.00  0.00     0.153 C 
HETATM    7  C           1     -24.148  -3.407 -11.966  0.00  0.00     0.042 C 
BRANCH   6   8
HETATM    8  O           1     -22.126  -4.525 -11.358  0.00  0.00    -0.393 OA
HETATM    9  H           1     -21.927  -3.621 -11.183  0.00  0.00     0.210 HD
ENDBRANCH   6   8
ENDBRANCH   5   6
BRANCH   5  10
HETATM   10  N           1     -25.252  -3.976  -9.710  0.00  0.00    -0.064 N 
HETATM   11  H           1     -25.935  -4.522  -9.138  0.00  0.00     0.275 HD
HETATM   12  H           1     -25.022  -3.083  -9.218  0.00  0.00     0.275 HD
HETATM   13  H           1     -25.672  -3.762 -10.643  0.00  0.00     0.275 HD
ENDBRANCH   5  10
ENDBRANCH   4   5
BRANCH   3  14
HETATM   14  C           1     -21.036  -4.664  -7.473  0.00  0.00     0.214 C 
BRANCH  14  15
HETATM   15  C           1     -20.850  -5.654  -6.331  0.00  0.00     0.147 C 
HETATM   16  C           1     -22.206  -5.983  -5.719  0.00  0.00     0.042 C 
BRANCH  15  17
HETATM   17  O           1     -20.261  -6.828  -6.822  0.00  0.00    -0.393 OA
HETATM   18  H           1     -20.954  -7.457  -6.931  0.00  0.00     0.210 HD
ENDBRANCH  15  17
ENDBRANCH  14  15
BRANCH  14  19
HETATM   19  C           1     -19.738  -4.516  -8.227  0.00  0.00     0.199 C 
HETATM   20  O           1     -19.729  -4.577  -9.475  0.00  0.00    -0.646 OA
HETATM   21  O           1     -18.670  -4.332  -7.602  0.00  0.00    -0.646 OA
ENDBRANCH  14  19
ENDBRANCH   3  14
TORSDOF 8
ENDMDL
MODEL 5
REMARK VINA RESULT:      -5.1     13.071     14.565
REMARK  8 active torsions:
REMARK  status: ('A' for Active; 'I' for Inactive)
REMARK    1  A    between atoms: C_2  and  C_16 
REMARK    2  A    between atoms: C_2  and  C_3 
REMARK    3  A    between atoms: C_2  and  N_19 
REMARK    4  A    between atoms: O_7  and  C_8 
REMARK    5  A    between atoms: C_8  and  C_17 
REMARK    6  A    between atoms: O_11  and  C_16 
REMARK    7  A    between atoms: N_15  and  C_17 
REMARK    8  A    between atoms: C_17  and  C_20 
REMARK       I    between atoms: N_19  and  C_20 
ROOT
HETATM    1  H           1     -22.560  -3.584  -9.116  0.00  0.00     0.163 HD
HETATM    2  O           1     -19.816  -4.962  -9.761  0.00  0.00    -0.271 OA
HETATM    3  N           1     -21.861  -4.067  -9.664  0.00  0.00    -0.342 N 
HETATM    4  C           1     -20.652  -4.385  -9.105  0.00  0.00     0.251 C 
ENDROOT
BRANCH   4   5
HETATM    5  C           1     -20.363  -4.016  -7.671  0.00  0.00     0.302 C 
BRANCH   5   6
HETATM    6  C           1     -20.107  -5.282  -6.862  0.00  0.00     0.153 C 
HETATM    7  C           1     -20.485  -5.039  -5.407  0.00  0.00     0.042 C 
BRANCH   6   8
HETATM    8  O           1     -20.881  -6.331  -7.378  0.00  0.00    -0.393 OA
HETATM    9  H           1     -21.600  -5.937  -7.842  0.00  0.00     0.210 HD
ENDBRANCH   6   8
ENDBRANCH   5   6
BRANCH   5  10
HETATM   10  N           1     -21.541  -3.286  -7.096  0.00  0.00    -0.064 N 
HETATM   11  H           1     -22.328  -3.299  -7.782  0.00  0.00     0.275 HD
HETATM   12  H           1     -21.843  -3.755  -6.212  0.00  0.00     0.275 HD
HETATM   13  H           1     -21.271  -2.297  -6.892  0.00  0.00     0.275 HD
ENDBRANCH   5  10
ENDBRANCH   4   5
BRANCH   3  14
HETATM   14  C           1     -22.138  -4.422 -11.042  0.00  0.00     0.214 C 
BRANCH  14  15
HETATM   15  C           1     -23.608  -4.791 -11.185  0.00  0.00     0.147 C 
HETATM   16  C           1     -24.469  -3.567 -10.899  0.00  0.00     0.042 C 
BRANCH  15  17
HETATM   17  O           1     -23.852  -5.240 -12.491  0.00  0.00    -0.393 OA
HETATM   18  H           1     -23.038  -5.579 -12.820  0.00  0.00     0.210 HD
ENDBRANCH  15  17
ENDBRANCH  14  15
BRANCH  14  19
HETATM   19  C           1     -21.825  -3.247 -11.936  0.00  0.00     0.199 C 
HETATM   20  O           1     -21.212  -2.259 -11.479  0.00  0.00    -0.646 OA
HETATM   21  O           1     -22.179  -3.263 -13.136  0.00  0.00    -0.646 OA
ENDBRANCH  14  19
ENDBRANCH   3  14
TORSDOF 8
ENDMDL
MODEL 6
REMARK VINA RESULT:      -5.1     24.538     25.717
REMARK  8 active torsions:
REMARK  status: ('A' for Active; 'I' for Inactive)
REMARK    1  A    between atoms: C_2  and  C_16 
REMARK    2  A    between atoms: C_2  and  C_3 
REMARK    3  A    between atoms: C_2  and  N_19 
REMARK    4  A    between atoms: O_7  and  C_8 
REMARK    5  A    between atoms: C_8  and  C_17 
REMARK    6  A    between atoms: O_11  and  C_16 
REMARK    7  A    between atoms: N_15  and  C_17 
REMARK    8  A    between atoms: C_17  and  C_20 
REMARK       I    between atoms: N_19  and  C_20 
ROOT
HETATM    1  H           1     -12.832   7.174 -19.540  0.00  0.00     0.163 HD
HETATM    2  O           1     -11.772   5.958 -22.231  0.00  0.00    -0.271 OA
HETATM    3  N           1     -12.188   7.004 -20.301  0.00  0.00    -0.342 N 
HETATM    4  C           1     -12.541   6.161 -21.321  0.00  0.00     0.251 C 
ENDROOT
BRANCH   4   5
HETATM    5  C           1     -13.891   5.486 -21.309  0.00  0.00     0.302 C 
BRANCH   5   6
HETATM    6  C           1     -13.830   4.244 -20.429  0.00  0.00     0.153 C 
HETATM    7  C           1     -13.526   3.026 -21.292  0.00  0.00     0.042 C 
BRANCH   6   8
HETATM    8  O           1     -12.821   4.400 -19.469  0.00  0.00    -0.393 OA
HETATM    9  H           1     -12.142   3.782 -19.683  0.00  0.00     0.210 HD
ENDBRANCH   6   8
ENDBRANCH   5   6
BRANCH   5  10
HETATM   10  N           1     -14.265   5.091 -22.706  0.00  0.00    -0.064 N 
HETATM   11  H           1     -13.720   4.246 -22.988  0.00  0.00     0.275 HD
HETATM   12  H           1     -15.287   4.874 -22.745  0.00  0.00     0.275 HD
HETATM   13  H           1     -14.051   5.878 -23.360  0.00  0.00     0.275 HD
ENDBRANCH   5  10
ENDBRANCH   4   5
BRANCH   3  14
HETATM   14  C           1     -10.891   7.653 -20.313  0.00  0.00     0.214 C 
BRANCH  14  15
HETATM   15  C           1     -10.942   8.904 -19.447  0.00  0.00     0.147 C 
HETATM   16  C           1     -12.390   9.219 -19.096  0.00  0.00     0.042 C 
BRANCH  15  17
HETATM   17  O           1     -10.212   8.685 -18.269  0.00  0.00    -0.393 OA
HETATM   18  H           1     -10.629   7.971 -17.818  0.00  0.00     0.210 HD
ENDBRANCH  15  17
ENDBRANCH  14  15
BRANCH  14  19
HETATM   19  C           1      -9.851   6.705 -19.770  0.00  0.00     0.199 C 
HETATM   20  O           1      -8.743   6.599 -20.339  0.00  0.00    -0.646 OA
HETATM   21  O           1     -10.096   6.026 -18.749  0.00  0.00    -0.646 OA
ENDBRANCH  14  19
ENDBRANCH   3  14
TORSDOF 8
ENDMDL
MODEL 7
REMARK VINA RESULT:      -5.1     12.847     15.014
REMARK  8 active torsions:
REMARK  status: ('A' for Active; 'I' for Inactive)
REMARK    1  A    between atoms: C_2  and  C_16 
REMARK    2  A    between atoms: C_2  and  C_3 
REMARK    3  A    between atoms: C_2  and  N_19 
REMARK    4  A    between atoms: O_7  and  C_8 
REMARK    5  A    between atoms: C_8  and  C_17 
REMARK    6  A    between atoms: O_11  and  C_16 
REMARK    7  A    between atoms: N_15  and  C_17 
REMARK    8  A    between atoms: C_17  and  C_20 
REMARK       I    between atoms: N_19  and  C_20 
ROOT
HETATM    1  H           1     -20.781  -3.489  -9.693  0.00  0.00     0.163 HD
HETATM    2  O           1     -23.409  -5.072 -10.348  0.00  0.00    -0.271 OA
HETATM    3  N           1     -21.517  -4.172  -9.574  0.00  0.00    -0.342 N 
HETATM    4  C           1     -22.530  -4.256 -10.492  0.00  0.00     0.251 C 
ENDROOT
BRANCH   4   5
HETATM    5  C           1     -22.547  -3.329 -11.682  0.00  0.00     0.302 C 
BRANCH   5   6
HETATM    6  C           1     -23.874  -3.470 -12.416  0.00  0.00     0.153 C 
HETATM    7  C           1     -24.037  -2.315 -13.395  0.00  0.00     0.042 C 
BRANCH   6   8
HETATM    8  O           1     -23.894  -4.683 -13.118  0.00  0.00    -0.393 OA
HETATM    9  H           1     -24.795  -4.867 -13.321  0.00  0.00     0.210 HD
ENDBRANCH   6   8
ENDBRANCH   5   6
BRANCH   5  10
HETATM   10  N           1     -21.423  -3.685 -12.609  0.00  0.00    -0.064 N 
HETATM   11  H           1     -21.419  -3.027 -13.421  0.00  0.00     0.275 HD
HETATM   12  H           1     -20.514  -3.613 -12.098  0.00  0.00     0.275 HD
HETATM   13  H           1     -21.553  -4.663 -12.954  0.00  0.00     0.275 HD
ENDBRANCH   5  10
ENDBRANCH   4   5
BRANCH   3  14
HETATM   14  C           1     -21.500  -5.063  -8.430  0.00  0.00     0.214 C 
BRANCH  14  15
HETATM   15  C           1     -20.076  -5.545  -8.184  0.00  0.00     0.147 C 
HETATM   16  C           1     -19.180  -4.350  -7.887  0.00  0.00     0.042 C 
BRANCH  15  17
HETATM   17  O           1     -20.063  -6.423  -7.090  0.00  0.00    -0.393 OA
HETATM   18  H           1     -19.282  -6.235  -6.598  0.00  0.00     0.210 HD
ENDBRANCH  15  17
ENDBRANCH  14  15
BRANCH  14  19
HETATM   19  C           1     -21.999  -4.327  -7.212  0.00  0.00     0.199 C 
HETATM   20  O           1     -22.628  -4.941  -6.324  0.00  0.00    -0.646 OA
HETATM   21  O           1     -21.783  -3.101  -7.090  0.00  0.00    -0.646 OA
ENDBRANCH  14  19
ENDBRANCH   3  14
TORSDOF 8
ENDMDL
MODEL 8
REMARK VINA RESULT:      -5.0     24.815     26.060
REMARK  8 active torsions:
REMARK  status: ('A' for Active; 'I' for Inactive)
REMARK    1  A    between atoms: C_2  and  C_16 
REMARK    2  A    between atoms: C_2  and  C_3 
REMARK    3  A    between atoms: C_2  and  N_19 
REMARK    4  A    between atoms: O_7  and  C_8 
REMARK    5  A    between atoms: C_8  and  C_17 
REMARK    6  A    between atoms: O_11  and  C_16 
REMARK    7  A    between atoms: N_15  and  C_17 
REMARK    8  A    between atoms: C_17  and  C_20 
REMARK       I    between atoms: N_19  and  C_20 
ROOT
HETATM    1  H           1     -11.791   6.259 -21.466  0.00  0.00     0.163 HD
HETATM    2  O           1     -10.158   6.199 -18.789  0.00  0.00    -0.271 OA
HETATM    3  N           1     -11.449   5.896 -20.586  0.00  0.00    -0.342 N 
HETATM    4  C           1     -10.567   6.632 -19.840  0.00  0.00     0.251 C 
ENDROOT
BRANCH   4   5
HETATM    5  C           1     -10.108   7.983 -20.330  0.00  0.00     0.302 C 
BRANCH   5   6
HETATM    6  C           1     -10.630   9.067 -19.395  0.00  0.00     0.153 C 
HETATM    7  C           1     -12.153   9.070 -19.422  0.00  0.00     0.042 C 
BRANCH   6   8
HETATM    8  O           1     -10.187   8.812 -18.090  0.00  0.00    -0.393 OA
HETATM    9  H           1     -10.017   9.648 -17.691  0.00  0.00     0.210 HD
ENDBRANCH   6   8
ENDBRANCH   5   6
BRANCH   5  10
HETATM   10  N           1     -10.637   8.219 -21.713  0.00  0.00    -0.064 N 
HETATM   11  H           1     -10.920   7.308 -22.139  0.00  0.00     0.275 HD
HETATM   12  H           1     -11.466   8.854 -21.666  0.00  0.00     0.275 HD
HETATM   13  H           1      -9.893   8.661 -22.299  0.00  0.00     0.275 HD
ENDBRANCH   5  10
ENDBRANCH   4   5
BRANCH   3  14
HETATM   14  C           1     -11.890   4.598 -20.115  0.00  0.00     0.214 C 
BRANCH  14  15
HETATM   15  C           1     -13.381   4.442 -20.383  0.00  0.00     0.147 C 
HETATM   16  C           1     -13.842   5.535 -21.338  0.00  0.00     0.042 C 
BRANCH  15  17
HETATM   17  O           1     -13.622   3.186 -20.959  0.00  0.00    -0.393 OA
HETATM   18  H           1     -14.557   3.078 -20.998  0.00  0.00     0.210 HD
ENDBRANCH  15  17
ENDBRANCH  14  15
BRANCH  14  19
HETATM   19  C           1     -11.132   3.515 -20.842  0.00  0.00     0.199 C 
HETATM   20  O           1     -10.809   2.468 -20.242  0.00  0.00    -0.646 OA
HETATM   21  O           1     -10.826   3.666 -22.045  0.00  0.00    -0.646 OA
ENDBRANCH  14  19
ENDBRANCH   3  14
TORSDOF 8
ENDMDL
MODEL 9
REMARK VINA RESULT:      -4.9     12.269     13.856
REMARK  8 active torsions:
REMARK  status: ('A' for Active; 'I' for Inactive)
REMARK    1  A    between atoms: C_2  and  C_16 
REMARK    2  A    between atoms: C_2  and  C_3 
REMARK    3  A    between atoms: C_2  and  N_19 
REMARK    4  A    between atoms: O_7  and  C_8 
REMARK    5  A    between atoms: C_8  and  C_17 
REMARK    6  A    between atoms: O_11  and  C_16 
REMARK    7  A    between atoms: N_15  and  C_17 
REMARK    8  A    between atoms: C_17  and  C_20 
REMARK       I    between atoms: N_19  and  C_20 
ROOT
HETATM    1  H           1     -23.917  -3.600  -8.539  0.00  0.00     0.163 HD
HETATM    2  O           1     -20.859  -3.773  -9.219  0.00  0.00    -0.271 OA
HETATM    3  N           1     -23.081  -3.578  -9.109  0.00  0.00    -0.342 N 
HETATM    4  C           1     -21.857  -3.800  -8.538  0.00  0.00     0.251 C 
ENDROOT
BRANCH   4   5
HETATM    5  C           1     -21.754  -4.080  -7.059  0.00  0.00     0.302 C 
BRANCH   5   6
HETATM    6  C           1     -20.539  -4.959  -6.791  0.00  0.00     0.153 C 
HETATM    7  C           1     -20.380  -5.160  -5.290  0.00  0.00     0.042 C 
BRANCH   6   8
HETATM    8  O           1     -20.716  -6.203  -7.413  0.00  0.00    -0.393 OA
HETATM    9  H           1     -21.310  -6.067  -8.132  0.00  0.00     0.210 HD
ENDBRANCH   6   8
ENDBRANCH   5   6
BRANCH   5  10
HETATM   10  N           1     -22.993  -4.786  -6.597  0.00  0.00    -0.064 N 
HETATM   11  H           1     -22.969  -4.889  -5.557  0.00  0.00     0.275 HD
HETATM   12  H           1     -23.835  -4.230  -6.871  0.00  0.00     0.275 HD
HETATM   13  H           1     -23.041  -5.732  -7.039  0.00  0.00     0.275 HD
ENDBRANCH   5  10
ENDBRANCH   4   5
BRANCH   3  14
HETATM   14  C           1     -23.180  -3.309 -10.531  0.00  0.00     0.214 C 
BRANCH  14  15
HETATM   15  C           1     -22.584  -4.474 -11.309  0.00  0.00     0.147 C 
HETATM   16  C           1     -23.584  -5.623 -11.347  0.00  0.00     0.042 C 
BRANCH  15  17
HETATM   17  O           1     -22.295  -4.061 -12.618  0.00  0.00    -0.393 OA
HETATM   18  H           1     -21.526  -4.533 -12.890  0.00  0.00     0.210 HD
ENDBRANCH  15  17
ENDBRANCH  14  15
BRANCH  14  19
HETATM   19  C           1     -24.631  -3.140 -10.910  0.00  0.00     0.199 C 
HETATM   20  O           1     -25.517  -3.187 -10.030  0.00  0.00    -0.646 OA
HETATM   21  O           1     -24.946  -2.952 -12.105  0.00  0.00    -0.646 OA
ENDBRANCH  14  19
ENDBRANCH   3  14
TORSDOF 8
ENDMDL
