MODEL 1
REMARK VINA RESULT:      -7.6      0.000      0.000
REMARK  10 active torsions:
REMARK  status: ('A' for Active; 'I' for Inactive)
REMARK    1  A    between atoms: C_2  and  C_9 
REMARK    2  A    between atoms: C_9  and  C_10 
REMARK    3  A    between atoms: C_9  and  N_17 
REMARK    4  A    between atoms: C_10  and  C_11 
REMARK       I    between atoms: N_17  and  C_18 
REMARK    5  A    between atoms: C_18  and  C_19 
REMARK    6  A    between atoms: C_19  and  C_20 
REMARK    7  A    between atoms: C_19  and  N_26 
REMARK    8  A    between atoms: C_20  and  O_21 
REMARK    9  A    between atoms: O_21  and  P_22 
REMARK   10  A    between atoms: P_22  and  O_23 
ROOT
HETATM    1  H           1     -33.844  -1.127 -13.398  0.00  0.00     0.163 HD
HETATM    2  N           1     -34.828  -0.907 -13.309  0.00  0.00    -0.344 N 
HETATM    3  C           1     -35.446  -0.139 -14.259  0.00  0.00     0.251 C 
HETATM    4  O           1     -35.478   1.062 -14.137  0.00  0.00    -0.271 OA
ENDROOT
BRANCH   3   5
HETATM    5  C           1     -36.088  -0.794 -15.458  0.00  0.00     0.298 C 
BRANCH   5   6
HETATM    6  C           1     -35.016  -1.479 -16.296  0.00  0.00     0.224 C 
BRANCH   6   7
HETATM    7  O           1     -35.357  -2.825 -16.483  0.00  0.00    -0.287 OA
BRANCH   7   8
HETATM    8  P           1     -34.356  -3.907 -15.824  0.00  0.00     0.406 P 
HETATM    9  O           1     -33.067  -3.894 -16.552  0.00  0.00    -0.624 OA
HETATM   10  O           1     -34.125  -3.564 -14.403  0.00  0.00    -0.624 OA
BRANCH   8  11
HETATM   11  O           1     -35.013  -5.379 -15.923  0.00  0.00    -0.300 OA
HETATM   12  H           1     -35.523  -5.366 -16.714  0.00  0.00     0.223 HD
ENDBRANCH   8  11
ENDBRANCH   7   8
ENDBRANCH   6   7
ENDBRANCH   5   6
BRANCH   5  13
HETATM   13  N           1     -36.779   0.248 -16.286  0.00  0.00    -0.064 N 
HETATM   14  H           1     -36.282   1.162 -16.182  0.00  0.00     0.275 HD
HETATM   15  H           1     -36.768  -0.042 -17.290  0.00  0.00     0.275 HD
HETATM   16  H           1     -37.767   0.351 -15.963  0.00  0.00     0.275 HD
ENDBRANCH   5  13
ENDBRANCH   3   5
BRANCH   2  17
HETATM   17  C           1     -35.584  -1.406 -12.177  0.00  0.00     0.189 C 
BRANCH  17  18
HETATM   18  C           1     -36.583  -0.361 -11.741  0.00  0.00     0.197 C 
HETATM   19  O           1     -36.230   0.557 -10.969  0.00  0.00    -0.646 OA
HETATM   20  O           1     -37.762  -0.414 -12.152  0.00  0.00    -0.646 OA
ENDBRANCH  17  18
BRANCH  17  21
HETATM   21  C           1     -34.633  -1.709 -11.027  0.00  0.00     0.074 C 
BRANCH  21  22
HETATM   22  C           1     -34.232  -3.151 -11.077  0.00  0.00    -0.056 A 
HETATM   23  C           1     -35.142  -4.140 -10.704  0.00  0.00     0.007 A 
HETATM   24  C           1     -34.768  -5.484 -10.751  0.00  0.00     0.001 A 
HETATM   25  C           1     -33.486  -5.837 -11.172  0.00  0.00     0.000 A 
HETATM   26  C           1     -32.578  -4.848 -11.546  0.00  0.00     0.001 A 
HETATM   27  C           1     -32.951  -3.504 -11.499  0.00  0.00     0.007 A 
ENDBRANCH  21  22
ENDBRANCH  17  21
ENDBRANCH   2  17
TORSDOF 10
ENDMDL
MODEL 2
REMARK VINA RESULT:      -7.4      3.354      5.264
REMARK  10 active torsions:
REMARK  status: ('A' for Active; 'I' for Inactive)
REMARK    1  A    between atoms: C_2  and  C_9 
REMARK    2  A    between atoms: C_9  and  C_10 
REMARK    3  A    between atoms: C_9  and  N_17 
REMARK    4  A    between atoms: C_10  and  C_11 
REMARK       I    between atoms: N_17  and  C_18 
REMARK    5  A    between atoms: C_18  and  C_19 
REMARK    6  A    between atoms: C_19  and  C_20 
REMARK    7  A    between atoms: C_19  and  N_26 
REMARK    8  A    between atoms: C_20  and  O_21 
REMARK    9  A    between atoms: O_21  and  P_22 
REMARK   10  A    between atoms: P_22  and  O_23 
ROOT
HETATM    1  H           1     -36.477  -2.130  -9.782  0.00  0.00     0.163 HD
HETATM    2  N           1     -35.836  -1.524 -10.280  0.00  0.00    -0.344 N 
HETATM    3  C           1     -34.536  -1.910 -10.467  0.00  0.00     0.251 C 
HETATM    4  O           1     -33.696  -1.620  -9.647  0.00  0.00    -0.271 OA
ENDROOT
BRANCH   3   5
HETATM    5  C           1     -34.151  -2.696 -11.696  0.00  0.00     0.298 C 
BRANCH   5   6
HETATM    6  C           1     -35.107  -3.870 -11.867  0.00  0.00     0.224 C 
BRANCH   6   7
HETATM    7  O           1     -35.063  -4.680 -10.723  0.00  0.00    -0.287 OA
BRANCH   7   8
HETATM    8  P           1     -34.531  -6.188 -10.944  0.00  0.00     0.406 P 
HETATM    9  O           1     -33.052  -6.185 -11.004  0.00  0.00    -0.624 OA
HETATM   10  O           1     -34.979  -7.039  -9.819  0.00  0.00    -0.624 OA
BRANCH   8  11
HETATM   11  O           1     -35.123  -6.772 -12.329  0.00  0.00    -0.300 OA
HETATM   12  H           1     -35.821  -6.185 -12.562  0.00  0.00     0.223 HD
ENDBRANCH   8  11
ENDBRANCH   7   8
ENDBRANCH   6   7
ENDBRANCH   5   6
BRANCH   5  13
HETATM   13  N           1     -32.752  -3.211 -11.542  0.00  0.00    -0.064 N 
HETATM   14  H           1     -32.774  -4.155 -11.094  0.00  0.00     0.275 HD
HETATM   15  H           1     -32.302  -3.284 -12.483  0.00  0.00     0.275 HD
HETATM   16  H           1     -32.203  -2.554 -10.943  0.00  0.00     0.275 HD
ENDBRANCH   5  13
ENDBRANCH   3   5
BRANCH   2  17
HETATM   17  C           1     -36.294  -0.248 -10.795  0.00  0.00     0.189 C 
BRANCH  17  18
HETATM   18  C           1     -36.903   0.556  -9.672  0.00  0.00     0.197 C 
HETATM   19  O           1     -37.963   1.192  -9.862  0.00  0.00    -0.646 OA
HETATM   20  O           1     -36.347   0.588  -8.553  0.00  0.00    -0.646 OA
ENDBRANCH  17  18
BRANCH  17  21
HETATM   21  C           1     -37.341  -0.484 -11.875  0.00  0.00     0.074 C 
BRANCH  21  22
HETATM   22  C           1     -36.809  -0.021 -13.196  0.00  0.00    -0.056 A 
HETATM   23  C           1     -37.625  -0.054 -14.326  0.00  0.00     0.007 A 
HETATM   24  C           1     -37.129   0.378 -15.557  0.00  0.00     0.001 A 
HETATM   25  C           1     -35.817   0.842 -15.656  0.00  0.00     0.000 A 
HETATM   26  C           1     -35.002   0.875 -14.526  0.00  0.00     0.001 A 
HETATM   27  C           1     -35.497   0.444 -13.295  0.00  0.00     0.007 A 
ENDBRANCH  21  22
ENDBRANCH  17  21
ENDBRANCH   2  17
TORSDOF 10
ENDMDL
MODEL 3
REMARK VINA RESULT:      -7.1     12.478     14.491
REMARK  10 active torsions:
REMARK  status: ('A' for Active; 'I' for Inactive)
REMARK    1  A    between atoms: C_2  and  C_9 
REMARK    2  A    between atoms: C_9  and  C_10 
REMARK    3  A    between atoms: C_9  and  N_17 
REMARK    4  A    between atoms: C_10  and  C_11 
REMARK       I    between atoms: N_17  and  C_18 
REMARK    5  A    between atoms: C_18  and  C_19 
REMARK    6  A    between atoms: C_19  and  C_20 
REMARK    7  A    between atoms: C_19  and  N_26 
REMARK    8  A    between atoms: C_20  and  O_21 
REMARK    9  A    between atoms: O_21  and  P_22 
REMARK   10  A    between atoms: P_22  and  O_23 
ROOT
HETATM    1  H           1     -21.826  -2.600  -7.605  0.00  0.00     0.163 HD
HETATM    2  N           1     -21.941  -3.604  -7.562  0.00  0.00    -0.344 N 
HETATM    3  C           1     -23.130  -4.174  -7.929  0.00  0.00     0.251 C 
HETATM    4  O           1     -23.998  -4.344  -7.105  0.00  0.00    -0.271 OA
ENDROOT
BRANCH   3   5
HETATM    5  C           1     -23.357  -4.590  -9.362  0.00  0.00     0.298 C 
BRANCH   5   6
HETATM    6  C           1     -22.884  -3.480 -10.293  0.00  0.00     0.224 C 
BRANCH   6   7
HETATM    7  O           1     -22.808  -3.969 -11.604  0.00  0.00    -0.287 OA
BRANCH   7   8
HETATM    8  P           1     -23.846  -3.327 -12.661  0.00  0.00     0.406 P 
HETATM    9  O           1     -25.101  -2.965 -11.963  0.00  0.00    -0.624 OA
HETATM   10  O           1     -23.249  -2.115 -13.264  0.00  0.00    -0.624 OA
BRANCH   8  11
HETATM   11  O           1     -24.169  -4.403 -13.821  0.00  0.00    -0.300 OA
HETATM   12  H           1     -24.612  -5.109 -13.383  0.00  0.00     0.223 HD
ENDBRANCH   8  11
ENDBRANCH   7   8
ENDBRANCH   6   7
ENDBRANCH   5   6
BRANCH   5  13
HETATM   13  N           1     -24.819  -4.839  -9.584  0.00  0.00    -0.064 N 
HETATM   14  H           1     -25.021  -5.857  -9.465  0.00  0.00     0.275 HD
HETATM   15  H           1     -25.375  -4.290  -8.888  0.00  0.00     0.275 HD
HETATM   16  H           1     -25.080  -4.542 -10.551  0.00  0.00     0.275 HD
ENDBRANCH   5  13
ENDBRANCH   3   5
BRANCH   2  17
HETATM   17  C           1     -20.845  -4.441  -7.112  0.00  0.00     0.189 C 
BRANCH  17  18
HETATM   18  C           1     -19.642  -4.211  -7.994  0.00  0.00     0.197 C 
HETATM   19  O           1     -19.799  -3.921  -9.201  0.00  0.00    -0.646 OA
HETATM   20  O           1     -18.490  -4.309  -7.520  0.00  0.00    -0.646 OA
ENDBRANCH  17  18
BRANCH  17  21
HETATM   21  C           1     -21.259  -5.904  -7.190  0.00  0.00     0.074 C 
BRANCH  21  22
HETATM   22  C           1     -21.272  -6.494  -5.814  0.00  0.00    -0.056 A 
HETATM   23  C           1     -21.358  -7.876  -5.650  0.00  0.00     0.007 A 
HETATM   24  C           1     -21.369  -8.427  -4.367  0.00  0.00     0.001 A 
HETATM   25  C           1     -21.293  -7.594  -3.251  0.00  0.00     0.000 A 
HETATM   26  C           1     -21.205  -6.213  -3.416  0.00  0.00     0.001 A 
HETATM   27  C           1     -21.195  -5.662  -4.698  0.00  0.00     0.007 A 
ENDBRANCH  21  22
ENDBRANCH  17  21
ENDBRANCH   2  17
TORSDOF 10
ENDMDL
MODEL 4
REMARK VINA RESULT:      -7.1     14.249     16.380
REMARK  10 active torsions:
REMARK  status: ('A' for Active; 'I' for Inactive)
REMARK    1  A    between atoms: C_2  and  C_9 
REMARK    2  A    between atoms: C_9  and  C_10 
REMARK    3  A    between atoms: C_9  and  N_17 
REMARK    4  A    between atoms: C_10  and  C_11 
REMARK       I    between atoms: N_17  and  C_18 
REMARK    5  A    between atoms: C_18  and  C_19 
REMARK    6  A    between atoms: C_19  and  C_20 
REMARK    7  A    between atoms: C_19  and  N_26 
REMARK    8  A    between atoms: C_20  and  O_21 
REMARK    9  A    between atoms: O_21  and  P_22 
REMARK   10  A    between atoms: P_22  and  O_23 
ROOT
HETATM    1  H           1     -19.953  -7.460  -7.600  0.00  0.00     0.163 HD
HETATM    2  N           1     -20.034  -6.813  -6.826  0.00  0.00    -0.344 N 
HETATM    3  C           1     -20.156  -5.471  -7.065  0.00  0.00     0.251 C 
HETATM    4  O           1     -19.169  -4.779  -7.145  0.00  0.00    -0.271 OA
ENDROOT
BRANCH   3   5
HETATM    5  C           1     -21.525  -4.856  -7.228  0.00  0.00     0.298 C 
BRANCH   5   6
HETATM    6  C           1     -21.946  -4.936  -8.690  0.00  0.00     0.224 C 
BRANCH   6   7
HETATM    7  O           1     -22.414  -3.684  -9.112  0.00  0.00    -0.287 OA
BRANCH   7   8
HETATM    8  P           1     -23.767  -3.694  -9.992  0.00  0.00     0.406 P 
HETATM    9  O           1     -23.532  -2.977 -11.266  0.00  0.00    -0.624 OA
HETATM   10  O           1     -24.160  -5.092 -10.278  0.00  0.00    -0.624 OA
BRANCH   8  11
HETATM   11  O           1     -24.949  -2.959  -9.173  0.00  0.00    -0.300 OA
HETATM   12  H           1     -25.297  -2.318  -9.769  0.00  0.00     0.223 HD
ENDBRANCH   8  11
ENDBRANCH   7   8
ENDBRANCH   6   7
ENDBRANCH   5   6
BRANCH   5  13
HETATM   13  N           1     -21.481  -3.420  -6.800  0.00  0.00    -0.064 N 
HETATM   14  H           1     -22.080  -3.290  -5.953  0.00  0.00     0.275 HD
HETATM   15  H           1     -20.496  -3.154  -6.572  0.00  0.00     0.275 HD
HETATM   16  H           1     -21.836  -2.814  -7.574  0.00  0.00     0.275 HD
ENDBRANCH   5  13
ENDBRANCH   3   5
BRANCH   2  17
HETATM   17  C           1     -20.019  -7.308  -5.463  0.00  0.00     0.189 C 
BRANCH  17  18
HETATM   18  C           1     -19.016  -8.429  -5.347  0.00  0.00     0.197 C 
HETATM   19  O           1     -18.711  -8.881  -4.221  0.00  0.00    -0.646 OA
HETATM   20  O           1     -18.489  -8.906  -6.375  0.00  0.00    -0.646 OA
ENDBRANCH  17  18
BRANCH  17  21
HETATM   21  C           1     -21.403  -7.826  -5.097  0.00  0.00     0.074 C 
BRANCH  21  22
HETATM   22  C           1     -21.656  -7.589  -3.640  0.00  0.00    -0.056 A 
HETATM   23  C           1     -21.890  -6.295  -3.175  0.00  0.00     0.007 A 
HETATM   24  C           1     -22.126  -6.074  -1.817  0.00  0.00     0.001 A 
HETATM   25  C           1     -22.128  -7.148  -0.926  0.00  0.00     0.000 A 
HETATM   26  C           1     -21.894  -8.440  -1.392  0.00  0.00     0.001 A 
HETATM   27  C           1     -21.658  -8.662  -2.749  0.00  0.00     0.007 A 
ENDBRANCH  21  22
ENDBRANCH  17  21
ENDBRANCH   2  17
TORSDOF 10
ENDMDL
MODEL 5
REMARK VINA RESULT:      -6.8     15.209     17.176
REMARK  10 active torsions:
REMARK  status: ('A' for Active; 'I' for Inactive)
REMARK    1  A    between atoms: C_2  and  C_9 
REMARK    2  A    between atoms: C_9  and  C_10 
REMARK    3  A    between atoms: C_9  and  N_17 
REMARK    4  A    between atoms: C_10  and  C_11 
REMARK       I    between atoms: N_17  and  C_18 
REMARK    5  A    between atoms: C_18  and  C_19 
REMARK    6  A    between atoms: C_19  and  C_20 
REMARK    7  A    between atoms: C_19  and  N_26 
REMARK    8  A    between atoms: C_20  and  O_21 
REMARK    9  A    between atoms: O_21  and  P_22 
REMARK   10  A    between atoms: P_22  and  O_23 
ROOT
HETATM    1  H           1     -23.343  -5.520  -5.513  0.00  0.00     0.163 HD
HETATM    2  N           1     -22.378  -5.814  -5.591  0.00  0.00    -0.344 N 
HETATM    3  C           1     -21.769  -6.448  -4.541  0.00  0.00     0.251 C 
HETATM    4  O           1     -21.188  -5.802  -3.702  0.00  0.00    -0.271 OA
ENDROOT
BRANCH   3   5
HETATM    5  C           1     -21.824  -7.952  -4.433  0.00  0.00     0.298 C 
BRANCH   5   6
HETATM    6  C           1     -21.059  -8.401  -3.195  0.00  0.00     0.224 C 
BRANCH   6   7
HETATM    7  O           1     -21.950  -8.969  -2.275  0.00  0.00    -0.287 OA
BRANCH   7   8
HETATM    8  P           1     -22.095  -8.201  -0.862  0.00  0.00     0.406 P 
HETATM    9  O           1     -23.088  -8.903  -0.018  0.00  0.00    -0.624 OA
HETATM   10  O           1     -20.784  -8.186  -0.173  0.00  0.00    -0.624 OA
BRANCH   8  11
HETATM   11  O           1     -22.585  -6.685  -1.120  0.00  0.00    -0.300 OA
HETATM   12  H           1     -22.957  -6.406  -0.300  0.00  0.00     0.223 HD
ENDBRANCH   8  11
ENDBRANCH   7   8
ENDBRANCH   6   7
ENDBRANCH   5   6
BRANCH   5  13
HETATM   13  N           1     -21.202  -8.563  -5.653  0.00  0.00    -0.064 N 
HETATM   14  H           1     -20.194  -8.768  -5.464  0.00  0.00     0.275 HD
HETATM   15  H           1     -21.699  -9.452  -5.889  0.00  0.00     0.275 HD
HETATM   16  H           1     -21.277  -7.897  -6.454  0.00  0.00     0.275 HD
ENDBRANCH   5  13
ENDBRANCH   3   5
BRANCH   2  17
HETATM   17  C           1     -21.640  -5.566  -6.814  0.00  0.00     0.189 C 
BRANCH  17  18
HETATM   18  C           1     -20.159  -5.591  -6.520  0.00  0.00     0.197 C 
HETATM   19  O           1     -19.489  -6.616  -6.775  0.00  0.00    -0.646 OA
HETATM   20  O           1     -19.603  -4.589  -6.022  0.00  0.00    -0.646 OA
ENDBRANCH  17  18
BRANCH  17  21
HETATM   21  C           1     -22.023  -4.201  -7.370  0.00  0.00     0.074 C 
BRANCH  21  22
HETATM   22  C           1     -21.935  -4.228  -8.864  0.00  0.00    -0.056 A 
HETATM   23  C           1     -23.087  -4.417  -9.627  0.00  0.00     0.007 A 
HETATM   24  C           1     -23.004  -4.441 -11.020  0.00  0.00     0.001 A 
HETATM   25  C           1     -21.770  -4.275 -11.649  0.00  0.00     0.000 A 
HETATM   26  C           1     -20.619  -4.086 -10.885  0.00  0.00     0.001 A 
HETATM   27  C           1     -20.700  -4.061  -9.493  0.00  0.00     0.007 A 
ENDBRANCH  21  22
ENDBRANCH  17  21
ENDBRANCH   2  17
TORSDOF 10
ENDMDL
MODEL 6
REMARK VINA RESULT:      -6.6     15.844     18.185
REMARK  10 active torsions:
REMARK  status: ('A' for Active; 'I' for Inactive)
REMARK    1  A    between atoms: C_2  and  C_9 
REMARK    2  A    between atoms: C_9  and  C_10 
REMARK    3  A    between atoms: C_9  and  N_17 
REMARK    4  A    between atoms: C_10  and  C_11 
REMARK       I    between atoms: N_17  and  C_18 
REMARK    5  A    between atoms: C_18  and  C_19 
REMARK    6  A    between atoms: C_19  and  C_20 
REMARK    7  A    between atoms: C_19  and  N_26 
REMARK    8  A    between atoms: C_20  and  O_21 
REMARK    9  A    between atoms: O_21  and  P_22 
REMARK   10  A    between atoms: P_22  and  O_23 
ROOT
HETATM    1  H           1     -21.846  -8.783  -4.406  0.00  0.00     0.163 HD
HETATM    2  N           1     -21.552  -7.826  -4.548  0.00  0.00    -0.344 N 
HETATM    3  C           1     -22.052  -6.830  -3.752  0.00  0.00     0.251 C 
HETATM    4  O           1     -23.061  -6.249  -4.075  0.00  0.00    -0.271 OA
ENDROOT
BRANCH   3   5
HETATM    5  C           1     -21.342  -6.459  -2.473  0.00  0.00     0.298 C 
BRANCH   5   6
HETATM    6  C           1     -20.986  -7.726  -1.705  0.00  0.00     0.224 C 
BRANCH   6   7
HETATM    7  O           1     -22.119  -8.546  -1.604  0.00  0.00    -0.287 OA
BRANCH   7   8
HETATM    8  P           1     -22.646  -8.843  -0.107  0.00  0.00     0.406 P 
HETATM    9  O           1     -23.435 -10.096  -0.102  0.00  0.00    -0.624 OA
HETATM   10  O           1     -21.489  -8.984   0.805  0.00  0.00    -0.624 OA
BRANCH   8  11
HETATM   11  O           1     -23.577  -7.620   0.390  0.00  0.00    -0.300 OA
HETATM   12  H           1     -24.369  -8.026   0.698  0.00  0.00     0.223 HD
ENDBRANCH   8  11
ENDBRANCH   7   8
ENDBRANCH   6   7
ENDBRANCH   5   6
BRANCH   5  13
HETATM   13  N           1     -22.242  -5.603  -1.633  0.00  0.00    -0.064 N 
HETATM   14  H           1     -23.096  -5.352  -2.181  0.00  0.00     0.275 HD
HETATM   15  H           1     -22.522  -6.130  -0.775  0.00  0.00     0.275 HD
HETATM   16  H           1     -21.736  -4.731  -1.358  0.00  0.00     0.275 HD
ENDBRANCH   5  13
ENDBRANCH   3   5
BRANCH   2  17
HETATM   17  C           1     -20.600  -7.507  -5.595  0.00  0.00     0.189 C 
BRANCH  17  18
HETATM   18  C           1     -19.343  -8.317  -5.394  0.00  0.00     0.197 C 
HETATM   19  O           1     -18.576  -8.530  -6.359  0.00  0.00    -0.646 OA
HETATM   20  O           1     -19.067  -8.774  -4.264  0.00  0.00    -0.646 OA
ENDBRANCH  17  18
BRANCH  17  21
HETATM   21  C           1     -20.263  -6.023  -5.539  0.00  0.00     0.074 C 
BRANCH  21  22
HETATM   22  C           1     -20.664  -5.370  -6.825  0.00  0.00    -0.056 A 
HETATM   23  C           1     -19.760  -5.304  -7.885  0.00  0.00     0.007 A 
HETATM   24  C           1     -20.135  -4.696  -9.084  0.00  0.00     0.001 A 
HETATM   25  C           1     -21.413  -4.155  -9.222  0.00  0.00     0.000 A 
HETATM   26  C           1     -22.317  -4.223  -8.163  0.00  0.00     0.001 A 
HETATM   27  C           1     -21.943  -4.831  -6.964  0.00  0.00     0.007 A 
ENDBRANCH  21  22
ENDBRANCH  17  21
ENDBRANCH   2  17
TORSDOF 10
ENDMDL
MODEL 7
REMARK VINA RESULT:      -6.6      2.446      4.666
REMARK  10 active torsions:
REMARK  status: ('A' for Active; 'I' for Inactive)
REMARK    1  A    between atoms: C_2  and  C_9 
REMARK    2  A    between atoms: C_9  and  C_10 
REMARK    3  A    between atoms: C_9  and  N_17 
REMARK    4  A    between atoms: C_10  and  C_11 
REMARK       I    between atoms: N_17  and  C_18 
REMARK    5  A    between atoms: C_18  and  C_19 
REMARK    6  A    between atoms: C_19  and  C_20 
REMARK    7  A    between atoms: C_19  and  N_26 
REMARK    8  A    between atoms: C_20  and  O_21 
REMARK    9  A    between atoms: O_21  and  P_22 
REMARK   10  A    between atoms: P_22  and  O_23 
ROOT
HETATM    1  H           1     -36.602  -2.545 -10.734  0.00  0.00     0.163 HD
HETATM    2  N           1     -35.905  -1.812 -10.772  0.00  0.00    -0.344 N 
HETATM    3  C           1     -34.575  -2.125 -10.676  0.00  0.00     0.251 C 
HETATM    4  O           1     -34.040  -2.160  -9.593  0.00  0.00    -0.271 OA
ENDROOT
BRANCH   3   5
HETATM    5  C           1     -33.779  -2.425 -11.922  0.00  0.00     0.298 C 
BRANCH   5   6
HETATM    6  C           1     -34.718  -2.913 -13.018  0.00  0.00     0.224 C 
BRANCH   6   7
HETATM    7  O           1     -34.168  -4.043 -13.637  0.00  0.00    -0.287 OA
BRANCH   7   8
HETATM    8  P           1     -34.249  -4.078 -15.249  0.00  0.00     0.406 P 
HETATM    9  O           1     -34.935  -2.859 -15.735  0.00  0.00    -0.624 OA
HETATM   10  O           1     -32.880  -4.131 -15.811  0.00  0.00    -0.624 OA
BRANCH   8  11
HETATM   11  O           1     -35.075  -5.383 -15.720  0.00  0.00    -0.300 OA
HETATM   12  H           1     -35.262  -5.238 -16.632  0.00  0.00     0.223 HD
ENDBRANCH   8  11
ENDBRANCH   7   8
ENDBRANCH   6   7
ENDBRANCH   5   6
BRANCH   5  13
HETATM   13  N           1     -32.766  -3.489 -11.623  0.00  0.00    -0.064 N 
HETATM   14  H           1     -31.838  -3.207 -12.012  0.00  0.00     0.275 HD
HETATM   15  H           1     -32.686  -3.612 -10.588  0.00  0.00     0.275 HD
HETATM   16  H           1     -33.068  -4.389 -12.059  0.00  0.00     0.275 HD
ENDBRANCH   5  13
ENDBRANCH   3   5
BRANCH   2  17
HETATM   17  C           1     -36.314  -0.429 -10.928  0.00  0.00     0.189 C 
BRANCH  17  18
HETATM   18  C           1     -36.799   0.103  -9.601  0.00  0.00     0.197 C 
HETATM   19  O           1     -36.679   1.319  -9.334  0.00  0.00    -0.646 OA
HETATM   20  O           1     -37.322  -0.671  -8.770  0.00  0.00    -0.646 OA
ENDBRANCH  17  18
BRANCH  17  21
HETATM   21  C           1     -37.440  -0.346 -11.950  0.00  0.00     0.074 C 
BRANCH  21  22
HETATM   22  C           1     -36.873   0.018 -13.287  0.00  0.00    -0.056 A 
HETATM   23  C           1     -35.585   0.544 -13.379  0.00  0.00     0.007 A 
HETATM   24  C           1     -35.057   0.883 -14.625  0.00  0.00     0.001 A 
HETATM   25  C           1     -35.818   0.696 -15.779  0.00  0.00     0.000 A 
HETATM   26  C           1     -37.105   0.169 -15.687  0.00  0.00     0.001 A 
HETATM   27  C           1     -37.634  -0.170 -14.441  0.00  0.00     0.007 A 
ENDBRANCH  21  22
ENDBRANCH  17  21
ENDBRANCH   2  17
TORSDOF 10
ENDMDL
MODEL 8
REMARK VINA RESULT:      -6.6      2.468      4.300
REMARK  10 active torsions:
REMARK  status: ('A' for Active; 'I' for Inactive)
REMARK    1  A    between atoms: C_2  and  C_9 
REMARK    2  A    between atoms: C_9  and  C_10 
REMARK    3  A    between atoms: C_9  and  N_17 
REMARK    4  A    between atoms: C_10  and  C_11 
REMARK       I    between atoms: N_17  and  C_18 
REMARK    5  A    between atoms: C_18  and  C_19 
REMARK    6  A    between atoms: C_19  and  C_20 
REMARK    7  A    between atoms: C_19  and  N_26 
REMARK    8  A    between atoms: C_20  and  O_21 
REMARK    9  A    between atoms: O_21  and  P_22 
REMARK   10  A    between atoms: P_22  and  O_23 
ROOT
HETATM    1  H           1     -32.859  -2.162 -12.688  0.00  0.00     0.163 HD
HETATM    2  N           1     -33.522  -2.586 -12.052  0.00  0.00    -0.344 N 
HETATM    3  C           1     -34.171  -1.815 -11.125  0.00  0.00     0.251 C 
HETATM    4  O           1     -33.687  -1.652 -10.031  0.00  0.00    -0.271 OA
ENDROOT
BRANCH   3   5
HETATM    5  C           1     -35.491  -1.171 -11.472  0.00  0.00     0.298 C 
BRANCH   5   6
HETATM    6  C           1     -35.248   0.021 -12.390  0.00  0.00     0.224 C 
BRANCH   6   7
HETATM    7  O           1     -34.774  -0.432 -13.628  0.00  0.00    -0.287 OA
BRANCH   7   8
HETATM    8  P           1     -35.738  -0.166 -14.896  0.00  0.00     0.406 P 
HETATM    9  O           1     -35.180  -0.841 -16.090  0.00  0.00    -0.624 OA
HETATM   10  O           1     -37.088  -0.701 -14.611  0.00  0.00    -0.624 OA
BRANCH   8  11
HETATM   11  O           1     -35.836   1.422 -15.174  0.00  0.00    -0.300 OA
HETATM   12  H           1     -35.951   1.812 -14.325  0.00  0.00     0.223 HD
ENDBRANCH   8  11
ENDBRANCH   7   8
ENDBRANCH   6   7
ENDBRANCH   5   6
BRANCH   5  13
HETATM   13  N           1     -36.163  -0.703 -10.216  0.00  0.00    -0.064 N 
HETATM   14  H           1     -37.193  -0.864 -10.291  0.00  0.00     0.275 HD
HETATM   15  H           1     -35.786  -1.238  -9.400  0.00  0.00     0.275 HD
HETATM   16  H           1     -35.978   0.316 -10.080  0.00  0.00     0.275 HD
ENDBRANCH   5  13
ENDBRANCH   3   5
BRANCH   2  17
HETATM   17  C           1     -33.786  -4.011 -12.122  0.00  0.00     0.189 C 
BRANCH  17  18
HETATM   18  C           1     -34.459  -4.333 -13.433  0.00  0.00     0.197 C 
HETATM   19  O           1     -34.304  -3.577 -14.418  0.00  0.00    -0.646 OA
HETATM   20  O           1     -35.171  -5.355 -13.537  0.00  0.00    -0.646 OA
ENDBRANCH  17  18
BRANCH  17  21
HETATM   21  C           1     -34.697  -4.414 -10.971  0.00  0.00     0.074 C 
BRANCH  21  22
HETATM   22  C           1     -34.397  -5.824 -10.567  0.00  0.00    -0.056 A 
HETATM   23  C           1     -33.173  -6.400 -10.905  0.00  0.00     0.007 A 
HETATM   24  C           1     -32.893  -7.715 -10.528  0.00  0.00     0.001 A 
HETATM   25  C           1     -33.837  -8.451  -9.812  0.00  0.00     0.000 A 
HETATM   26  C           1     -35.059  -7.874  -9.473  0.00  0.00     0.001 A 
HETATM   27  C           1     -35.340  -6.560  -9.850  0.00  0.00     0.007 A 
ENDBRANCH  21  22
ENDBRANCH  17  21
ENDBRANCH   2  17
TORSDOF 10
ENDMDL
MODEL 9
REMARK VINA RESULT:      -6.5      8.575     10.742
REMARK  10 active torsions:
REMARK  status: ('A' for Active; 'I' for Inactive)
REMARK    1  A    between atoms: C_2  and  C_9 
REMARK    2  A    between atoms: C_9  and  C_10 
REMARK    3  A    between atoms: C_9  and  N_17 
REMARK    4  A    between atoms: C_10  and  C_11 
REMARK       I    between atoms: N_17  and  C_18 
REMARK    5  A    between atoms: C_18  and  C_19 
REMARK    6  A    between atoms: C_19  and  C_20 
REMARK    7  A    between atoms: C_19  and  N_26 
REMARK    8  A    between atoms: C_20  and  O_21 
REMARK    9  A    between atoms: O_21  and  P_22 
REMARK   10  A    between atoms: P_22  and  O_23 
ROOT
HETATM    1  H           1     -28.113  -5.970 -15.757  0.00  0.00     0.163 HD
HETATM    2  N           1     -27.928  -6.725 -16.406  0.00  0.00    -0.344 N 
HETATM    3  C           1     -28.935  -7.579 -16.767  0.00  0.00     0.251 C 
HETATM    4  O           1     -29.134  -8.584 -16.126  0.00  0.00    -0.271 OA
ENDROOT
BRANCH   3   5
HETATM    5  C           1     -29.797  -7.265 -17.966  0.00  0.00     0.298 C 
BRANCH   5   6
HETATM    6  C           1     -31.223  -6.988 -17.507  0.00  0.00     0.224 C 
BRANCH   6   7
HETATM    7  O           1     -31.604  -5.703 -17.916  0.00  0.00    -0.287 OA
BRANCH   7   8
HETATM    8  P           1     -31.592  -4.564 -16.772  0.00  0.00     0.406 P 
HETATM    9  O           1     -30.509  -4.848 -15.804  0.00  0.00    -0.624 OA
HETATM   10  O           1     -31.363  -3.241 -17.395  0.00  0.00    -0.624 OA
BRANCH   8  11
HETATM   11  O           1     -33.012  -4.557 -16.002  0.00  0.00    -0.300 OA
HETATM   12  H           1     -32.795  -4.638 -15.089  0.00  0.00     0.223 HD
ENDBRANCH   8  11
ENDBRANCH   7   8
ENDBRANCH   6   7
ENDBRANCH   5   6
BRANCH   5  13
HETATM   13  N           1     -29.793  -8.435 -18.904  0.00  0.00    -0.064 N 
HETATM   14  H           1     -30.547  -8.314 -19.616  0.00  0.00     0.275 HD
HETATM   15  H           1     -28.866  -8.492 -19.385  0.00  0.00     0.275 HD
HETATM   16  H           1     -29.961  -9.314 -18.365  0.00  0.00     0.275 HD
ENDBRANCH   5  13
ENDBRANCH   3   5
BRANCH   2  17
HETATM   17  C           1     -26.597  -6.902 -16.953  0.00  0.00     0.189 C 
BRANCH  17  18
HETATM   18  C           1     -25.572  -6.581 -15.893  0.00  0.00     0.197 C 
HETATM   19  O           1     -25.208  -7.466 -15.087  0.00  0.00    -0.646 OA
HETATM   20  O           1     -25.086  -5.432 -15.819  0.00  0.00    -0.646 OA
ENDBRANCH  17  18
BRANCH  17  21
HETATM   21  C           1     -26.408  -5.967 -18.140  0.00  0.00     0.074 C 
BRANCH  21  22
HETATM   22  C           1     -25.826  -6.730 -19.289  0.00  0.00    -0.056 A 
HETATM   23  C           1     -24.461  -7.012 -19.318  0.00  0.00     0.007 A 
HETATM   24  C           1     -23.918  -7.724 -20.389  0.00  0.00     0.001 A 
HETATM   25  C           1     -24.742  -8.154 -21.429  0.00  0.00     0.000 A 
HETATM   26  C           1     -26.107  -7.873 -21.399  0.00  0.00     0.001 A 
HETATM   27  C           1     -26.650  -7.161 -20.329  0.00  0.00     0.007 A 
ENDBRANCH  21  22
ENDBRANCH  17  21
ENDBRANCH   2  17
TORSDOF 10
ENDMDL
