MODEL 1
REMARK VINA RESULT:      -7.8      0.000      0.000
REMARK  8 active torsions:
REMARK  status: ('A' for Active; 'I' for Inactive)
REMARK    1  A    between atoms: C_1  and  C_20 
REMARK    2  A    between atoms: C_5  and  C_6 
REMARK    3  A    between atoms: C_5  and  C_16 
REMARK    4  A    between atoms: C_6  and  C_7 
REMARK    5  A    between atoms: C_6  and  N_13 
REMARK       I    between atoms: C_7  and  N_8 
REMARK    6  A    between atoms: N_8  and  C_20 
REMARK    7  A    between atoms: C_20  and  C_21 
REMARK    8  A    between atoms: C_21  and  C_22 
ROOT
HETATM    1  H           1     -34.225  -1.452 -14.047  0.00  0.00     0.163 HD
HETATM    2  C           1     -35.201   0.369 -13.912  0.00  0.00     0.249 C 
HETATM    3  N           1     -34.868  -0.894 -13.500  0.00  0.00    -0.344 N 
HETATM    4  O           1     -34.545   1.315 -13.547  0.00  0.00    -0.271 OA
ENDROOT
BRANCH   3   5
HETATM    5  C           1     -35.439  -1.432 -12.280  0.00  0.00     0.189 C 
BRANCH   5   6
HETATM    6  C           1     -36.416  -0.438 -11.704  0.00  0.00     0.197 C 
HETATM    7  O           1     -37.625  -0.493 -12.022  0.00  0.00    -0.646 OA
HETATM    8  O           1     -36.019   0.441 -10.909  0.00  0.00    -0.646 OA
ENDBRANCH   5   6
BRANCH   5   9
HETATM    9  C           1     -34.327  -1.693 -11.273  0.00  0.00     0.074 C 
BRANCH   9  10
HETATM   10  C           1     -34.056  -3.164 -11.198  0.00  0.00    -0.056 A 
HETATM   11  C           1     -32.872  -3.683 -11.722  0.00  0.00     0.007 A 
HETATM   12  C           1     -32.621  -5.053 -11.651  0.00  0.00     0.001 A 
HETATM   13  C           1     -33.552  -5.904 -11.059  0.00  0.00     0.000 A 
HETATM   14  C           1     -34.737  -5.386 -10.536  0.00  0.00     0.001 A 
HETATM   15  C           1     -34.989  -4.016 -10.605  0.00  0.00     0.007 A 
ENDBRANCH   9  10
ENDBRANCH   5   9
ENDBRANCH   3   5
BRANCH   2  16
HETATM   16  C           1     -36.386   0.579 -14.822  0.00  0.00     0.278 C 
BRANCH  16  17
HETATM   17  C           1     -36.644  -0.691 -15.622  0.00  0.00     0.021 C 
HETATM   18  C           1     -38.075  -0.680 -16.145  0.00  0.00     0.012 C 
BRANCH  17  19
HETATM   19  C           1     -35.676  -0.756 -16.795  0.00  0.00     0.002 C 
HETATM   20  C           1     -35.074  -2.153 -16.880  0.00  0.00     0.005 C 
ENDBRANCH  17  19
ENDBRANCH  16  17
BRANCH  16  21
HETATM   21  N           1     -36.100   1.712 -15.762  0.00  0.00    -0.066 N 
HETATM   22  H           1     -35.552   2.449 -15.263  0.00  0.00     0.275 HD
HETATM   23  H           1     -35.548   1.358 -16.576  0.00  0.00     0.275 HD
HETATM   24  H           1     -37.001   2.118 -16.102  0.00  0.00     0.275 HD
ENDBRANCH  16  21
ENDBRANCH   2  16
TORSDOF 8
ENDMDL
MODEL 2
REMARK VINA RESULT:      -7.2     17.566     19.636
REMARK  8 active torsions:
REMARK  status: ('A' for Active; 'I' for Inactive)
REMARK    1  A    between atoms: C_1  and  C_20 
REMARK    2  A    between atoms: C_5  and  C_6 
REMARK    3  A    between atoms: C_5  and  C_16 
REMARK    4  A    between atoms: C_6  and  C_7 
REMARK    5  A    between atoms: C_6  and  N_13 
REMARK       I    between atoms: C_7  and  N_8 
REMARK    6  A    between atoms: N_8  and  C_20 
REMARK    7  A    between atoms: C_20  and  C_21 
REMARK    8  A    between atoms: C_21  and  C_22 
ROOT
HETATM    1  H           1     -19.342  -7.092  -3.309  0.00  0.00     0.163 HD
HETATM    2  C           1     -19.717  -8.333  -4.924  0.00  0.00     0.249 C 
HETATM    3  N           1     -20.027  -7.689  -3.755  0.00  0.00    -0.344 N 
HETATM    4  O           1     -19.937  -7.798  -5.985  0.00  0.00    -0.271 OA
ENDROOT
BRANCH   3   5
HETATM    5  C           1     -21.338  -7.861  -3.158  0.00  0.00     0.189 C 
BRANCH   5   6
HETATM    6  C           1     -22.086  -6.552  -3.206  0.00  0.00     0.197 C 
HETATM    7  O           1     -22.392  -6.047  -4.308  0.00  0.00    -0.646 OA
HETATM    8  O           1     -22.400  -5.973  -2.144  0.00  0.00    -0.646 OA
ENDBRANCH   5   6
BRANCH   5   9
HETATM    9  C           1     -21.180  -8.304  -1.710  0.00  0.00     0.074 C 
BRANCH   9  10
HETATM   10  C           1     -22.148  -9.409  -1.418  0.00  0.00    -0.056 A 
HETATM   11  C           1     -22.922  -9.370  -0.258  0.00  0.00     0.007 A 
HETATM   12  C           1     -23.823 -10.400   0.013  0.00  0.00     0.001 A 
HETATM   13  C           1     -23.950 -11.468  -0.874  0.00  0.00     0.000 A 
HETATM   14  C           1     -23.176 -11.508  -2.033  0.00  0.00     0.001 A 
HETATM   15  C           1     -22.274 -10.478  -2.306  0.00  0.00     0.007 A 
ENDBRANCH   9  10
ENDBRANCH   5   9
ENDBRANCH   3   5
BRANCH   2  16
HETATM   16  C           1     -19.101  -9.710  -4.886  0.00  0.00     0.278 C 
BRANCH  16  17
HETATM   17  C           1     -18.239  -9.847  -3.638  0.00  0.00     0.021 C 
HETATM   18  C           1     -18.592 -11.142  -2.918  0.00  0.00     0.012 C 
BRANCH  17  19
HETATM   19  C           1     -16.770  -9.872  -4.037  0.00  0.00     0.002 C 
HETATM   20  C           1     -15.907  -9.572  -2.818  0.00  0.00     0.005 C 
ENDBRANCH  17  19
ENDBRANCH  16  17
BRANCH  16  21
HETATM   21  N           1     -18.251  -9.910  -6.105  0.00  0.00    -0.066 N 
HETATM   22  H           1     -18.552  -9.246  -6.853  0.00  0.00     0.275 HD
HETATM   23  H           1     -17.249  -9.732  -5.864  0.00  0.00     0.275 HD
HETATM   24  H           1     -18.358 -10.892  -6.446  0.00  0.00     0.275 HD
ENDBRANCH  16  21
ENDBRANCH   2  16
TORSDOF 8
ENDMDL
MODEL 3
REMARK VINA RESULT:      -7.1     17.652     19.761
REMARK  8 active torsions:
REMARK  status: ('A' for Active; 'I' for Inactive)
REMARK    1  A    between atoms: C_1  and  C_20 
REMARK    2  A    between atoms: C_5  and  C_6 
REMARK    3  A    between atoms: C_5  and  C_16 
REMARK    4  A    between atoms: C_6  and  C_7 
REMARK    5  A    between atoms: C_6  and  N_13 
REMARK       I    between atoms: C_7  and  N_8 
REMARK    6  A    between atoms: N_8  and  C_20 
REMARK    7  A    between atoms: C_20  and  C_21 
REMARK    8  A    between atoms: C_21  and  C_22 
ROOT
HETATM    1  H           1     -22.492  -8.281  -4.044  0.00  0.00     0.163 HD
HETATM    2  C           1     -21.863  -7.165  -2.418  0.00  0.00     0.249 C 
HETATM    3  N           1     -21.716  -7.777  -3.635  0.00  0.00    -0.344 N 
HETATM    4  O           1     -22.244  -6.020  -2.360  0.00  0.00    -0.271 OA
ENDROOT
BRANCH   3   5
HETATM    5  C           1     -20.449  -7.701  -4.336  0.00  0.00     0.189 C 
BRANCH   5   6
HETATM    6  C           1     -20.554  -6.692  -5.452  0.00  0.00     0.197 C 
HETATM    7  O           1     -20.725  -7.077  -6.629  0.00  0.00    -0.646 OA
HETATM    8  O           1     -20.469  -5.470  -5.200  0.00  0.00    -0.646 OA
ENDBRANCH   5   6
BRANCH   5   9
HETATM    9  C           1     -20.109  -9.067  -4.917  0.00  0.00     0.074 C 
BRANCH   9  10
HETATM   10  C           1     -18.655  -9.354  -4.700  0.00  0.00    -0.056 A 
HETATM   11  C           1     -18.119  -9.304  -3.413  0.00  0.00     0.007 A 
HETATM   12  C           1     -16.765  -9.572  -3.212  0.00  0.00     0.001 A 
HETATM   13  C           1     -15.948  -9.889  -4.295  0.00  0.00     0.000 A 
HETATM   14  C           1     -16.483  -9.938  -5.582  0.00  0.00     0.001 A 
HETATM   15  C           1     -17.837  -9.671  -5.785  0.00  0.00     0.007 A 
ENDBRANCH   9  10
ENDBRANCH   5   9
ENDBRANCH   3   5
BRANCH   2  16
HETATM   16  C           1     -21.548  -7.920  -1.150  0.00  0.00     0.278 C 
BRANCH  16  17
HETATM   17  C           1     -22.027  -9.359  -1.284  0.00  0.00     0.021 C 
HETATM   18  C           1     -20.843 -10.305  -1.128  0.00  0.00     0.012 C 
BRANCH  17  19
HETATM   19  C           1     -23.056  -9.653  -0.200  0.00  0.00     0.002 C 
HETATM   20  C           1     -23.793 -10.944  -0.536  0.00  0.00     0.005 C 
ENDBRANCH  17  19
ENDBRANCH  16  17
BRANCH  16  21
HETATM   21  N           1     -22.244  -7.267   0.006  0.00  0.00    -0.066 N 
HETATM   22  H           1     -22.327  -6.240  -0.171  0.00  0.00     0.275 HD
HETATM   23  H           1     -23.199  -7.678   0.115  0.00  0.00     0.275 HD
HETATM   24  H           1     -21.694  -7.427   0.880  0.00  0.00     0.275 HD
ENDBRANCH  16  21
ENDBRANCH   2  16
TORSDOF 8
ENDMDL
MODEL 4
REMARK VINA RESULT:      -7.1     15.449     17.943
REMARK  8 active torsions:
REMARK  status: ('A' for Active; 'I' for Inactive)
REMARK    1  A    between atoms: C_1  and  C_20 
REMARK    2  A    between atoms: C_5  and  C_6 
REMARK    3  A    between atoms: C_5  and  C_16 
REMARK    4  A    between atoms: C_6  and  C_7 
REMARK    5  A    between atoms: C_6  and  N_13 
REMARK       I    between atoms: C_7  and  N_8 
REMARK    6  A    between atoms: N_8  and  C_20 
REMARK    7  A    between atoms: C_20  and  C_21 
REMARK    8  A    between atoms: C_21  and  C_22 
ROOT
HETATM    1  H           1     -21.413  -8.632  -6.320  0.00  0.00     0.163 HD
HETATM    2  C           1     -20.374  -6.842  -6.375  0.00  0.00     0.249 C 
HETATM    3  N           1     -20.748  -8.044  -5.834  0.00  0.00    -0.344 N 
HETATM    4  O           1     -19.422  -6.784  -7.117  0.00  0.00    -0.271 OA
ENDROOT
BRANCH   3   5
HETATM    5  C           1     -20.191  -8.473  -4.566  0.00  0.00     0.189 C 
BRANCH   5   6
HETATM    6  C           1     -18.969  -9.322  -4.817  0.00  0.00     0.197 C 
HETATM    7  O           1     -18.867  -9.971  -5.881  0.00  0.00    -0.646 OA
HETATM    8  O           1     -18.058  -9.376  -3.963  0.00  0.00    -0.646 OA
ENDBRANCH   5   6
BRANCH   5   9
HETATM    9  C           1     -21.228  -9.289  -3.806  0.00  0.00     0.074 C 
BRANCH   9  10
HETATM   10  C           1     -21.644  -8.544  -2.575  0.00  0.00    -0.056 A 
HETATM   11  C           1     -21.910  -9.241  -1.396  0.00  0.00     0.007 A 
HETATM   12  C           1     -22.297  -8.547  -0.249  0.00  0.00     0.001 A 
HETATM   13  C           1     -22.420  -7.159  -0.282  0.00  0.00     0.000 A 
HETATM   14  C           1     -22.156  -6.462  -1.461  0.00  0.00     0.001 A 
HETATM   15  C           1     -21.768  -7.155  -2.608  0.00  0.00     0.007 A 
ENDBRANCH   9  10
ENDBRANCH   5   9
ENDBRANCH   3   5
BRANCH   2  16
HETATM   16  C           1     -21.148  -5.591  -6.042  0.00  0.00     0.278 C 
BRANCH  16  17
HETATM   17  C           1     -21.727  -4.996  -7.319  0.00  0.00     0.021 C 
HETATM   18  C           1     -23.171  -4.577  -7.075  0.00  0.00     0.012 C 
BRANCH  17  19
HETATM   19  C           1     -20.908  -3.779  -7.727  0.00  0.00     0.002 C 
HETATM   20  C           1     -20.345  -3.991  -9.126  0.00  0.00     0.005 C 
ENDBRANCH  17  19
ENDBRANCH  16  17
BRANCH  16  21
HETATM   21  N           1     -20.234  -4.594  -5.396  0.00  0.00    -0.066 N 
HETATM   22  H           1     -19.498  -5.097  -4.849  0.00  0.00     0.275 HD
HETATM   23  H           1     -19.779  -4.009  -6.134  0.00  0.00     0.275 HD
HETATM   24  H           1     -20.785  -3.979  -4.755  0.00  0.00     0.275 HD
ENDBRANCH  16  21
ENDBRANCH   2  16
TORSDOF 8
ENDMDL
MODEL 5
REMARK VINA RESULT:      -7.1      1.410      2.233
REMARK  8 active torsions:
REMARK  status: ('A' for Active; 'I' for Inactive)
REMARK    1  A    between atoms: C_1  and  C_20 
REMARK    2  A    between atoms: C_5  and  C_6 
REMARK    3  A    between atoms: C_5  and  C_16 
REMARK    4  A    between atoms: C_6  and  C_7 
REMARK    5  A    between atoms: C_6  and  N_13 
REMARK       I    between atoms: C_7  and  N_8 
REMARK    6  A    between atoms: N_8  and  C_20 
REMARK    7  A    between atoms: C_20  and  C_21 
REMARK    8  A    between atoms: C_21  and  C_22 
ROOT
HETATM    1  H           1     -37.524  -1.635 -12.508  0.00  0.00     0.163 HD
HETATM    2  C           1     -35.712  -1.005 -13.285  0.00  0.00     0.249 C 
HETATM    3  N           1     -36.566  -1.396 -12.288  0.00  0.00    -0.344 N 
HETATM    4  O           1     -35.053  -1.829 -13.873  0.00  0.00    -0.271 OA
ENDROOT
BRANCH   3   5
HETATM    5  C           1     -36.096  -1.468 -10.918  0.00  0.00     0.189 C 
BRANCH   5   6
HETATM    6  C           1     -36.517  -0.223 -10.178  0.00  0.00     0.197 C 
HETATM    7  O           1     -36.038   0.027  -9.050  0.00  0.00    -0.646 OA
HETATM    8  O           1     -37.345   0.560 -10.691  0.00  0.00    -0.646 OA
ENDBRANCH   5   6
BRANCH   5   9
HETATM    9  C           1     -34.577  -1.574 -10.908  0.00  0.00     0.074 C 
BRANCH   9  10
HETATM   10  C           1     -34.176  -3.013 -11.018  0.00  0.00    -0.056 A 
HETATM   11  C           1     -35.040  -4.013 -10.573  0.00  0.00     0.007 A 
HETATM   12  C           1     -34.667  -5.354 -10.677  0.00  0.00     0.001 A 
HETATM   13  C           1     -33.431  -5.693 -11.224  0.00  0.00     0.000 A 
HETATM   14  C           1     -32.566  -4.693 -11.669  0.00  0.00     0.001 A 
HETATM   15  C           1     -32.939  -3.353 -11.566  0.00  0.00     0.007 A 
ENDBRANCH   9  10
ENDBRANCH   5   9
ENDBRANCH   3   5
BRANCH   2  16
HETATM   16  C           1     -35.593   0.455 -13.648  0.00  0.00     0.278 C 
BRANCH  16  17
HETATM   17  C           1     -36.342   0.718 -14.947  0.00  0.00     0.021 C 
HETATM   18  C           1     -35.597   0.064 -16.104  0.00  0.00     0.012 C 
BRANCH  17  19
HETATM   19  C           1     -37.745   0.134 -14.851  0.00  0.00     0.002 C 
HETATM   20  C           1     -38.074  -0.609 -16.139  0.00  0.00     0.005 C 
ENDBRANCH  17  19
ENDBRANCH  16  17
BRANCH  16  21
HETATM   21  N           1     -34.147   0.810 -13.824  0.00  0.00    -0.066 N 
HETATM   22  H           1     -33.968   1.758 -13.421  0.00  0.00     0.275 HD
HETATM   23  H           1     -33.553   0.105 -13.330  0.00  0.00     0.275 HD
HETATM   24  H           1     -33.910   0.813 -14.842  0.00  0.00     0.275 HD
ENDBRANCH  16  21
ENDBRANCH   2  16
TORSDOF 8
ENDMDL
MODEL 6
REMARK VINA RESULT:      -7.0      4.701      6.869
REMARK  8 active torsions:
REMARK  status: ('A' for Active; 'I' for Inactive)
REMARK    1  A    between atoms: C_1  and  C_20 
REMARK    2  A    between atoms: C_5  and  C_6 
REMARK    3  A    between atoms: C_5  and  C_16 
REMARK    4  A    between atoms: C_6  and  C_7 
REMARK    5  A    between atoms: C_6  and  N_13 
REMARK       I    between atoms: C_7  and  N_8 
REMARK    6  A    between atoms: N_8  and  C_20 
REMARK    7  A    between atoms: C_20  and  C_21 
REMARK    8  A    between atoms: C_21  and  C_22 
ROOT
HETATM    1  H           1     -34.470  -5.225 -16.056  0.00  0.00     0.163 HD
HETATM    2  C           1     -34.083  -3.880 -14.529  0.00  0.00     0.249 C 
HETATM    3  N           1     -33.777  -4.610 -15.647  0.00  0.00    -0.344 N 
HETATM    4  O           1     -34.557  -2.774 -14.641  0.00  0.00    -0.271 OA
ENDROOT
BRANCH   3   5
HETATM    5  C           1     -32.461  -4.502 -16.246  0.00  0.00     0.189 C 
BRANCH   5   6
HETATM    6  C           1     -32.447  -3.351 -17.221  0.00  0.00     0.197 C 
HETATM    7  O           1     -31.359  -2.908 -17.651  0.00  0.00    -0.646 OA
HETATM    8  O           1     -33.523  -2.840 -17.600  0.00  0.00    -0.646 OA
ENDBRANCH   5   6
BRANCH   5   9
HETATM    9  C           1     -32.129  -5.793 -16.980  0.00  0.00     0.074 C 
BRANCH   9  10
HETATM   10  C           1     -30.655  -6.044 -16.908  0.00  0.00    -0.056 A 
HETATM   11  C           1     -29.950  -6.394 -18.060  0.00  0.00     0.007 A 
HETATM   12  C           1     -28.576  -6.628 -17.993  0.00  0.00     0.001 A 
HETATM   13  C           1     -27.908  -6.512 -16.775  0.00  0.00     0.000 A 
HETATM   14  C           1     -28.612  -6.163 -15.623  0.00  0.00     0.001 A 
HETATM   15  C           1     -29.986  -5.929 -15.689  0.00  0.00     0.007 A 
ENDBRANCH   9  10
ENDBRANCH   5   9
ENDBRANCH   3   5
BRANCH   2  16
HETATM   16  C           1     -33.828  -4.457 -13.159  0.00  0.00     0.278 C 
BRANCH  16  17
HETATM   17  C           1     -34.423  -3.537 -12.101  0.00  0.00     0.021 C 
HETATM   18  C           1     -35.299  -4.349 -11.156  0.00  0.00     0.012 C 
BRANCH  17  19
HETATM   19  C           1     -33.300  -2.878 -11.311  0.00  0.00     0.002 C 
HETATM   20  C           1     -33.895  -1.999 -10.219  0.00  0.00     0.005 C 
ENDBRANCH  17  19
ENDBRANCH  16  17
BRANCH  16  21
HETATM   21  N           1     -32.350  -4.582 -12.937  0.00  0.00    -0.066 N 
HETATM   22  H           1     -31.938  -5.197 -13.674  0.00  0.00     0.275 HD
HETATM   23  H           1     -31.909  -3.635 -12.987  0.00  0.00     0.275 HD
HETATM   24  H           1     -32.173  -4.999 -11.995  0.00  0.00     0.275 HD
ENDBRANCH  16  21
ENDBRANCH   2  16
TORSDOF 8
ENDMDL
MODEL 7
REMARK VINA RESULT:      -6.8      2.450      6.277
REMARK  8 active torsions:
REMARK  status: ('A' for Active; 'I' for Inactive)
REMARK    1  A    between atoms: C_1  and  C_20 
REMARK    2  A    between atoms: C_5  and  C_6 
REMARK    3  A    between atoms: C_5  and  C_16 
REMARK    4  A    between atoms: C_6  and  C_7 
REMARK    5  A    between atoms: C_6  and  N_13 
REMARK       I    between atoms: C_7  and  N_8 
REMARK    6  A    between atoms: N_8  and  C_20 
REMARK    7  A    between atoms: C_20  and  C_21 
REMARK    8  A    between atoms: C_21  and  C_22 
ROOT
HETATM    1  H           1     -33.420  -2.731  -9.844  0.00  0.00     0.163 HD
HETATM    2  C           1     -33.653  -4.005 -11.459  0.00  0.00     0.249 C 
HETATM    3  N           1     -33.823  -2.836 -10.766  0.00  0.00    -0.344 N 
HETATM    4  O           1     -32.702  -4.141 -12.191  0.00  0.00    -0.271 OA
ENDROOT
BRANCH   3   5
HETATM    5  C           1     -34.581  -1.748 -11.355  0.00  0.00     0.189 C 
BRANCH   5   6
HETATM    6  C           1     -35.840  -1.524 -10.554  0.00  0.00     0.197 C 
HETATM    7  O           1     -35.973  -0.481  -9.877  0.00  0.00    -0.646 OA
HETATM    8  O           1     -36.750  -2.380 -10.567  0.00  0.00    -0.646 OA
ENDBRANCH   5   6
BRANCH   5   9
HETATM    9  C           1     -34.948  -2.105 -12.789  0.00  0.00     0.074 C 
BRANCH   9  10
HETATM   10  C           1     -35.102  -0.850 -13.591  0.00  0.00    -0.056 A 
HETATM   11  C           1     -35.747  -0.887 -14.828  0.00  0.00     0.007 A 
HETATM   12  C           1     -35.890   0.282 -15.574  0.00  0.00     0.001 A 
HETATM   13  C           1     -35.389   1.488 -15.086  0.00  0.00     0.000 A 
HETATM   14  C           1     -34.744   1.526 -13.850  0.00  0.00     0.001 A 
HETATM   15  C           1     -34.600   0.357 -13.102  0.00  0.00     0.007 A 
ENDBRANCH   9  10
ENDBRANCH   5   9
ENDBRANCH   3   5
BRANCH   2  16
HETATM   16  C           1     -34.655  -5.124 -11.308  0.00  0.00     0.278 C 
BRANCH  16  17
HETATM   17  C           1     -34.216  -6.052 -10.183  0.00  0.00     0.021 C 
HETATM   18  C           1     -35.445  -6.647  -9.507  0.00  0.00     0.012 C 
BRANCH  17  19
HETATM   19  C           1     -33.359  -7.173 -10.756  0.00  0.00     0.002 C 
HETATM   20  C           1     -33.775  -8.499 -10.132  0.00  0.00     0.005 C 
ENDBRANCH  17  19
ENDBRANCH  16  17
BRANCH  16  21
HETATM   21  N           1     -34.736  -5.897 -12.590  0.00  0.00    -0.066 N 
HETATM   22  H           1     -34.345  -6.855 -12.446  0.00  0.00     0.275 HD
HETATM   23  H           1     -35.735  -5.972 -12.889  0.00  0.00     0.275 HD
HETATM   24  H           1     -34.187  -5.404 -13.330  0.00  0.00     0.275 HD
ENDBRANCH  16  21
ENDBRANCH   2  16
TORSDOF 8
ENDMDL
MODEL 8
REMARK VINA RESULT:      -6.7      2.353      5.402
REMARK  8 active torsions:
REMARK  status: ('A' for Active; 'I' for Inactive)
REMARK    1  A    between atoms: C_1  and  C_20 
REMARK    2  A    between atoms: C_5  and  C_6 
REMARK    3  A    between atoms: C_5  and  C_16 
REMARK    4  A    between atoms: C_6  and  C_7 
REMARK    5  A    between atoms: C_6  and  N_13 
REMARK       I    between atoms: C_7  and  N_8 
REMARK    6  A    between atoms: N_8  and  C_20 
REMARK    7  A    between atoms: C_20  and  C_21 
REMARK    8  A    between atoms: C_21  and  C_22 
ROOT
HETATM    1  H           1     -33.932  -0.865 -12.774  0.00  0.00     0.163 HD
HETATM    2  C           1     -34.730  -2.625 -13.516  0.00  0.00     0.249 C 
HETATM    3  N           1     -34.787  -1.371 -12.969  0.00  0.00    -0.344 N 
HETATM    4  O           1     -34.733  -2.761 -14.717  0.00  0.00    -0.271 OA
ENDROOT
BRANCH   3   5
HETATM    5  C           1     -36.071  -0.768 -12.670  0.00  0.00     0.189 C 
BRANCH   5   6
HETATM    6  C           1     -36.744  -0.360 -13.957  0.00  0.00     0.197 C 
HETATM    7  O           1     -37.890  -0.783 -14.225  0.00  0.00    -0.646 OA
HETATM    8  O           1     -36.158   0.402 -14.755  0.00  0.00    -0.646 OA
ENDBRANCH   5   6
BRANCH   5   9
HETATM    9  C           1     -35.863   0.460 -11.794  0.00  0.00     0.074 C 
BRANCH   9  10
HETATM   10  C           1     -36.544   0.255 -10.476  0.00  0.00    -0.056 A 
HETATM   11  C           1     -36.757  -1.037  -9.995  0.00  0.00     0.007 A 
HETATM   12  C           1     -37.391  -1.227  -8.767  0.00  0.00     0.001 A 
HETATM   13  C           1     -37.813  -0.127  -8.022  0.00  0.00     0.000 A 
HETATM   14  C           1     -37.601   1.165  -8.503  0.00  0.00     0.001 A 
HETATM   15  C           1     -36.967   1.356  -9.731  0.00  0.00     0.007 A 
ENDBRANCH   9  10
ENDBRANCH   5   9
ENDBRANCH   3   5
BRANCH   2  16
HETATM   16  C           1     -34.666  -3.837 -12.620  0.00  0.00     0.278 C 
BRANCH  16  17
HETATM   17  C           1     -33.396  -3.782 -11.781  0.00  0.00     0.021 C 
HETATM   18  C           1     -33.628  -2.893 -10.567  0.00  0.00     0.012 C 
BRANCH  17  19
HETATM   19  C           1     -33.033  -5.187 -11.319  0.00  0.00     0.002 C 
HETATM   20  C           1     -34.126  -5.718 -10.401  0.00  0.00     0.005 C 
ENDBRANCH  17  19
ENDBRANCH  16  17
BRANCH  16  21
HETATM   21  N           1     -34.656  -5.080 -13.460  0.00  0.00    -0.066 N 
HETATM   22  H           1     -35.350  -4.982 -14.235  0.00  0.00     0.275 HD
HETATM   23  H           1     -33.701  -5.219 -13.864  0.00  0.00     0.275 HD
HETATM   24  H           1     -34.907  -5.903 -12.868  0.00  0.00     0.275 HD
ENDBRANCH  16  21
ENDBRANCH   2  16
TORSDOF 8
ENDMDL
MODEL 9
REMARK VINA RESULT:      -6.6      2.725      4.619
REMARK  8 active torsions:
REMARK  status: ('A' for Active; 'I' for Inactive)
REMARK    1  A    between atoms: C_1  and  C_20 
REMARK    2  A    between atoms: C_5  and  C_6 
REMARK    3  A    between atoms: C_5  and  C_16 
REMARK    4  A    between atoms: C_6  and  C_7 
REMARK    5  A    between atoms: C_6  and  N_13 
REMARK       I    between atoms: C_7  and  N_8 
REMARK    6  A    between atoms: N_8  and  C_20 
REMARK    7  A    between atoms: C_20  and  C_21 
REMARK    8  A    between atoms: C_21  and  C_22 
ROOT
HETATM    1  H           1     -37.283  -1.408 -12.566  0.00  0.00     0.163 HD
HETATM    2  C           1     -35.501  -0.938 -13.509  0.00  0.00     0.249 C 
HETATM    3  N           1     -36.305  -1.190 -12.429  0.00  0.00    -0.344 N 
HETATM    4  O           1     -34.912  -1.845 -14.048  0.00  0.00    -0.271 OA
ENDROOT
BRANCH   3   5
HETATM    5  C           1     -35.752  -1.144 -11.089  0.00  0.00     0.189 C 
BRANCH   5   6
HETATM    6  C           1     -34.656  -2.174 -10.964  0.00  0.00     0.197 C 
HETATM    7  O           1     -33.483  -1.813 -10.724  0.00  0.00    -0.646 OA
HETATM    8  O           1     -34.921  -3.388 -11.099  0.00  0.00    -0.646 OA
ENDBRANCH   5   6
BRANCH   5   9
HETATM    9  C           1     -36.849  -1.446 -10.077  0.00  0.00     0.074 C 
BRANCH   9  10
HETATM   10  C           1     -37.067  -0.248  -9.205  0.00  0.00    -0.056 A 
HETATM   11  C           1     -36.467  -0.182  -7.948  0.00  0.00     0.007 A 
HETATM   12  C           1     -36.670   0.935  -7.137  0.00  0.00     0.001 A 
HETATM   13  C           1     -37.473   1.984  -7.582  0.00  0.00     0.000 A 
HETATM   14  C           1     -38.075   1.918  -8.838  0.00  0.00     0.001 A 
HETATM   15  C           1     -37.872   0.802  -9.651  0.00  0.00     0.007 A 
ENDBRANCH   9  10
ENDBRANCH   5   9
ENDBRANCH   3   5
BRANCH   2  16
HETATM   16  C           1     -35.352   0.471 -14.026  0.00  0.00     0.278 C 
BRANCH  16  17
HETATM   17  C           1     -36.440   0.755 -15.053  0.00  0.00     0.021 C 
HETATM   18  C           1     -36.054   1.975 -15.879  0.00  0.00     0.012 C 
BRANCH  17  19
HETATM   19  C           1     -36.598  -0.451 -15.970  0.00  0.00     0.002 C 
HETATM   20  C           1     -38.075  -0.667 -16.275  0.00  0.00     0.005 C 
ENDBRANCH  17  19
ENDBRANCH  16  17
BRANCH  16  21
HETATM   21  N           1     -34.006   0.627 -14.669  0.00  0.00    -0.066 N 
HETATM   22  H           1     -34.115   1.097 -15.597  0.00  0.00     0.275 HD
HETATM   23  H           1     -33.392   1.209 -14.055  0.00  0.00     0.275 HD
HETATM   24  H           1     -33.573  -0.314 -14.804  0.00  0.00     0.275 HD
ENDBRANCH  16  21
ENDBRANCH   2  16
TORSDOF 8
ENDMDL
