MODEL 1
REMARK VINA RESULT:      -7.7      0.000      0.000
REMARK  11 active torsions:
REMARK  status: ('A' for Active; 'I' for Inactive)
REMARK       I    between atoms: C_1  and  N_13 
REMARK    1  A    between atoms: C_1  and  C_2 
REMARK    2  A    between atoms: C_2  and  C_28 
REMARK    3  A    between atoms: C_2  and  N_12 
REMARK    4  A    between atoms: C_4  and  N_18 
REMARK    5  A    between atoms: C_4  and  C_21 
REMARK    6  A    between atoms: C_5  and  C_28 
REMARK    7  A    between atoms: C_5  and  C_6 
REMARK       I    between atoms: N_7  and  C_23 
REMARK    8  A    between atoms: C_11  and  C_21 
REMARK    9  A    between atoms: C_11  and  C_17 
REMARK   10  A    between atoms: N_13  and  C_17 
REMARK   11  A    between atoms: C_16  and  C_17 
REMARK       I    between atoms: N_18  and  C_23 
ROOT
HETATM    1  C           1     -22.647  -3.805  -9.621  0.00  0.00     0.185 C 
ENDROOT
BRANCH   1   2
HETATM    2  C           1     -22.038  -3.872 -11.014  0.00  0.00     0.038 C 
BRANCH   2   3
HETATM    3  C           1     -22.419  -2.621 -11.796  0.00  0.00     0.023 C 
BRANCH   3   4
HETATM    4  C           1     -23.220  -3.017 -13.029  0.00  0.00     0.138 C 
BRANCH   4   5
HETATM    5  N           1     -23.927  -1.839 -13.553  0.00  0.00    -0.227 N 
HETATM    6  C           1     -23.651  -1.397 -14.707  0.00  0.00     0.665 C 
HETATM    7  N           1     -22.766  -1.969 -15.409  0.00  0.00    -0.235 N 
HETATM    8  N           1     -24.276  -0.356 -15.171  0.00  0.00    -0.235 N 
HETATM    9  H           1     -22.261  -2.810 -15.035  0.00  0.00     0.174 HD
HETATM   10  H           1     -22.537  -1.602 -16.367  0.00  0.00     0.174 HD
HETATM   11  H           1     -25.007   0.117 -14.592  0.00  0.00     0.174 HD
HETATM   12  H           1     -24.048   0.010 -16.123  0.00  0.00     0.174 HD
HETATM   13  H           1     -24.661  -1.365 -12.971  0.00  0.00     0.177 HD
ENDBRANCH   4   5
ENDBRANCH   3   4
ENDBRANCH   2   3
ENDBRANCH   1   2
BRANCH   1  14
HETATM   14  N           1     -22.205  -4.948  -8.845  0.00  0.00    -0.345 N 
HETATM   15  C           1     -21.629  -4.762  -7.618  0.00  0.00     0.249 C 
HETATM   16  O           1     -21.488  -3.644  -7.181  0.00  0.00    -0.271 OA
HETATM   17  H           1     -22.323  -5.884  -9.212  0.00  0.00     0.163 HD
BRANCH  15  18
HETATM   18  C           1     -21.168  -5.951  -6.812  0.00  0.00     0.275 C 
BRANCH  18  19
HETATM   19  C           1     -21.300  -5.641  -5.327  0.00  0.00     0.053 C 
BRANCH  19  20
HETATM   20  C           1     -21.782  -6.882  -4.589  0.00  0.00     0.115 C 
BRANCH  20  21
HETATM   21  C           1     -21.677  -6.656  -3.100  0.00  0.00     0.172 C 
HETATM   22  O           1     -20.821  -7.277  -2.433  0.00  0.00    -0.648 OA
HETATM   23  O           1     -22.444  -5.848  -2.535  0.00  0.00    -0.648 OA
ENDBRANCH  20  21
ENDBRANCH  19  20
ENDBRANCH  18  19
BRANCH  18  24
HETATM   24  N           1     -19.733  -6.248  -7.135  0.00  0.00    -0.066 N 
HETATM   25  H           1     -19.663  -7.196  -7.568  0.00  0.00     0.275 HD
HETATM   26  H           1     -19.373  -5.531  -7.804  0.00  0.00     0.275 HD
HETATM   27  H           1     -19.167  -6.223  -6.257  0.00  0.00     0.275 HD
ENDBRANCH  18  24
ENDBRANCH  15  18
ENDBRANCH   1  14
BRANCH   1  28
HETATM   28  C           1     -24.152  -3.824  -9.727  0.00  0.00     0.196 C 
HETATM   29  O           1     -24.810  -2.794  -9.462  0.00  0.00    -0.646 OA
HETATM   30  O           1     -24.742  -4.868 -10.078  0.00  0.00    -0.646 OA
ENDBRANCH   1  28
TORSDOF 11
ENDMDL
MODEL 2
REMARK VINA RESULT:      -7.6     12.364     15.136
REMARK  11 active torsions:
REMARK  status: ('A' for Active; 'I' for Inactive)
REMARK       I    between atoms: C_1  and  N_13 
REMARK    1  A    between atoms: C_1  and  C_2 
REMARK    2  A    between atoms: C_2  and  C_28 
REMARK    3  A    between atoms: C_2  and  N_12 
REMARK    4  A    between atoms: C_4  and  N_18 
REMARK    5  A    between atoms: C_4  and  C_21 
REMARK    6  A    between atoms: C_5  and  C_28 
REMARK    7  A    between atoms: C_5  and  C_6 
REMARK       I    between atoms: N_7  and  C_23 
REMARK    8  A    between atoms: C_11  and  C_21 
REMARK    9  A    between atoms: C_11  and  C_17 
REMARK   10  A    between atoms: N_13  and  C_17 
REMARK   11  A    between atoms: C_16  and  C_17 
REMARK       I    between atoms: N_18  and  C_23 
ROOT
HETATM    1  C           1     -34.957  -2.361 -12.152  0.00  0.00     0.185 C 
ENDROOT
BRANCH   1   2
HETATM    2  C           1     -33.990  -3.506 -12.418  0.00  0.00     0.038 C 
BRANCH   2   3
HETATM    3  C           1     -34.704  -4.835 -12.208  0.00  0.00     0.023 C 
BRANCH   3   4
HETATM    4  C           1     -34.407  -5.356 -10.809  0.00  0.00     0.138 C 
BRANCH   4   5
HETATM    5  N           1     -33.746  -6.666 -10.903  0.00  0.00    -0.227 N 
HETATM    6  C           1     -34.199  -7.652 -10.250  0.00  0.00     0.665 C 
HETATM    7  N           1     -35.220  -7.509  -9.516  0.00  0.00    -0.235 N 
HETATM    8  N           1     -33.615  -8.810 -10.334  0.00  0.00    -0.235 N 
HETATM    9  H           1     -35.692  -6.573  -9.448  0.00  0.00     0.174 HD
HETATM   10  H           1     -35.596  -8.327  -8.974  0.00  0.00     0.174 HD
HETATM   11  H           1     -32.772  -8.928 -10.940  0.00  0.00     0.174 HD
HETATM   12  H           1     -33.988  -9.624  -9.795  0.00  0.00     0.174 HD
HETATM   13  H           1     -32.899  -6.784 -11.512  0.00  0.00     0.177 HD
ENDBRANCH   4   5
ENDBRANCH   3   4
ENDBRANCH   2   3
ENDBRANCH   1   2
BRANCH   1  14
HETATM   14  N           1     -34.812  -1.356 -13.187  0.00  0.00    -0.345 N 
HETATM   15  C           1     -35.916  -0.712 -13.675  0.00  0.00     0.249 C 
HETATM   16  O           1     -37.012  -0.980 -13.243  0.00  0.00    -0.271 OA
HETATM   17  H           1     -33.894  -1.131 -13.549  0.00  0.00     0.163 HD
BRANCH  15  18
HETATM   18  C           1     -35.766   0.334 -14.753  0.00  0.00     0.275 C 
BRANCH  18  19
HETATM   19  C           1     -34.851  -0.195 -15.850  0.00  0.00     0.053 C 
BRANCH  19  20
HETATM   20  C           1     -35.528  -1.362 -16.557  0.00  0.00     0.115 C 
BRANCH  20  21
HETATM   21  C           1     -34.587  -2.542 -16.596  0.00  0.00     0.172 C 
HETATM   22  O           1     -34.675  -3.439 -15.729  0.00  0.00    -0.648 OA
HETATM   23  O           1     -33.722  -2.622 -17.493  0.00  0.00    -0.648 OA
ENDBRANCH  20  21
ENDBRANCH  19  20
ENDBRANCH  18  19
BRANCH  18  24
HETATM   24  N           1     -35.169   1.577 -14.162  0.00  0.00    -0.066 N 
HETATM   25  H           1     -34.581   2.057 -14.881  0.00  0.00     0.275 HD
HETATM   26  H           1     -35.935   2.217 -13.855  0.00  0.00     0.275 HD
HETATM   27  H           1     -34.576   1.322 -13.341  0.00  0.00     0.275 HD
ENDBRANCH  18  24
ENDBRANCH  15  18
ENDBRANCH   1  14
BRANCH   1  28
HETATM   28  C           1     -34.650  -1.744 -10.809  0.00  0.00     0.196 C 
HETATM   29  O           1     -35.554  -1.167 -10.166  0.00  0.00    -0.646 OA
HETATM   30  O           1     -33.493  -1.809 -10.340  0.00  0.00    -0.646 OA
ENDBRANCH   1  28
TORSDOF 11
ENDMDL
MODEL 3
REMARK VINA RESULT:      -7.5     11.580     13.869
REMARK  11 active torsions:
REMARK  status: ('A' for Active; 'I' for Inactive)
REMARK       I    between atoms: C_1  and  N_13 
REMARK    1  A    between atoms: C_1  and  C_2 
REMARK    2  A    between atoms: C_2  and  C_28 
REMARK    3  A    between atoms: C_2  and  N_12 
REMARK    4  A    between atoms: C_4  and  N_18 
REMARK    5  A    between atoms: C_4  and  C_21 
REMARK    6  A    between atoms: C_5  and  C_28 
REMARK    7  A    between atoms: C_5  and  C_6 
REMARK       I    between atoms: N_7  and  C_23 
REMARK    8  A    between atoms: C_11  and  C_21 
REMARK    9  A    between atoms: C_11  and  C_17 
REMARK   10  A    between atoms: N_13  and  C_17 
REMARK   11  A    between atoms: C_16  and  C_17 
REMARK       I    between atoms: N_18  and  C_23 
ROOT
HETATM    1  C           1     -34.107  -3.821 -13.019  0.00  0.00     0.185 C 
ENDROOT
BRANCH   1   2
HETATM    2  C           1     -33.102  -3.845 -11.876  0.00  0.00     0.038 C 
BRANCH   2   3
HETATM    3  C           1     -33.700  -4.590 -10.689  0.00  0.00     0.023 C 
BRANCH   3   4
HETATM    4  C           1     -34.535  -5.760 -11.192  0.00  0.00     0.138 C 
BRANCH   4   5
HETATM    5  N           1     -33.775  -7.008 -11.036  0.00  0.00    -0.227 N 
HETATM    6  C           1     -34.158  -7.882 -10.203  0.00  0.00     0.665 C 
HETATM    7  N           1     -35.194  -7.681  -9.505  0.00  0.00    -0.235 N 
HETATM    8  N           1     -33.485  -8.986 -10.064  0.00  0.00    -0.235 N 
HETATM    9  H           1     -35.737  -6.789  -9.617  0.00  0.00     0.174 HD
HETATM   10  H           1     -35.512  -8.405  -8.814  0.00  0.00     0.174 HD
HETATM   11  H           1     -32.629  -9.153 -10.640  0.00  0.00     0.174 HD
HETATM   12  H           1     -33.801  -9.708  -9.376  0.00  0.00     0.174 HD
HETATM   13  H           1     -32.915  -7.176 -11.614  0.00  0.00     0.177 HD
ENDBRANCH   4   5
ENDBRANCH   3   4
ENDBRANCH   2   3
ENDBRANCH   1   2
BRANCH   1  14
HETATM   14  N           1     -33.398  -3.831 -14.285  0.00  0.00    -0.345 N 
HETATM   15  C           1     -33.937  -4.473 -15.366  0.00  0.00     0.249 C 
HETATM   16  O           1     -35.004  -5.031 -15.267  0.00  0.00    -0.271 OA
HETATM   17  H           1     -32.504  -3.363 -14.367  0.00  0.00     0.163 HD
BRANCH  15  18
HETATM   18  C           1     -33.199  -4.483 -16.682  0.00  0.00     0.275 C 
BRANCH  18  19
HETATM   19  C           1     -31.713  -4.705 -16.430  0.00  0.00     0.053 C 
BRANCH  19  20
HETATM   20  C           1     -31.240  -5.919 -17.217  0.00  0.00     0.115 C 
BRANCH  20  21
HETATM   21  C           1     -29.939  -6.419 -16.638  0.00  0.00     0.172 C 
HETATM   22  O           1     -29.415  -5.823 -15.671  0.00  0.00    -0.648 OA
HETATM   23  O           1     -29.385  -7.428 -17.124  0.00  0.00    -0.648 OA
ENDBRANCH  20  21
ENDBRANCH  19  20
ENDBRANCH  18  19
BRANCH  18  24
HETATM   24  N           1     -33.397  -3.168 -17.376  0.00  0.00    -0.066 N 
HETATM   25  H           1     -34.053  -2.575 -16.819  0.00  0.00     0.275 HD
HETATM   26  H           1     -32.478  -2.681 -17.466  0.00  0.00     0.275 HD
HETATM   27  H           1     -33.800  -3.334 -18.326  0.00  0.00     0.275 HD
ENDBRANCH  18  24
ENDBRANCH  15  18
ENDBRANCH   1  14
BRANCH   1  28
HETATM   28  C           1     -34.947  -2.570 -12.926  0.00  0.00     0.196 C 
HETATM   29  O           1     -34.936  -1.740 -13.860  0.00  0.00    -0.646 OA
HETATM   30  O           1     -35.653  -2.365 -11.915  0.00  0.00    -0.646 OA
ENDBRANCH   1  28
TORSDOF 11
ENDMDL
MODEL 4
REMARK VINA RESULT:      -7.4     11.956     13.455
REMARK  11 active torsions:
REMARK  status: ('A' for Active; 'I' for Inactive)
REMARK       I    between atoms: C_1  and  N_13 
REMARK    1  A    between atoms: C_1  and  C_2 
REMARK    2  A    between atoms: C_2  and  C_28 
REMARK    3  A    between atoms: C_2  and  N_12 
REMARK    4  A    between atoms: C_4  and  N_18 
REMARK    5  A    between atoms: C_4  and  C_21 
REMARK    6  A    between atoms: C_5  and  C_28 
REMARK    7  A    between atoms: C_5  and  C_6 
REMARK       I    between atoms: N_7  and  C_23 
REMARK    8  A    between atoms: C_11  and  C_21 
REMARK    9  A    between atoms: C_11  and  C_17 
REMARK   10  A    between atoms: N_13  and  C_17 
REMARK   11  A    between atoms: C_16  and  C_17 
REMARK       I    between atoms: N_18  and  C_23 
ROOT
HETATM    1  C           1     -35.719  -0.679 -11.676  0.00  0.00     0.185 C 
ENDROOT
BRANCH   1   2
HETATM    2  C           1     -36.320   0.044 -12.873  0.00  0.00     0.038 C 
BRANCH   2   3
HETATM    3  C           1     -35.222   0.789 -13.622  0.00  0.00     0.023 C 
BRANCH   3   4
HETATM    4  C           1     -35.413   0.604 -15.121  0.00  0.00     0.138 C 
BRANCH   4   5
HETATM    5  N           1     -34.867  -0.699 -15.528  0.00  0.00    -0.227 N 
HETATM    6  C           1     -35.351  -1.303 -16.531  0.00  0.00     0.665 C 
HETATM    7  N           1     -36.304  -0.785 -17.182  0.00  0.00    -0.235 N 
HETATM    8  N           1     -34.868  -2.455 -16.890  0.00  0.00    -0.235 N 
HETATM    9  H           1     -36.693   0.146 -16.892  0.00  0.00     0.174 HD
HETATM   10  H           1     -36.705  -1.285 -18.014  0.00  0.00     0.174 HD
HETATM   11  H           1     -34.081  -2.884 -16.352  0.00  0.00     0.174 HD
HETATM   12  H           1     -35.267  -2.954 -17.718  0.00  0.00     0.174 HD
HETATM   13  H           1     -34.076  -1.129 -14.987  0.00  0.00     0.177 HD
ENDBRANCH   4   5
ENDBRANCH   3   4
ENDBRANCH   2   3
ENDBRANCH   1   2
BRANCH   1  14
HETATM   14  N           1     -35.443  -2.058 -12.033  0.00  0.00    -0.345 N 
HETATM   15  C           1     -34.301  -2.665 -11.586  0.00  0.00     0.249 C 
HETATM   16  O           1     -33.523  -2.053 -10.894  0.00  0.00    -0.271 OA
HETATM   17  H           1     -36.095  -2.570 -12.612  0.00  0.00     0.163 HD
BRANCH  15  18
HETATM   18  C           1     -34.015  -4.099 -11.957  0.00  0.00     0.275 C 
BRANCH  18  19
HETATM   19  C           1     -34.458  -5.016 -10.825  0.00  0.00     0.053 C 
BRANCH  19  20
HETATM   20  C           1     -33.672  -6.319 -10.890  0.00  0.00     0.115 C 
BRANCH  20  21
HETATM   21  C           1     -34.402  -7.386 -10.111  0.00  0.00     0.172 C 
HETATM   22  O           1     -35.451  -7.101  -9.492  0.00  0.00    -0.648 OA
HETATM   23  O           1     -33.960  -8.555 -10.085  0.00  0.00    -0.648 OA
ENDBRANCH  20  21
ENDBRANCH  19  20
ENDBRANCH  18  19
BRANCH  18  24
HETATM   24  N           1     -32.542  -4.269 -12.191  0.00  0.00    -0.066 N 
HETATM   25  H           1     -32.012  -3.826 -11.407  0.00  0.00     0.275 HD
HETATM   26  H           1     -32.314  -5.288 -12.234  0.00  0.00     0.275 HD
HETATM   27  H           1     -32.278  -3.812 -13.092  0.00  0.00     0.275 HD
ENDBRANCH  18  24
ENDBRANCH  15  18
ENDBRANCH   1  14
BRANCH   1  28
HETATM   28  C           1     -36.695  -0.645 -10.525  0.00  0.00     0.196 C 
HETATM   29  O           1     -36.302  -0.317  -9.384  0.00  0.00    -0.646 OA
HETATM   30  O           1     -37.893  -0.945 -10.712  0.00  0.00    -0.646 OA
ENDBRANCH   1  28
TORSDOF 11
ENDMDL
MODEL 5
REMARK VINA RESULT:      -7.1     12.234     14.427
REMARK  11 active torsions:
REMARK  status: ('A' for Active; 'I' for Inactive)
REMARK       I    between atoms: C_1  and  N_13 
REMARK    1  A    between atoms: C_1  and  C_2 
REMARK    2  A    between atoms: C_2  and  C_28 
REMARK    3  A    between atoms: C_2  and  N_12 
REMARK    4  A    between atoms: C_4  and  N_18 
REMARK    5  A    between atoms: C_4  and  C_21 
REMARK    6  A    between atoms: C_5  and  C_28 
REMARK    7  A    between atoms: C_5  and  C_6 
REMARK       I    between atoms: N_7  and  C_23 
REMARK    8  A    between atoms: C_11  and  C_21 
REMARK    9  A    between atoms: C_11  and  C_17 
REMARK   10  A    between atoms: N_13  and  C_17 
REMARK   11  A    between atoms: C_16  and  C_17 
REMARK       I    between atoms: N_18  and  C_23 
ROOT
HETATM    1  C           1     -35.919  -0.794 -13.283  0.00  0.00     0.185 C 
ENDROOT
BRANCH   1   2
HETATM    2  C           1     -37.120  -0.108 -12.648  0.00  0.00     0.038 C 
BRANCH   2   3
HETATM    3  C           1     -37.220  -0.512 -11.183  0.00  0.00     0.023 C 
BRANCH   3   4
HETATM    4  C           1     -37.015   0.714 -10.303  0.00  0.00     0.138 C 
BRANCH   4   5
HETATM    5  N           1     -36.690   0.286  -8.934  0.00  0.00    -0.227 N 
HETATM    6  C           1     -36.934   1.053  -7.957  0.00  0.00     0.665 C 
HETATM    7  N           1     -37.459   2.187  -8.157  0.00  0.00    -0.235 N 
HETATM    8  N           1     -36.647   0.675  -6.747  0.00  0.00    -0.235 N 
HETATM    9  H           1     -37.691   2.493  -9.135  0.00  0.00     0.174 HD
HETATM   10  H           1     -37.662   2.823  -7.346  0.00  0.00     0.174 HD
HETATM   11  H           1     -36.213  -0.262  -6.580  0.00  0.00     0.174 HD
HETATM   12  H           1     -36.848   1.307  -5.939  0.00  0.00     0.174 HD
HETATM   13  H           1     -36.255  -0.654  -8.768  0.00  0.00     0.177 HD
ENDBRANCH   4   5
ENDBRANCH   3   4
ENDBRANCH   2   3
ENDBRANCH   1   2
BRANCH   1  14
HETATM   14  N           1     -35.027  -1.268 -12.242  0.00  0.00    -0.345 N 
HETATM   15  C           1     -34.346  -2.443 -12.407  0.00  0.00     0.249 C 
HETATM   16  O           1     -34.486  -3.086 -13.421  0.00  0.00    -0.271 OA
HETATM   17  H           1     -34.910  -0.730 -11.394  0.00  0.00     0.163 HD
BRANCH  15  18
HETATM   18  C           1     -33.418  -2.937 -11.324  0.00  0.00     0.275 C 
BRANCH  18  19
HETATM   19  C           1     -34.091  -4.065 -10.553  0.00  0.00     0.053 C 
BRANCH  19  20
HETATM   20  C           1     -33.496  -5.399 -10.982  0.00  0.00     0.115 C 
BRANCH  20  21
HETATM   21  C           1     -34.606  -6.344 -11.373  0.00  0.00     0.172 C 
HETATM   22  O           1     -35.268  -6.134 -12.413  0.00  0.00    -0.648 OA
HETATM   23  O           1     -34.864  -7.336 -10.658  0.00  0.00    -0.648 OA
ENDBRANCH  20  21
ENDBRANCH  19  20
ENDBRANCH  18  19
BRANCH  18  24
HETATM   24  N           1     -33.104  -1.809 -10.385  0.00  0.00    -0.066 N 
HETATM   25  H           1     -32.125  -1.481 -10.550  0.00  0.00     0.275 HD
HETATM   26  H           1     -33.768  -1.021 -10.554  0.00  0.00     0.275 HD
HETATM   27  H           1     -33.198  -2.142  -9.399  0.00  0.00     0.275 HD
ENDBRANCH  18  24
ENDBRANCH  15  18
ENDBRANCH   1  14
BRANCH   1  28
HETATM   28  C           1     -35.184   0.188 -14.163  0.00  0.00     0.196 C 
HETATM   29  O           1     -34.789   1.275 -13.690  0.00  0.00    -0.646 OA
HETATM   30  O           1     -34.972  -0.086 -15.364  0.00  0.00    -0.646 OA
ENDBRANCH   1  28
TORSDOF 11
ENDMDL
MODEL 6
REMARK VINA RESULT:      -6.9      1.319      1.592
REMARK  11 active torsions:
REMARK  status: ('A' for Active; 'I' for Inactive)
REMARK       I    between atoms: C_1  and  N_13 
REMARK    1  A    between atoms: C_1  and  C_2 
REMARK    2  A    between atoms: C_2  and  C_28 
REMARK    3  A    between atoms: C_2  and  N_12 
REMARK    4  A    between atoms: C_4  and  N_18 
REMARK    5  A    between atoms: C_4  and  C_21 
REMARK    6  A    between atoms: C_5  and  C_28 
REMARK    7  A    between atoms: C_5  and  C_6 
REMARK       I    between atoms: N_7  and  C_23 
REMARK    8  A    between atoms: C_11  and  C_21 
REMARK    9  A    between atoms: C_11  and  C_17 
REMARK   10  A    between atoms: N_13  and  C_17 
REMARK   11  A    between atoms: C_16  and  C_17 
REMARK       I    between atoms: N_18  and  C_23 
ROOT
HETATM    1  C           1     -22.760  -3.833  -9.027  0.00  0.00     0.185 C 
ENDROOT
BRANCH   1   2
HETATM    2  C           1     -21.835  -4.304 -10.140  0.00  0.00     0.038 C 
BRANCH   2   3
HETATM    3  C           1     -21.639  -3.179 -11.148  0.00  0.00     0.023 C 
BRANCH   3   4
HETATM    4  C           1     -22.365  -3.524 -12.442  0.00  0.00     0.138 C 
BRANCH   4   5
HETATM    5  N           1     -23.267  -2.422 -12.807  0.00  0.00    -0.227 N 
HETATM    6  C           1     -23.371  -2.063 -14.017  0.00  0.00     0.665 C 
HETATM    7  N           1     -22.698  -2.653 -14.912  0.00  0.00    -0.235 N 
HETATM    8  N           1     -24.169  -1.089 -14.339  0.00  0.00    -0.235 N 
HETATM    9  H           1     -22.054  -3.440 -14.651  0.00  0.00     0.174 HD
HETATM   10  H           1     -22.784  -2.355 -15.916  0.00  0.00     0.174 HD
HETATM   11  H           1     -24.725  -0.602 -13.600  0.00  0.00     0.174 HD
HETATM   12  H           1     -24.255  -0.792 -15.338  0.00  0.00     0.174 HD
HETATM   13  H           1     -23.825  -1.933 -12.064  0.00  0.00     0.177 HD
ENDBRANCH   4   5
ENDBRANCH   3   4
ENDBRANCH   2   3
ENDBRANCH   1   2
BRANCH   1  14
HETATM   14  N           1     -22.645  -4.728  -7.891  0.00  0.00    -0.345 N 
HETATM   15  C           1     -21.674  -4.518  -6.950  0.00  0.00     0.249 C 
HETATM   16  O           1     -20.914  -3.586  -7.064  0.00  0.00    -0.271 OA
HETATM   17  H           1     -23.282  -5.508  -7.796  0.00  0.00     0.163 HD
BRANCH  15  18
HETATM   18  C           1     -21.554  -5.450  -5.769  0.00  0.00     0.275 C 
BRANCH  18  19
HETATM   19  C           1     -20.684  -6.641  -6.148  0.00  0.00     0.053 C 
BRANCH  19  20
HETATM   20  C           1     -21.221  -7.897  -5.477  0.00  0.00     0.115 C 
BRANCH  20  21
HETATM   21  C           1     -20.576  -8.060  -4.122  0.00  0.00     0.172 C 
HETATM   22  O           1     -21.150  -7.625  -3.100  0.00  0.00    -0.648 OA
HETATM   23  O           1     -19.468  -8.629  -4.021  0.00  0.00    -0.648 OA
ENDBRANCH  20  21
ENDBRANCH  19  20
ENDBRANCH  18  19
BRANCH  18  24
HETATM   24  N           1     -22.918  -5.934  -5.375  0.00  0.00    -0.066 N 
HETATM   25  H           1     -23.451  -5.151  -4.932  0.00  0.00     0.275 HD
HETATM   26  H           1     -23.428  -6.265  -6.224  0.00  0.00     0.275 HD
HETATM   27  H           1     -22.824  -6.720  -4.694  0.00  0.00     0.275 HD
ENDBRANCH  18  24
ENDBRANCH  15  18
ENDBRANCH   1  14
BRANCH   1  28
HETATM   28  C           1     -24.186  -3.833  -9.522  0.00  0.00     0.196 C 
HETATM   29  O           1     -24.803  -2.753  -9.650  0.00  0.00    -0.646 OA
HETATM   30  O           1     -24.750  -4.913  -9.802  0.00  0.00    -0.646 OA
ENDBRANCH   1  28
TORSDOF 11
ENDMDL
MODEL 7
REMARK VINA RESULT:      -6.8      3.181      8.881
REMARK  11 active torsions:
REMARK  status: ('A' for Active; 'I' for Inactive)
REMARK       I    between atoms: C_1  and  N_13 
REMARK    1  A    between atoms: C_1  and  C_2 
REMARK    2  A    between atoms: C_2  and  C_28 
REMARK    3  A    between atoms: C_2  and  N_12 
REMARK    4  A    between atoms: C_4  and  N_18 
REMARK    5  A    between atoms: C_4  and  C_21 
REMARK    6  A    between atoms: C_5  and  C_28 
REMARK    7  A    between atoms: C_5  and  C_6 
REMARK       I    between atoms: N_7  and  C_23 
REMARK    8  A    between atoms: C_11  and  C_21 
REMARK    9  A    between atoms: C_11  and  C_17 
REMARK   10  A    between atoms: N_13  and  C_17 
REMARK   11  A    between atoms: C_16  and  C_17 
REMARK       I    between atoms: N_18  and  C_23 
ROOT
HETATM    1  C           1     -21.153  -4.928  -7.221  0.00  0.00     0.185 C 
ENDROOT
BRANCH   1   2
HETATM    2  C           1     -21.099  -6.364  -6.720  0.00  0.00     0.038 C 
BRANCH   2   3
HETATM    3  C           1     -21.944  -6.495  -5.459  0.00  0.00     0.023 C 
BRANCH   3   4
HETATM    4  C           1     -21.130  -6.047  -4.253  0.00  0.00     0.138 C 
BRANCH   4   5
HETATM    5  N           1     -21.158  -7.097  -3.224  0.00  0.00    -0.227 N 
HETATM    6  C           1     -21.751  -6.890  -2.125  0.00  0.00     0.665 C 
HETATM    7  N           1     -22.319  -5.779  -1.911  0.00  0.00    -0.235 N 
HETATM    8  N           1     -21.776  -7.819  -1.215  0.00  0.00    -0.235 N 
HETATM    9  H           1     -22.298  -5.029  -2.645  0.00  0.00     0.174 HD
HETATM   10  H           1     -22.811  -5.608  -0.998  0.00  0.00     0.174 HD
HETATM   11  H           1     -21.308  -8.736  -1.391  0.00  0.00     0.174 HD
HETATM   12  H           1     -22.265  -7.649  -0.307  0.00  0.00     0.174 HD
HETATM   13  H           1     -20.688  -8.019  -3.402  0.00  0.00     0.177 HD
ENDBRANCH   4   5
ENDBRANCH   3   4
ENDBRANCH   2   3
ENDBRANCH   1   2
BRANCH   1  14
HETATM   14  N           1     -21.856  -4.884  -8.488  0.00  0.00    -0.345 N 
HETATM   15  C           1     -23.164  -4.486  -8.533  0.00  0.00     0.249 C 
HETATM   16  O           1     -23.734  -4.170  -7.515  0.00  0.00    -0.271 OA
HETATM   17  H           1     -21.378  -5.149  -9.340  0.00  0.00     0.163 HD
BRANCH  15  18
HETATM   18  C           1     -23.895  -4.442  -9.852  0.00  0.00     0.275 C 
BRANCH  18  19
HETATM   19  C           1     -23.164  -3.508 -10.807  0.00  0.00     0.053 C 
BRANCH  19  20
HETATM   20  C           1     -23.360  -3.989 -12.238  0.00  0.00     0.115 C 
BRANCH  20  21
HETATM   21  C           1     -24.274  -3.036 -12.970  0.00  0.00     0.172 C 
HETATM   22  O           1     -25.449  -2.871 -12.575  0.00  0.00    -0.648 OA
HETATM   23  O           1     -23.857  -2.413 -13.969  0.00  0.00    -0.648 OA
ENDBRANCH  20  21
ENDBRANCH  19  20
ENDBRANCH  18  19
BRANCH  18  24
HETATM   24  N           1     -25.291  -3.937  -9.632  0.00  0.00    -0.066 N 
HETATM   25  H           1     -25.272  -3.147  -8.949  0.00  0.00     0.275 HD
HETATM   26  H           1     -25.687  -3.605 -10.540  0.00  0.00     0.275 HD
HETATM   27  H           1     -25.884  -4.710  -9.254  0.00  0.00     0.275 HD
ENDBRANCH  18  24
ENDBRANCH  15  18
ENDBRANCH   1  14
BRANCH   1  28
HETATM   28  C           1     -19.749  -4.407  -7.408  0.00  0.00     0.196 C 
HETATM   29  O           1     -18.863  -4.682  -6.570  0.00  0.00    -0.646 OA
HETATM   30  O           1     -19.472  -3.700  -8.401  0.00  0.00    -0.646 OA
ENDBRANCH   1  28
TORSDOF 11
ENDMDL
MODEL 8
REMARK VINA RESULT:      -6.7      2.737      3.846
REMARK  11 active torsions:
REMARK  status: ('A' for Active; 'I' for Inactive)
REMARK       I    between atoms: C_1  and  N_13 
REMARK    1  A    between atoms: C_1  and  C_2 
REMARK    2  A    between atoms: C_2  and  C_28 
REMARK    3  A    between atoms: C_2  and  N_12 
REMARK    4  A    between atoms: C_4  and  N_18 
REMARK    5  A    between atoms: C_4  and  C_21 
REMARK    6  A    between atoms: C_5  and  C_28 
REMARK    7  A    between atoms: C_5  and  C_6 
REMARK       I    between atoms: N_7  and  C_23 
REMARK    8  A    between atoms: C_11  and  C_21 
REMARK    9  A    between atoms: C_11  and  C_17 
REMARK   10  A    between atoms: N_13  and  C_17 
REMARK   11  A    between atoms: C_16  and  C_17 
REMARK       I    between atoms: N_18  and  C_23 
ROOT
HETATM    1  C           1     -21.298  -4.989  -7.204  0.00  0.00     0.185 C 
ENDROOT
BRANCH   1   2
HETATM    2  C           1     -22.157  -3.799  -7.607  0.00  0.00     0.038 C 
BRANCH   2   3
HETATM    3  C           1     -23.004  -4.171  -8.818  0.00  0.00     0.023 C 
BRANCH   3   4
HETATM    4  C           1     -22.106  -4.727  -9.915  0.00  0.00     0.138 C 
BRANCH   4   5
HETATM    5  N           1     -22.580  -4.253 -11.223  0.00  0.00    -0.227 N 
HETATM    6  C           1     -21.772  -3.704 -12.029  0.00  0.00     0.665 C 
HETATM    7  N           1     -20.556  -3.562 -11.707  0.00  0.00    -0.235 N 
HETATM    8  N           1     -22.191  -3.285 -13.186  0.00  0.00    -0.235 N 
HETATM    9  H           1     -20.218  -3.900 -10.772  0.00  0.00     0.174 HD
HETATM   10  H           1     -19.886  -3.106 -12.374  0.00  0.00     0.174 HD
HETATM   11  H           1     -23.195  -3.402 -13.452  0.00  0.00     0.174 HD
HETATM   12  H           1     -21.525  -2.831 -13.851  0.00  0.00     0.174 HD
HETATM   13  H           1     -23.589  -4.371 -11.490  0.00  0.00     0.177 HD
ENDBRANCH   4   5
ENDBRANCH   3   4
ENDBRANCH   2   3
ENDBRANCH   1   2
BRANCH   1  14
HETATM   14  N           1     -21.724  -5.474  -5.905  0.00  0.00    -0.345 N 
HETATM   15  C           1     -21.554  -6.792  -5.577  0.00  0.00     0.249 C 
HETATM   16  O           1     -21.048  -7.551  -6.370  0.00  0.00    -0.271 OA
HETATM   17  H           1     -22.147  -4.838  -5.242  0.00  0.00     0.163 HD
BRANCH  15  18
HETATM   18  C           1     -21.998  -7.296  -4.227  0.00  0.00     0.275 C 
BRANCH  18  19
HETATM   19  C           1     -21.258  -6.539  -3.132  0.00  0.00     0.053 C 
BRANCH  19  20
HETATM   20  C           1     -22.235  -6.155  -2.030  0.00  0.00     0.115 C 
BRANCH  20  21
HETATM   21  C           1     -22.222  -7.213  -0.954  0.00  0.00     0.172 C 
HETATM   22  O           1     -21.290  -8.045  -0.906  0.00  0.00    -0.648 OA
HETATM   23  O           1     -23.143  -7.258  -0.110  0.00  0.00    -0.648 OA
ENDBRANCH  20  21
ENDBRANCH  19  20
ENDBRANCH  18  19
BRANCH  18  24
HETATM   24  N           1     -21.692  -8.761  -4.115  0.00  0.00    -0.066 N 
HETATM   25  H           1     -22.541  -9.270  -3.780  0.00  0.00     0.275 HD
HETATM   26  H           1     -21.413  -9.129  -5.052  0.00  0.00     0.275 HD
HETATM   27  H           1     -20.910  -8.902  -3.437  0.00  0.00     0.275 HD
ENDBRANCH  18  24
ENDBRANCH  15  18
ENDBRANCH   1  14
BRANCH   1  28
HETATM   28  C           1     -19.851  -4.564  -7.130  0.00  0.00     0.196 C 
HETATM   29  O           1     -19.264  -4.538  -6.026  0.00  0.00    -0.646 OA
HETATM   30  O           1     -19.241  -4.238  -8.171  0.00  0.00    -0.646 OA
ENDBRANCH   1  28
TORSDOF 11
ENDMDL
MODEL 9
REMARK VINA RESULT:      -6.6     11.895     14.639
REMARK  11 active torsions:
REMARK  status: ('A' for Active; 'I' for Inactive)
REMARK       I    between atoms: C_1  and  N_13 
REMARK    1  A    between atoms: C_1  and  C_2 
REMARK    2  A    between atoms: C_2  and  C_28 
REMARK    3  A    between atoms: C_2  and  N_12 
REMARK    4  A    between atoms: C_4  and  N_18 
REMARK    5  A    between atoms: C_4  and  C_21 
REMARK    6  A    between atoms: C_5  and  C_28 
REMARK    7  A    between atoms: C_5  and  C_6 
REMARK       I    between atoms: N_7  and  C_23 
REMARK    8  A    between atoms: C_11  and  C_21 
REMARK    9  A    between atoms: C_11  and  C_17 
REMARK   10  A    between atoms: N_13  and  C_17 
REMARK   11  A    between atoms: C_16  and  C_17 
REMARK       I    between atoms: N_18  and  C_23 
ROOT
HETATM    1  C           1     -35.009  -3.486 -11.871  0.00  0.00     0.185 C 
ENDROOT
BRANCH   1   2
HETATM    2  C           1     -34.718  -4.534 -12.936  0.00  0.00     0.038 C 
BRANCH   2   3
HETATM    3  C           1     -33.791  -3.943 -13.991  0.00  0.00     0.023 C 
BRANCH   3   4
HETATM    4  C           1     -34.080  -4.588 -15.340  0.00  0.00     0.138 C 
BRANCH   4   5
HETATM    5  N           1     -33.494  -3.768 -16.411  0.00  0.00    -0.227 N 
HETATM    6  C           1     -32.342  -4.044 -16.861  0.00  0.00     0.665 C 
HETATM    7  N           1     -31.697  -5.025 -16.388  0.00  0.00    -0.235 N 
HETATM    8  N           1     -31.824  -3.320 -17.807  0.00  0.00    -0.235 N 
HETATM    9  H           1     -32.115  -5.610 -15.624  0.00  0.00     0.174 HD
HETATM   10  H           1     -30.742  -5.254 -16.762  0.00  0.00     0.174 HD
HETATM   11  H           1     -32.357  -2.510 -18.198  0.00  0.00     0.174 HD
HETATM   12  H           1     -30.874  -3.547 -18.179  0.00  0.00     0.174 HD
HETATM   13  H           1     -34.029  -2.955 -16.802  0.00  0.00     0.177 HD
ENDBRANCH   4   5
ENDBRANCH   3   4
ENDBRANCH   2   3
ENDBRANCH   1   2
BRANCH   1  14
HETATM   14  N           1     -35.117  -2.181 -12.494  0.00  0.00    -0.345 N 
HETATM   15  C           1     -36.050  -1.285 -12.049  0.00  0.00     0.249 C 
HETATM   16  O           1     -36.784  -1.580 -11.136  0.00  0.00    -0.271 OA
HETATM   17  H           1     -34.502  -1.934 -13.259  0.00  0.00     0.163 HD
BRANCH  15  18
HETATM   18  C           1     -36.162   0.073 -12.698  0.00  0.00     0.275 C 
BRANCH  18  19
HETATM   19  C           1     -37.137  -0.001 -13.866  0.00  0.00     0.053 C 
BRANCH  19  20
HETATM   20  C           1     -36.462   0.524 -15.126  0.00  0.00     0.115 C 
BRANCH  20  21
HETATM   21  C           1     -36.144  -0.630 -16.045  0.00  0.00     0.172 C 
HETATM   22  O           1     -36.751  -0.748 -17.132  0.00  0.00    -0.648 OA
HETATM   23  O           1     -35.275  -1.467 -15.721  0.00  0.00    -0.648 OA
ENDBRANCH  20  21
ENDBRANCH  19  20
ENDBRANCH  18  19
BRANCH  18  24
HETATM   24  N           1     -34.814   0.500 -13.200  0.00  0.00    -0.066 N 
HETATM   25  H           1     -34.248  -0.346 -13.438  0.00  0.00     0.275 HD
HETATM   26  H           1     -34.932   1.091 -14.052  0.00  0.00     0.275 HD
HETATM   27  H           1     -34.325   1.049 -12.458  0.00  0.00     0.275 HD
ENDBRANCH  18  24
ENDBRANCH  15  18
ENDBRANCH   1  14
BRANCH   1  28
HETATM   28  C           1     -33.888  -3.468 -10.861  0.00  0.00     0.196 C 
HETATM   29  O           1     -33.655  -4.482 -10.168  0.00  0.00    -0.646 OA
HETATM   30  O           1     -33.192  -2.440 -10.718  0.00  0.00    -0.646 OA
ENDBRANCH   1  28
TORSDOF 11
ENDMDL
