MODEL 1
REMARK VINA RESULT:      -5.9      0.000      0.000
REMARK  9 active torsions:
REMARK  status: ('A' for Active; 'I' for Inactive)
REMARK    1  A    between atoms: N_6  and  C_10 
REMARK    2  A    between atoms: S_7  and  C_12 
REMARK    3  A    between atoms: C_8  and  C_9 
REMARK    4  A    between atoms: C_9  and  C_17 
REMARK    5  A    between atoms: C_9  and  N_14 
REMARK    6  A    between atoms: C_10  and  C_18 
REMARK    7  A    between atoms: C_10  and  C_11 
REMARK    8  A    between atoms: C_11  and  C_12 
REMARK    9  A    between atoms: O_13  and  C_17 
REMARK       I    between atoms: N_14  and  C_18 
ROOT
HETATM    1  H           1     -21.951  -5.714  -9.549  0.00  0.00     0.163 HD
HETATM    2  N           1     -22.096  -4.838  -9.063  0.00  0.00    -0.343 N 
HETATM    3  C           1     -21.757  -4.726  -7.741  0.00  0.00     0.249 C 
HETATM    4  O           1     -21.931  -3.681  -7.161  0.00  0.00    -0.271 OA
ENDROOT
BRANCH   3   5
HETATM    5  C           1     -21.168  -5.907  -7.010  0.00  0.00     0.275 C 
BRANCH   5   6
HETATM    6  N           1     -19.753  -6.116  -7.458  0.00  0.00    -0.066 N 
HETATM    7  H           1     -19.739  -6.322  -8.483  0.00  0.00     0.275 HD
HETATM    8  H           1     -19.195  -5.253  -7.268  0.00  0.00     0.275 HD
HETATM    9  H           1     -19.338  -6.921  -6.936  0.00  0.00     0.275 HD
ENDBRANCH   5   6
BRANCH   5  10
HETATM   10  C           1     -21.190  -5.639  -5.510  0.00  0.00     0.053 C 
BRANCH  10  11
HETATM   11  C           1     -22.145  -6.613  -4.834  0.00  0.00     0.076 C 
BRANCH  11  12
HETATM   12  S           1     -21.340  -7.334  -3.374  0.00  0.00    -0.173 SA
HETATM   13  C           1     -22.090  -6.213  -2.160  0.00  0.00     0.089 C 
ENDBRANCH  11  12
ENDBRANCH  10  11
ENDBRANCH   5  10
ENDBRANCH   3   5
BRANCH   2  14
HETATM   14  C           1     -22.661  -3.704  -9.767  0.00  0.00     0.214 C 
BRANCH  14  15
HETATM   15  C           1     -24.164  -3.841  -9.813  0.00  0.00     0.199 C 
HETATM   16  O           1     -24.888  -2.827  -9.713  0.00  0.00    -0.646 OA
HETATM   17  O           1     -24.685  -4.969  -9.952  0.00  0.00    -0.646 OA
ENDBRANCH  14  15
BRANCH  14  18
HETATM   18  C           1     -22.111  -3.661 -11.186  0.00  0.00     0.147 C 
HETATM   19  C           1     -20.611  -3.922 -11.156  0.00  0.00     0.042 C 
BRANCH  18  20
HETATM   20  O           1     -22.741  -4.645 -11.960  0.00  0.00    -0.393 OA
HETATM   21  H           1     -22.325  -4.638 -12.805  0.00  0.00     0.210 HD
ENDBRANCH  18  20
ENDBRANCH  14  18
ENDBRANCH   2  14
TORSDOF 9
ENDMDL
MODEL 2
REMARK VINA RESULT:      -5.3     12.522     14.660
REMARK  9 active torsions:
REMARK  status: ('A' for Active; 'I' for Inactive)
REMARK    1  A    between atoms: N_6  and  C_10 
REMARK    2  A    between atoms: S_7  and  C_12 
REMARK    3  A    between atoms: C_8  and  C_9 
REMARK    4  A    between atoms: C_9  and  C_17 
REMARK    5  A    between atoms: C_9  and  N_14 
REMARK    6  A    between atoms: C_10  and  C_18 
REMARK    7  A    between atoms: C_10  and  C_11 
REMARK    8  A    between atoms: C_11  and  C_12 
REMARK    9  A    between atoms: O_13  and  C_17 
REMARK       I    between atoms: N_14  and  C_18 
ROOT
HETATM    1  H           1     -35.504  -2.681 -11.309  0.00  0.00     0.163 HD
HETATM    2  N           1     -34.978  -2.278 -12.074  0.00  0.00    -0.343 N 
HETATM    3  C           1     -35.309  -1.038 -12.552  0.00  0.00     0.249 C 
HETATM    4  O           1     -34.681  -0.557 -13.465  0.00  0.00    -0.271 OA
ENDROOT
BRANCH   3   5
HETATM    5  C           1     -36.457  -0.274 -11.939  0.00  0.00     0.275 C 
BRANCH   5   6
HETATM    6  N           1     -37.606  -0.242 -12.902  0.00  0.00    -0.066 N 
HETATM    7  H           1     -37.258   0.021 -13.851  0.00  0.00     0.275 HD
HETATM    8  H           1     -38.053  -1.186 -12.943  0.00  0.00     0.275 HD
HETATM    9  H           1     -38.309   0.461 -12.581  0.00  0.00     0.275 HD
ENDBRANCH   5   6
BRANCH   5  10
HETATM   10  C           1     -36.893  -0.960 -10.651  0.00  0.00     0.053 C 
BRANCH  10  11
HETATM   11  C           1     -37.898  -0.078  -9.922  0.00  0.00     0.076 C 
BRANCH  11  12
HETATM   12  S           1     -37.072   0.774  -8.548  0.00  0.00    -0.173 SA
HETATM   13  C           1     -37.940  -0.105  -7.218  0.00  0.00     0.089 C 
ENDBRANCH  11  12
ENDBRANCH  10  11
ENDBRANCH   5  10
ENDBRANCH   3   5
BRANCH   2  14
HETATM   14  C           1     -33.875  -3.012 -12.661  0.00  0.00     0.214 C 
BRANCH  14  15
HETATM   15  C           1     -34.416  -4.056 -13.609  0.00  0.00     0.199 C 
HETATM   16  O           1     -35.100  -5.006 -13.168  0.00  0.00    -0.646 OA
HETATM   17  O           1     -34.180  -3.972 -14.833  0.00  0.00    -0.646 OA
ENDBRANCH  14  15
BRANCH  14  18
HETATM   18  C           1     -33.073  -3.691 -11.560  0.00  0.00     0.147 C 
HETATM   19  C           1     -33.977  -3.954 -10.363  0.00  0.00     0.042 C 
BRANCH  18  20
HETATM   20  O           1     -32.563  -4.906 -12.036  0.00  0.00    -0.393 OA
HETATM   21  H           1     -32.808  -4.971 -12.943  0.00  0.00     0.210 HD
ENDBRANCH  18  20
ENDBRANCH  14  18
ENDBRANCH   2  14
TORSDOF 9
ENDMDL
MODEL 3
REMARK VINA RESULT:      -5.1      2.165      3.030
REMARK  9 active torsions:
REMARK  status: ('A' for Active; 'I' for Inactive)
REMARK    1  A    between atoms: N_6  and  C_10 
REMARK    2  A    between atoms: S_7  and  C_12 
REMARK    3  A    between atoms: C_8  and  C_9 
REMARK    4  A    between atoms: C_9  and  C_17 
REMARK    5  A    between atoms: C_9  and  N_14 
REMARK    6  A    between atoms: C_10  and  C_18 
REMARK    7  A    between atoms: C_10  and  C_11 
REMARK    8  A    between atoms: C_11  and  C_12 
REMARK    9  A    between atoms: O_13  and  C_17 
REMARK       I    between atoms: N_14  and  C_18 
ROOT
HETATM    1  H           1     -22.789  -3.289  -8.982  0.00  0.00     0.163 HD
HETATM    2  N           1     -22.271  -3.791  -9.692  0.00  0.00    -0.343 N 
HETATM    3  C           1     -20.997  -4.221  -9.432  0.00  0.00     0.249 C 
HETATM    4  O           1     -20.378  -4.820 -10.280  0.00  0.00    -0.271 OA
ENDROOT
BRANCH   3   5
HETATM    5  C           1     -20.366  -3.947  -8.090  0.00  0.00     0.275 C 
BRANCH   5   6
HETATM    6  N           1     -21.368  -3.283  -7.194  0.00  0.00    -0.066 N 
HETATM    7  H           1     -21.308  -3.697  -6.236  0.00  0.00     0.275 HD
HETATM    8  H           1     -21.167  -2.259  -7.144  0.00  0.00     0.275 HD
HETATM    9  H           1     -22.329  -3.430  -7.577  0.00  0.00     0.275 HD
ENDBRANCH   5   6
BRANCH   5  10
HETATM   10  C           1     -19.916  -5.259  -7.462  0.00  0.00     0.053 C 
BRANCH  10  11
HETATM   11  C           1     -21.126  -5.998  -6.905  0.00  0.00     0.076 C 
BRANCH  11  12
HETATM   12  S           1     -20.847  -6.382  -5.153  0.00  0.00    -0.173 SA
HETATM   13  C           1     -21.109  -8.172  -5.297  0.00  0.00     0.089 C 
ENDBRANCH  11  12
ENDBRANCH  10  11
ENDBRANCH   5  10
ENDBRANCH   3   5
BRANCH   2  14
HETATM   14  C           1     -22.877  -4.055 -10.982  0.00  0.00     0.214 C 
BRANCH  14  15
HETATM   15  C           1     -22.342  -3.075 -11.998  0.00  0.00     0.199 C 
HETATM   16  O           1     -22.223  -3.418 -13.194  0.00  0.00    -0.646 OA
HETATM   17  O           1     -22.017  -1.921 -11.643  0.00  0.00    -0.646 OA
ENDBRANCH  14  15
BRANCH  14  18
HETATM   18  C           1     -24.388  -3.900 -10.873  0.00  0.00     0.147 C 
HETATM   19  C           1     -24.741  -3.309  -9.514  0.00  0.00     0.042 C 
BRANCH  18  20
HETATM   20  O           1     -24.843  -3.046 -11.887  0.00  0.00    -0.393 OA
HETATM   21  H           1     -24.105  -2.862 -12.443  0.00  0.00     0.210 HD
ENDBRANCH  18  20
ENDBRANCH  14  18
ENDBRANCH   2  14
TORSDOF 9
ENDMDL
MODEL 4
REMARK VINA RESULT:      -5.1     13.325     14.807
REMARK  9 active torsions:
REMARK  status: ('A' for Active; 'I' for Inactive)
REMARK    1  A    between atoms: N_6  and  C_10 
REMARK    2  A    between atoms: S_7  and  C_12 
REMARK    3  A    between atoms: C_8  and  C_9 
REMARK    4  A    between atoms: C_9  and  C_17 
REMARK    5  A    between atoms: C_9  and  N_14 
REMARK    6  A    between atoms: C_10  and  C_18 
REMARK    7  A    between atoms: C_10  and  C_11 
REMARK    8  A    between atoms: C_11  and  C_12 
REMARK    9  A    between atoms: O_13  and  C_17 
REMARK       I    between atoms: N_14  and  C_18 
ROOT
HETATM    1  H           1     -36.131  -3.540 -11.793  0.00  0.00     0.163 HD
HETATM    2  N           1     -35.218  -3.105 -11.737  0.00  0.00    -0.343 N 
HETATM    3  C           1     -35.090  -1.851 -11.204  0.00  0.00     0.249 C 
HETATM    4  O           1     -34.001  -1.332 -11.138  0.00  0.00    -0.271 OA
ENDROOT
BRANCH   3   5
HETATM    5  C           1     -36.307  -1.117 -10.699  0.00  0.00     0.275 C 
BRANCH   5   6
HETATM    6  N           1     -36.092  -0.716  -9.271  0.00  0.00    -0.066 N 
HETATM    7  H           1     -35.945   0.317  -9.217  0.00  0.00     0.275 HD
HETATM    8  H           1     -36.930  -0.979  -8.705  0.00  0.00     0.275 HD
HETATM    9  H           1     -35.250  -1.209  -8.894  0.00  0.00     0.275 HD
ENDBRANCH   5   6
BRANCH   5  10
HETATM   10  C           1     -36.538   0.128 -11.546  0.00  0.00     0.053 C 
BRANCH  10  11
HETATM   11  C           1     -36.849  -0.282 -12.979  0.00  0.00     0.076 C 
BRANCH  11  12
HETATM   12  S           1     -35.662   0.505 -14.105  0.00  0.00    -0.173 SA
HETATM   13  C           1     -36.472  -0.015 -15.643  0.00  0.00     0.089 C 
ENDBRANCH  11  12
ENDBRANCH  10  11
ENDBRANCH   5  10
ENDBRANCH   3   5
BRANCH   2  14
HETATM   14  C           1     -34.049  -3.811 -12.222  0.00  0.00     0.214 C 
BRANCH  14  15
HETATM   15  C           1     -33.965  -3.672 -13.723  0.00  0.00     0.199 C 
HETATM   16  O           1     -34.723  -2.877 -14.321  0.00  0.00    -0.646 OA
HETATM   17  O           1     -33.138  -4.351 -14.369  0.00  0.00    -0.646 OA
ENDBRANCH  14  15
BRANCH  14  18
HETATM   18  C           1     -34.156  -5.285 -11.853  0.00  0.00     0.147 C 
HETATM   19  C           1     -34.667  -5.414 -10.424  0.00  0.00     0.042 C 
BRANCH  18  20
HETATM   20  O           1     -35.048  -5.920 -12.728  0.00  0.00    -0.393 OA
HETATM   21  H           1     -34.551  -6.560 -13.210  0.00  0.00     0.210 HD
ENDBRANCH  18  20
ENDBRANCH  14  18
ENDBRANCH   2  14
TORSDOF 9
ENDMDL
MODEL 5
REMARK VINA RESULT:      -5.1      1.892      2.237
REMARK  9 active torsions:
REMARK  status: ('A' for Active; 'I' for Inactive)
REMARK    1  A    between atoms: N_6  and  C_10 
REMARK    2  A    between atoms: S_7  and  C_12 
REMARK    3  A    between atoms: C_8  and  C_9 
REMARK    4  A    between atoms: C_9  and  C_17 
REMARK    5  A    between atoms: C_9  and  N_14 
REMARK    6  A    between atoms: C_10  and  C_18 
REMARK    7  A    between atoms: C_10  and  C_11 
REMARK    8  A    between atoms: C_11  and  C_12 
REMARK    9  A    between atoms: O_13  and  C_17 
REMARK       I    between atoms: N_14  and  C_18 
ROOT
HETATM    1  H           1     -24.005  -3.833  -8.915  0.00  0.00     0.163 HD
HETATM    2  N           1     -23.096  -3.712  -9.344  0.00  0.00    -0.343 N 
HETATM    3  C           1     -21.960  -3.924  -8.609  0.00  0.00     0.249 C 
HETATM    4  O           1     -20.875  -3.781  -9.120  0.00  0.00    -0.271 OA
ENDROOT
BRANCH   3   5
HETATM    5  C           1     -22.064  -4.337  -7.161  0.00  0.00     0.275 C 
BRANCH   5   6
HETATM    6  N           1     -23.503  -4.565  -6.809  0.00  0.00    -0.066 N 
HETATM    7  H           1     -23.652  -5.575  -6.585  0.00  0.00     0.275 HD
HETATM    8  H           1     -23.755  -3.983  -5.978  0.00  0.00     0.275 HD
HETATM    9  H           1     -24.107  -4.295  -7.618  0.00  0.00     0.275 HD
ENDBRANCH   5   6
BRANCH   5  10
HETATM   10  C           1     -21.279  -5.624  -6.942  0.00  0.00     0.053 C 
BRANCH  10  11
HETATM   11  C           1     -20.908  -5.749  -5.471  0.00  0.00     0.076 C 
BRANCH  11  12
HETATM   12  S           1     -21.596  -7.291  -4.802  0.00  0.00    -0.173 SA
HETATM   13  C           1     -20.032  -8.209  -4.768  0.00  0.00     0.089 C 
ENDBRANCH  11  12
ENDBRANCH  10  11
ENDBRANCH   5  10
ENDBRANCH   3   5
BRANCH   2  14
HETATM   14  C           1     -22.997  -3.316 -10.734  0.00  0.00     0.214 C 
BRANCH  14  15
HETATM   15  C           1     -24.378  -3.029 -11.274  0.00  0.00     0.199 C 
HETATM   16  O           1     -24.521  -2.652 -12.457  0.00  0.00    -0.646 OA
HETATM   17  O           1     -25.378  -3.170 -10.538  0.00  0.00    -0.646 OA
ENDBRANCH  14  15
BRANCH  14  18
HETATM   18  C           1     -22.361  -4.442 -11.539  0.00  0.00     0.147 C 
HETATM   19  C           1     -23.409  -5.504 -11.841  0.00  0.00     0.042 C 
BRANCH  18  20
HETATM   20  O           1     -21.855  -3.928 -12.741  0.00  0.00    -0.393 OA
HETATM   21  H           1     -21.209  -4.539 -13.050  0.00  0.00     0.210 HD
ENDBRANCH  18  20
ENDBRANCH  14  18
ENDBRANCH   2  14
TORSDOF 9
ENDMDL
MODEL 6
REMARK VINA RESULT:      -5.0      2.867      4.581
REMARK  9 active torsions:
REMARK  status: ('A' for Active; 'I' for Inactive)
REMARK    1  A    between atoms: N_6  and  C_10 
REMARK    2  A    between atoms: S_7  and  C_12 
REMARK    3  A    between atoms: C_8  and  C_9 
REMARK    4  A    between atoms: C_9  and  C_17 
REMARK    5  A    between atoms: C_9  and  N_14 
REMARK    6  A    between atoms: C_10  and  C_18 
REMARK    7  A    between atoms: C_10  and  C_11 
REMARK    8  A    between atoms: C_11  and  C_12 
REMARK    9  A    between atoms: O_13  and  C_17 
REMARK       I    between atoms: N_14  and  C_18 
ROOT
HETATM    1  H           1     -21.541  -4.618  -4.672  0.00  0.00     0.163 HD
HETATM    2  N           1     -21.579  -5.504  -5.160  0.00  0.00    -0.343 N 
HETATM    3  C           1     -21.524  -6.676  -4.455  0.00  0.00     0.249 C 
HETATM    4  O           1     -21.570  -7.734  -5.038  0.00  0.00    -0.271 OA
ENDROOT
BRANCH   3   5
HETATM    5  C           1     -21.408  -6.648  -2.951  0.00  0.00     0.275 C 
BRANCH   5   6
HETATM    6  N           1     -22.533  -5.841  -2.378  0.00  0.00    -0.066 N 
HETATM    7  H           1     -22.635  -6.058  -1.361  0.00  0.00     0.275 HD
HETATM    8  H           1     -22.329  -4.823  -2.498  0.00  0.00     0.275 HD
HETATM    9  H           1     -23.421  -6.078  -2.876  0.00  0.00     0.275 HD
ENDBRANCH   5   6
BRANCH   5  10
HETATM   10  C           1     -21.476  -8.070  -2.409  0.00  0.00     0.053 C 
BRANCH  10  11
HETATM   11  C           1     -20.738  -8.142  -1.078  0.00  0.00     0.076 C 
BRANCH  11  12
HETATM   12  S           1     -21.624  -9.262   0.044  0.00  0.00    -0.173 SA
HETATM   13  C           1     -23.013  -8.145   0.384  0.00  0.00     0.089 C 
ENDBRANCH  11  12
ENDBRANCH  10  11
ENDBRANCH   5  10
ENDBRANCH   3   5
BRANCH   2  14
HETATM   14  C           1     -21.692  -5.531  -6.605  0.00  0.00     0.214 C 
BRANCH  14  15
HETATM   15  C           1     -20.322  -5.371  -7.218  0.00  0.00     0.199 C 
HETATM   16  O           1     -19.751  -6.355  -7.737  0.00  0.00    -0.646 OA
HETATM   17  O           1     -19.758  -4.256  -7.208  0.00  0.00    -0.646 OA
ENDBRANCH  14  15
BRANCH  14  18
HETATM   18  C           1     -22.590  -4.390  -7.065  0.00  0.00     0.147 C 
HETATM   19  C           1     -22.673  -4.392  -8.585  0.00  0.00     0.042 C 
BRANCH  18  20
HETATM   20  O           1     -23.873  -4.561  -6.526  0.00  0.00    -0.393 OA
HETATM   21  H           1     -23.888  -5.409  -6.116  0.00  0.00     0.210 HD
ENDBRANCH  18  20
ENDBRANCH  14  18
ENDBRANCH   2  14
TORSDOF 9
ENDMDL
MODEL 7
REMARK VINA RESULT:      -4.8      3.632      6.579
REMARK  9 active torsions:
REMARK  status: ('A' for Active; 'I' for Inactive)
REMARK    1  A    between atoms: N_6  and  C_10 
REMARK    2  A    between atoms: S_7  and  C_12 
REMARK    3  A    between atoms: C_8  and  C_9 
REMARK    4  A    between atoms: C_9  and  C_17 
REMARK    5  A    between atoms: C_9  and  N_14 
REMARK    6  A    between atoms: C_10  and  C_18 
REMARK    7  A    between atoms: C_10  and  C_11 
REMARK    8  A    between atoms: C_11  and  C_12 
REMARK    9  A    between atoms: O_13  and  C_17 
REMARK       I    between atoms: N_14  and  C_18 
ROOT
HETATM    1  H           1     -19.739  -6.415  -4.674  0.00  0.00     0.163 HD
HETATM    2  N           1     -20.747  -6.434  -4.765  0.00  0.00    -0.343 N 
HETATM    3  C           1     -21.373  -5.564  -5.617  0.00  0.00     0.249 C 
HETATM    4  O           1     -22.576  -5.587  -5.725  0.00  0.00    -0.271 OA
ENDROOT
BRANCH   3   5
HETATM    5  C           1     -20.562  -4.579  -6.420  0.00  0.00     0.275 C 
BRANCH   5   6
HETATM    6  N           1     -19.459  -5.302  -7.132  0.00  0.00    -0.066 N 
HETATM    7  H           1     -18.813  -5.730  -6.430  0.00  0.00     0.275 HD
HETATM    8  H           1     -19.865  -6.053  -7.735  0.00  0.00     0.275 HD
HETATM    9  H           1     -18.928  -4.628  -7.728  0.00  0.00     0.275 HD
ENDBRANCH   5   6
BRANCH   5  10
HETATM   10  C           1     -21.461  -3.894  -7.442  0.00  0.00     0.053 C 
BRANCH  10  11
HETATM   11  C           1     -20.924  -4.151  -8.844  0.00  0.00     0.076 C 
BRANCH  11  12
HETATM   12  S           1     -22.290  -4.078 -10.038  0.00  0.00    -0.173 SA
HETATM   13  C           1     -23.625  -4.023  -8.810  0.00  0.00     0.089 C 
ENDBRANCH  11  12
ENDBRANCH  10  11
ENDBRANCH   5  10
ENDBRANCH   3   5
BRANCH   2  14
HETATM   14  C           1     -21.525  -7.382  -3.993  0.00  0.00     0.214 C 
BRANCH  14  15
HETATM   15  C           1     -21.669  -6.878  -2.577  0.00  0.00     0.199 C 
HETATM   16  O           1     -21.004  -7.401  -1.656  0.00  0.00    -0.646 OA
HETATM   17  O           1     -22.453  -5.937  -2.325  0.00  0.00    -0.646 OA
ENDBRANCH  14  15
BRANCH  14  18
HETATM   18  C           1     -20.819  -8.730  -3.983  0.00  0.00     0.147 C 
HETATM   19  C           1     -21.143  -9.483  -5.266  0.00  0.00     0.042 C 
BRANCH  18  20
HETATM   20  O           1     -19.434  -8.531  -3.895  0.00  0.00    -0.393 OA
HETATM   21  H           1     -19.293  -7.600  -3.856  0.00  0.00     0.210 HD
ENDBRANCH  18  20
ENDBRANCH  14  18
ENDBRANCH   2  14
TORSDOF 9
ENDMDL
MODEL 8
REMARK VINA RESULT:      -4.8      2.379      3.359
REMARK  9 active torsions:
REMARK  status: ('A' for Active; 'I' for Inactive)
REMARK    1  A    between atoms: N_6  and  C_10 
REMARK    2  A    between atoms: S_7  and  C_12 
REMARK    3  A    between atoms: C_8  and  C_9 
REMARK    4  A    between atoms: C_9  and  C_17 
REMARK    5  A    between atoms: C_9  and  N_14 
REMARK    6  A    between atoms: C_10  and  C_18 
REMARK    7  A    between atoms: C_10  and  C_11 
REMARK    8  A    between atoms: C_11  and  C_12 
REMARK    9  A    between atoms: O_13  and  C_17 
REMARK       I    between atoms: N_14  and  C_18 
ROOT
HETATM    1  H           1     -22.295  -4.064  -6.694  0.00  0.00     0.163 HD
HETATM    2  N           1     -21.879  -4.832  -7.206  0.00  0.00    -0.343 N 
HETATM    3  C           1     -21.379  -5.912  -6.529  0.00  0.00     0.249 C 
HETATM    4  O           1     -20.882  -6.829  -7.140  0.00  0.00    -0.271 OA
ENDROOT
BRANCH   3   5
HETATM    5  C           1     -21.447  -5.957  -5.023  0.00  0.00     0.275 C 
BRANCH   5   6
HETATM    6  N           1     -22.858  -6.230  -4.595  0.00  0.00    -0.066 N 
HETATM    7  H           1     -22.940  -6.100  -3.561  0.00  0.00     0.275 HD
HETATM    8  H           1     -23.504  -5.568  -5.081  0.00  0.00     0.275 HD
HETATM    9  H           1     -23.114  -7.212  -4.845  0.00  0.00     0.275 HD
ENDBRANCH   5   6
BRANCH   5  10
HETATM   10  C           1     -20.538  -7.065  -4.506  0.00  0.00     0.053 C 
BRANCH  10  11
HETATM   11  C           1     -21.386  -8.207  -3.963  0.00  0.00     0.076 C 
BRANCH  11  12
HETATM   12  S           1     -21.011  -9.729  -4.880  0.00  0.00    -0.173 SA
HETATM   13  C           1     -19.237  -9.405  -5.085  0.00  0.00     0.089 C 
ENDBRANCH  11  12
ENDBRANCH  10  11
ENDBRANCH   5  10
ENDBRANCH   3   5
BRANCH   2  14
HETATM   14  C           1     -21.815  -4.788  -8.653  0.00  0.00     0.214 C 
BRANCH  14  15
HETATM   15  C           1     -20.573  -4.040  -9.077  0.00  0.00     0.199 C 
HETATM   16  O           1     -19.716  -3.719  -8.226  0.00  0.00    -0.646 OA
HETATM   17  O           1     -20.403  -3.743 -10.279  0.00  0.00    -0.646 OA
ENDBRANCH  14  15
BRANCH  14  18
HETATM   18  C           1     -23.047  -4.076  -9.195  0.00  0.00     0.147 C 
HETATM   19  C           1     -23.662  -4.907 -10.313  0.00  0.00     0.042 C 
BRANCH  18  20
HETATM   20  O           1     -23.983  -3.914  -8.164  0.00  0.00    -0.393 OA
HETATM   21  H           1     -23.502  -3.920  -7.354  0.00  0.00     0.210 HD
ENDBRANCH  18  20
ENDBRANCH  14  18
ENDBRANCH   2  14
TORSDOF 9
ENDMDL
MODEL 9
REMARK VINA RESULT:      -4.7      5.627      8.293
REMARK  9 active torsions:
REMARK  status: ('A' for Active; 'I' for Inactive)
REMARK    1  A    between atoms: N_6  and  C_10 
REMARK    2  A    between atoms: S_7  and  C_12 
REMARK    3  A    between atoms: C_8  and  C_9 
REMARK    4  A    between atoms: C_9  and  C_17 
REMARK    5  A    between atoms: C_9  and  N_14 
REMARK    6  A    between atoms: C_10  and  C_18 
REMARK    7  A    between atoms: C_10  and  C_11 
REMARK    8  A    between atoms: C_11  and  C_12 
REMARK    9  A    between atoms: O_13  and  C_17 
REMARK       I    between atoms: N_14  and  C_18 
ROOT
HETATM    1  H           1     -22.139  -7.951  -3.058  0.00  0.00     0.163 HD
HETATM    2  N           1     -21.292  -8.342  -2.666  0.00  0.00    -0.343 N 
HETATM    3  C           1     -20.215  -8.589  -3.474  0.00  0.00     0.249 C 
HETATM    4  O           1     -19.204  -9.056  -3.005  0.00  0.00    -0.271 OA
ENDROOT
BRANCH   3   5
HETATM    5  C           1     -20.290  -8.279  -4.948  0.00  0.00     0.275 C 
BRANCH   5   6
HETATM    6  N           1     -20.736  -9.500  -5.694  0.00  0.00    -0.066 N 
HETATM    7  H           1     -21.683  -9.788  -5.358  0.00  0.00     0.275 HD
HETATM    8  H           1     -20.779  -9.288  -6.716  0.00  0.00     0.275 HD
HETATM    9  H           1     -20.056 -10.277  -5.528  0.00  0.00     0.275 HD
ENDBRANCH   5   6
BRANCH   5  10
HETATM   10  C           1     -21.288  -7.151  -5.180  0.00  0.00     0.053 C 
BRANCH  10  11
HETATM   11  C           1     -20.915  -6.395  -6.448  0.00  0.00     0.076 C 
BRANCH  11  12
HETATM   12  S           1     -20.198  -4.786  -6.005  0.00  0.00    -0.173 SA
HETATM   13  C           1     -21.235  -3.794  -7.115  0.00  0.00     0.089 C 
ENDBRANCH  11  12
ENDBRANCH  10  11
ENDBRANCH   5  10
ENDBRANCH   3   5
BRANCH   2  14
HETATM   14  C           1     -21.220  -8.640  -1.249  0.00  0.00     0.214 C 
BRANCH  14  15
HETATM   15  C           1     -21.894  -9.964  -0.979  0.00  0.00     0.199 C 
HETATM   16  O           1     -21.606 -10.613   0.050  0.00  0.00    -0.646 OA
HETATM   17  O           1     -22.739 -10.410  -1.784  0.00  0.00    -0.646 OA
ENDBRANCH  14  15
BRANCH  14  18
HETATM   18  C           1     -21.924  -7.541  -0.463  0.00  0.00     0.147 C 
HETATM   19  C           1     -22.315  -6.413  -1.408  0.00  0.00     0.042 C 
BRANCH  18  20
HETATM   20  O           1     -23.075  -8.065   0.141  0.00  0.00    -0.393 OA
HETATM   21  H           1     -22.996  -9.004   0.114  0.00  0.00     0.210 HD
ENDBRANCH  18  20
ENDBRANCH  14  18
ENDBRANCH   2  14
TORSDOF 9
ENDMDL
