MODEL 1
REMARK VINA RESULT:      -6.2      0.000      0.000
REMARK  12 active torsions:
REMARK  status: ('A' for Active; 'I' for Inactive)
REMARK    1  A    between atoms: N_1  and  C_21 
REMARK       I    between atoms: N_1  and  C_12 
REMARK    2  A    between atoms: N_6  and  C_11 
REMARK    3  A    between atoms: C_8  and  C_17 
REMARK    4  A    between atoms: C_8  and  C_23 
REMARK    5  A    between atoms: C_10  and  C_11 
REMARK    6  A    between atoms: C_10  and  C_17 
REMARK    7  A    between atoms: C_11  and  C_12 
REMARK    8  A    between atoms: N_13  and  C_23 
REMARK    9  A    between atoms: S_18  and  C_19 
REMARK   10  A    between atoms: C_19  and  C_20 
REMARK   11  A    between atoms: C_20  and  C_21 
REMARK   12  A    between atoms: C_21  and  C_22 
ROOT
HETATM    1  C           1     -33.271  -3.079 -11.541  0.00  0.00     0.274 C 
ENDROOT
BRANCH   1   2
HETATM    2  N           1     -33.723  -2.698 -10.163  0.00  0.00    -0.067 N 
HETATM    3  H           1     -33.313  -3.359  -9.466  0.00  0.00     0.275 HD
HETATM    4  H           1     -33.406  -1.726  -9.949  0.00  0.00     0.275 HD
HETATM    5  H           1     -34.767  -2.743 -10.114  0.00  0.00     0.275 HD
ENDBRANCH   1   2
BRANCH   1   6
HETATM    6  C           1     -33.174  -4.595 -11.642  0.00  0.00     0.042 C 
BRANCH   6   7
HETATM    7  C           1     -33.989  -5.232 -10.525  0.00  0.00     0.004 C 
BRANCH   7   8
HETATM    8  C           1     -34.605  -6.533 -11.022  0.00  0.00     0.027 C 
BRANCH   8   9
HETATM    9  C           1     -34.681  -7.531  -9.874  0.00  0.00     0.229 C 
BRANCH   9  10
HETATM   10  N           1     -33.818  -8.719 -10.185  0.00  0.00    -0.079 N 
HETATM   11  H           1     -34.033  -9.491  -9.515  0.00  0.00     0.274 HD
HETATM   12  H           1     -34.008  -9.041 -11.161  0.00  0.00     0.274 HD
HETATM   13  H           1     -32.812  -8.450 -10.097  0.00  0.00     0.274 HD
ENDBRANCH   9  10
ENDBRANCH   8   9
ENDBRANCH   7   8
ENDBRANCH   6   7
ENDBRANCH   1   6
BRANCH   1  14
HETATM   14  C           1     -34.264  -2.568 -12.556  0.00  0.00     0.249 C 
HETATM   15  N           1     -34.846  -1.340 -12.387  0.00  0.00    -0.345 N 
HETATM   16  H           1     -34.610  -0.775 -11.581  0.00  0.00     0.163 HD
HETATM   17  O           1     -34.546  -3.243 -13.517  0.00  0.00    -0.271 OA
BRANCH  15  18
HETATM   18  C           1     -35.802  -0.850 -13.361  0.00  0.00     0.186 C 
BRANCH  18  19
HETATM   19  C           1     -36.932  -0.126 -12.643  0.00  0.00     0.046 C 
BRANCH  19  20
HETATM   20  C           1     -36.565   0.063 -11.178  0.00  0.00     0.076 C 
BRANCH  20  21
HETATM   21  S           1     -38.074   0.068 -10.170  0.00  0.00    -0.173 SA
HETATM   22  C           1     -37.459   1.205  -8.896  0.00  0.00     0.089 C 
ENDBRANCH  20  21
ENDBRANCH  19  20
ENDBRANCH  18  19
BRANCH  18  23
HETATM   23  C           1     -35.111   0.104 -14.305  0.00  0.00     0.196 C 
HETATM   24  O           1     -34.586   1.148 -13.863  0.00  0.00    -0.646 OA
HETATM   25  O           1     -35.064  -0.150 -15.528  0.00  0.00    -0.646 OA
ENDBRANCH  18  23
ENDBRANCH  15  18
ENDBRANCH   1  14
TORSDOF 12
ENDMDL
MODEL 2
REMARK VINA RESULT:      -6.0     12.606     14.034
REMARK  12 active torsions:
REMARK  status: ('A' for Active; 'I' for Inactive)
REMARK    1  A    between atoms: N_1  and  C_21 
REMARK       I    between atoms: N_1  and  C_12 
REMARK    2  A    between atoms: N_6  and  C_11 
REMARK    3  A    between atoms: C_8  and  C_17 
REMARK    4  A    between atoms: C_8  and  C_23 
REMARK    5  A    between atoms: C_10  and  C_11 
REMARK    6  A    between atoms: C_10  and  C_17 
REMARK    7  A    between atoms: C_11  and  C_12 
REMARK    8  A    between atoms: N_13  and  C_23 
REMARK    9  A    between atoms: S_18  and  C_19 
REMARK   10  A    between atoms: C_19  and  C_20 
REMARK   11  A    between atoms: C_20  and  C_21 
REMARK   12  A    between atoms: C_21  and  C_22 
ROOT
HETATM    1  C           1     -21.134  -5.824  -6.979  0.00  0.00     0.274 C 
ENDROOT
BRANCH   1   2
HETATM    2  N           1     -19.731  -6.117  -7.419  0.00  0.00    -0.067 N 
HETATM    3  H           1     -19.712  -6.257  -8.455  0.00  0.00     0.275 HD
HETATM    4  H           1     -19.112  -5.314  -7.166  0.00  0.00     0.275 HD
HETATM    5  H           1     -19.390  -6.984  -6.944  0.00  0.00     0.275 HD
ENDBRANCH   1   2
BRANCH   1   6
HETATM    6  C           1     -21.135  -5.449  -5.502  0.00  0.00     0.042 C 
BRANCH   6   7
HETATM    7  C           1     -21.918  -6.490  -4.714  0.00  0.00     0.004 C 
BRANCH   7   8
HETATM    8  C           1     -21.027  -7.085  -3.632  0.00  0.00     0.027 C 
BRANCH   8   9
HETATM    9  C           1     -21.788  -7.126  -2.313  0.00  0.00     0.229 C 
BRANCH   9  10
HETATM   10  N           1     -22.268  -5.747  -1.969  0.00  0.00    -0.079 N 
HETATM   11  H           1     -22.894  -5.794  -1.133  0.00  0.00     0.274 HD
HETATM   12  H           1     -21.448  -5.135  -1.756  0.00  0.00     0.274 HD
HETATM   13  H           1     -22.797  -5.351  -2.778  0.00  0.00     0.274 HD
ENDBRANCH   9  10
ENDBRANCH   8   9
ENDBRANCH   7   8
ENDBRANCH   6   7
ENDBRANCH   1   6
BRANCH   1  14
HETATM   14  C           1     -21.687  -4.679  -7.789  0.00  0.00     0.249 C 
HETATM   15  N           1     -22.269  -4.919  -9.006  0.00  0.00    -0.345 N 
HETATM   16  H           1     -22.328  -5.864  -9.361  0.00  0.00     0.163 HD
HETATM   17  O           1     -21.617  -3.549  -7.366  0.00  0.00    -0.271 OA
BRANCH  15  18
HETATM   18  C           1     -22.800  -3.817  -9.786  0.00  0.00     0.186 C 
BRANCH  18  19
HETATM   19  C           1     -22.360  -3.965 -11.236  0.00  0.00     0.046 C 
BRANCH  19  20
HETATM   20  C           1     -22.468  -2.620 -11.940  0.00  0.00     0.076 C 
BRANCH  20  21
HETATM   21  S           1     -23.859  -2.656 -13.106  0.00  0.00    -0.173 SA
HETATM   22  C           1     -22.853  -2.772 -14.612  0.00  0.00     0.089 C 
ENDBRANCH  20  21
ENDBRANCH  19  20
ENDBRANCH  18  19
BRANCH  18  23
HETATM   23  C           1     -24.307  -3.831  -9.712  0.00  0.00     0.196 C 
HETATM   24  O           1     -24.931  -2.772  -9.488  0.00  0.00    -0.646 OA
HETATM   25  O           1     -24.931  -4.902  -9.876  0.00  0.00    -0.646 OA
ENDBRANCH  18  23
ENDBRANCH  15  18
ENDBRANCH   1  14
TORSDOF 12
ENDMDL
MODEL 3
REMARK VINA RESULT:      -5.8      4.681      6.207
REMARK  12 active torsions:
REMARK  status: ('A' for Active; 'I' for Inactive)
REMARK    1  A    between atoms: N_1  and  C_21 
REMARK       I    between atoms: N_1  and  C_12 
REMARK    2  A    between atoms: N_6  and  C_11 
REMARK    3  A    between atoms: C_8  and  C_17 
REMARK    4  A    between atoms: C_8  and  C_23 
REMARK    5  A    between atoms: C_10  and  C_11 
REMARK    6  A    between atoms: C_10  and  C_17 
REMARK    7  A    between atoms: C_11  and  C_12 
REMARK    8  A    between atoms: N_13  and  C_23 
REMARK    9  A    between atoms: S_18  and  C_19 
REMARK   10  A    between atoms: C_19  and  C_20 
REMARK   11  A    between atoms: C_20  and  C_21 
REMARK   12  A    between atoms: C_21  and  C_22 
ROOT
HETATM    1  C           1     -33.169  -4.469 -16.741  0.00  0.00     0.274 C 
ENDROOT
BRANCH   1   2
HETATM    2  N           1     -33.301  -3.100 -17.338  0.00  0.00    -0.067 N 
HETATM    3  H           1     -34.313  -2.847 -17.410  0.00  0.00     0.275 HD
HETATM    4  H           1     -32.812  -2.406 -16.730  0.00  0.00     0.275 HD
HETATM    5  H           1     -32.871  -3.093 -18.291  0.00  0.00     0.275 HD
ENDBRANCH   1   2
BRANCH   1   6
HETATM    6  C           1     -31.698  -4.771 -16.484  0.00  0.00     0.042 C 
BRANCH   6   7
HETATM    7  C           1     -31.289  -6.008 -17.272  0.00  0.00     0.004 C 
BRANCH   7   8
HETATM    8  C           1     -29.893  -6.443 -16.845  0.00  0.00     0.027 C 
BRANCH   8   9
HETATM    9  C           1     -29.124  -6.946 -18.060  0.00  0.00     0.229 C 
BRANCH   9  10
HETATM   10  N           1     -29.706  -8.251 -18.517  0.00  0.00    -0.079 N 
HETATM   11  H           1     -30.083  -8.771 -17.693  0.00  0.00     0.274 HD
HETATM   12  H           1     -30.478  -8.069 -19.197  0.00  0.00     0.274 HD
HETATM   13  H           1     -28.962  -8.821 -18.978  0.00  0.00     0.274 HD
ENDBRANCH   9  10
ENDBRANCH   8   9
ENDBRANCH   7   8
ENDBRANCH   6   7
ENDBRANCH   1   6
BRANCH   1  14
HETATM   14  C           1     -33.929  -4.525 -15.439  0.00  0.00     0.249 C 
HETATM   15  N           1     -33.373  -4.009 -14.298  0.00  0.00    -0.345 N 
HETATM   16  H           1     -32.452  -3.590 -14.329  0.00  0.00     0.163 HD
HETATM   17  O           1     -35.028  -5.026 -15.402  0.00  0.00    -0.271 OA
BRANCH  15  18
HETATM   18  C           1     -34.103  -4.064 -13.046  0.00  0.00     0.186 C 
BRANCH  18  19
HETATM   19  C           1     -33.120  -4.214 -11.893  0.00  0.00     0.046 C 
BRANCH  19  20
HETATM   20  C           1     -33.216  -5.621 -11.321  0.00  0.00     0.076 C 
BRANCH  20  21
HETATM   21  S           1     -34.767  -5.794 -10.394  0.00  0.00    -0.173 SA
HETATM   22  C           1     -34.667  -7.593 -10.173  0.00  0.00     0.089 C 
ENDBRANCH  20  21
ENDBRANCH  19  20
ENDBRANCH  18  19
BRANCH  18  23
HETATM   23  C           1     -34.896  -2.792 -12.871  0.00  0.00     0.196 C 
HETATM   24  O           1     -34.800  -1.876 -13.715  0.00  0.00    -0.646 OA
HETATM   25  O           1     -35.648  -2.656 -11.882  0.00  0.00    -0.646 OA
ENDBRANCH  18  23
ENDBRANCH  15  18
ENDBRANCH   1  14
TORSDOF 12
ENDMDL
MODEL 4
REMARK VINA RESULT:      -5.7      3.141      6.691
REMARK  12 active torsions:
REMARK  status: ('A' for Active; 'I' for Inactive)
REMARK    1  A    between atoms: N_1  and  C_21 
REMARK       I    between atoms: N_1  and  C_12 
REMARK    2  A    between atoms: N_6  and  C_11 
REMARK    3  A    between atoms: C_8  and  C_17 
REMARK    4  A    between atoms: C_8  and  C_23 
REMARK    5  A    between atoms: C_10  and  C_11 
REMARK    6  A    between atoms: C_10  and  C_17 
REMARK    7  A    between atoms: C_11  and  C_12 
REMARK    8  A    between atoms: N_13  and  C_23 
REMARK    9  A    between atoms: S_18  and  C_19 
REMARK   10  A    between atoms: C_19  and  C_20 
REMARK   11  A    between atoms: C_20  and  C_21 
REMARK   12  A    between atoms: C_21  and  C_22 
ROOT
HETATM    1  C           1     -36.417  -0.594 -11.344  0.00  0.00     0.274 C 
ENDROOT
BRANCH   1   2
HETATM    2  N           1     -36.182   0.618 -10.495  0.00  0.00    -0.067 N 
HETATM    3  H           1     -36.014   0.325  -9.505  0.00  0.00     0.275 HD
HETATM    4  H           1     -35.347   1.136 -10.850  0.00  0.00     0.275 HD
HETATM    5  H           1     -37.022   1.240 -10.535  0.00  0.00     0.275 HD
ENDBRANCH   1   2
BRANCH   1   6
HETATM    6  C           1     -36.261  -0.223 -12.813  0.00  0.00     0.042 C 
BRANCH   6   7
HETATM    7  C           1     -34.974   0.568 -13.003  0.00  0.00     0.004 C 
BRANCH   7   8
HETATM    8  C           1     -34.752   0.829 -14.487  0.00  0.00     0.027 C 
BRANCH   8   9
HETATM    9  C           1     -36.085   0.759 -15.221  0.00  0.00     0.229 C 
BRANCH   9  10
HETATM   10  N           1     -36.265   1.996 -16.050  0.00  0.00    -0.079 N 
HETATM   11  H           1     -35.881   1.832 -17.008  0.00  0.00     0.274 HD
HETATM   12  H           1     -37.283   2.225 -16.118  0.00  0.00     0.274 HD
HETATM   13  H           1     -35.758   2.792 -15.602  0.00  0.00     0.274 HD
ENDBRANCH   9  10
ENDBRANCH   8   9
ENDBRANCH   7   8
ENDBRANCH   6   7
ENDBRANCH   1   6
BRANCH   1  14
HETATM   14  C           1     -35.414  -1.662 -10.985  0.00  0.00     0.249 C 
HETATM   15  N           1     -35.388  -2.840 -11.684  0.00  0.00    -0.345 N 
HETATM   16  H           1     -36.041  -2.994 -12.441  0.00  0.00     0.163 HD
HETATM   17  O           1     -34.633  -1.479 -10.081  0.00  0.00    -0.271 OA
BRANCH  15  18
HETATM   18  C           1     -34.424  -3.867 -11.338  0.00  0.00     0.186 C 
BRANCH  18  19
HETATM   19  C           1     -35.135  -5.208 -11.213  0.00  0.00     0.046 C 
BRANCH  19  20
HETATM   20  C           1     -34.143  -6.269 -10.758  0.00  0.00     0.076 C 
BRANCH  20  21
HETATM   21  S           1     -34.987  -7.467  -9.686  0.00  0.00    -0.173 SA
HETATM   22  C           1     -33.798  -8.818  -9.924  0.00  0.00     0.089 C 
ENDBRANCH  20  21
ENDBRANCH  19  20
ENDBRANCH  18  19
BRANCH  18  23
HETATM   23  C           1     -33.373  -3.953 -12.418  0.00  0.00     0.196 C 
HETATM   24  O           1     -33.702  -3.850 -13.619  0.00  0.00    -0.646 OA
HETATM   25  O           1     -32.174  -4.127 -12.111  0.00  0.00    -0.646 OA
ENDBRANCH  18  23
ENDBRANCH  15  18
ENDBRANCH   1  14
TORSDOF 12
ENDMDL
MODEL 5
REMARK VINA RESULT:      -5.5     13.233     15.182
REMARK  12 active torsions:
REMARK  status: ('A' for Active; 'I' for Inactive)
REMARK    1  A    between atoms: N_1  and  C_21 
REMARK       I    between atoms: N_1  and  C_12 
REMARK    2  A    between atoms: N_6  and  C_11 
REMARK    3  A    between atoms: C_8  and  C_17 
REMARK    4  A    between atoms: C_8  and  C_23 
REMARK    5  A    between atoms: C_10  and  C_11 
REMARK    6  A    between atoms: C_10  and  C_17 
REMARK    7  A    between atoms: C_11  and  C_12 
REMARK    8  A    between atoms: N_13  and  C_23 
REMARK    9  A    between atoms: S_18  and  C_19 
REMARK   10  A    between atoms: C_19  and  C_20 
REMARK   11  A    between atoms: C_20  and  C_21 
REMARK   12  A    between atoms: C_21  and  C_22 
ROOT
HETATM    1  C           1     -23.729  -4.423  -8.926  0.00  0.00     0.274 C 
ENDROOT
BRANCH   1   2
HETATM    2  N           1     -24.574  -3.185  -8.943  0.00  0.00    -0.067 N 
HETATM    3  H           1     -25.065  -3.110  -9.863  0.00  0.00     0.275 HD
HETATM    4  H           1     -25.281  -3.235  -8.175  0.00  0.00     0.275 HD
HETATM    5  H           1     -23.966  -2.346  -8.804  0.00  0.00     0.275 HD
ENDBRANCH   1   2
BRANCH   1   6
HETATM    6  C           1     -23.400  -4.834 -10.356  0.00  0.00     0.042 C 
BRANCH   6   7
HETATM    7  C           1     -23.897  -3.763 -11.318  0.00  0.00     0.004 C 
BRANCH   7   8
HETATM    8  C           1     -22.763  -3.350 -12.247  0.00  0.00     0.027 C 
BRANCH   8   9
HETATM    9  C           1     -21.484  -4.070 -11.841  0.00  0.00     0.229 C 
BRANCH   9  10
HETATM   10  N           1     -20.447  -3.061 -11.441  0.00  0.00    -0.079 N 
HETATM   11  H           1     -19.894  -2.779 -12.281  0.00  0.00     0.274 HD
HETATM   12  H           1     -20.917  -2.221 -11.034  0.00  0.00     0.274 HD
HETATM   13  H           1     -19.809  -3.482 -10.729  0.00  0.00     0.274 HD
ENDBRANCH   9  10
ENDBRANCH   8   9
ENDBRANCH   7   8
ENDBRANCH   6   7
ENDBRANCH   1   6
BRANCH   1  14
HETATM   14  C           1     -22.450  -4.149  -8.175  0.00  0.00     0.249 C 
HETATM   15  N           1     -22.086  -4.951  -7.126  0.00  0.00    -0.345 N 
HETATM   16  H           1     -22.676  -5.728  -6.855  0.00  0.00     0.163 HD
HETATM   17  O           1     -21.746  -3.222  -8.498  0.00  0.00    -0.271 OA
BRANCH  15  18
HETATM   18  C           1     -20.857  -4.687  -6.402  0.00  0.00     0.186 C 
BRANCH  18  19
HETATM   19  C           1     -20.902  -5.390  -5.052  0.00  0.00     0.046 C 
BRANCH  19  20
HETATM   20  C           1     -22.073  -6.363  -5.025  0.00  0.00     0.076 C 
BRANCH  20  21
HETATM   21  S           1     -21.448  -8.061  -4.894  0.00  0.00    -0.173 SA
HETATM   22  C           1     -21.339  -8.094  -3.082  0.00  0.00     0.089 C 
ENDBRANCH  20  21
ENDBRANCH  19  20
ENDBRANCH  18  19
BRANCH  18  23
HETATM   23  C           1     -19.684  -5.203  -7.200  0.00  0.00     0.196 C 
HETATM   24  O           1     -19.685  -6.379  -7.621  0.00  0.00    -0.646 OA
HETATM   25  O           1     -18.714  -4.453  -7.440  0.00  0.00    -0.646 OA
ENDBRANCH  18  23
ENDBRANCH  15  18
ENDBRANCH   1  14
TORSDOF 12
ENDMDL
MODEL 6
REMARK VINA RESULT:      -5.5     14.285     16.301
REMARK  12 active torsions:
REMARK  status: ('A' for Active; 'I' for Inactive)
REMARK    1  A    between atoms: N_1  and  C_21 
REMARK       I    between atoms: N_1  and  C_12 
REMARK    2  A    between atoms: N_6  and  C_11 
REMARK    3  A    between atoms: C_8  and  C_17 
REMARK    4  A    between atoms: C_8  and  C_23 
REMARK    5  A    between atoms: C_10  and  C_11 
REMARK    6  A    between atoms: C_10  and  C_17 
REMARK    7  A    between atoms: C_11  and  C_12 
REMARK    8  A    between atoms: N_13  and  C_23 
REMARK    9  A    between atoms: S_18  and  C_19 
REMARK   10  A    between atoms: C_19  and  C_20 
REMARK   11  A    between atoms: C_20  and  C_21 
REMARK   12  A    between atoms: C_21  and  C_22 
ROOT
HETATM    1  C           1     -21.531  -4.726  -8.447  0.00  0.00     0.274 C 
ENDROOT
BRANCH   1   2
HETATM    2  N           1     -22.570  -3.663  -8.249  0.00  0.00    -0.067 N 
HETATM    3  H           1     -22.432  -3.210  -7.317  0.00  0.00     0.275 HD
HETATM    4  H           1     -22.481  -2.944  -9.002  0.00  0.00     0.275 HD
HETATM    5  H           1     -23.522  -4.095  -8.289  0.00  0.00     0.275 HD
ENDBRANCH   1   2
BRANCH   1   6
HETATM    6  C           1     -20.362  -4.152  -9.238  0.00  0.00     0.042 C 
BRANCH   6   7
HETATM    7  C           1     -20.586  -4.397 -10.724  0.00  0.00     0.004 C 
BRANCH   7   8
HETATM    8  C           1     -20.988  -3.092 -11.399  0.00  0.00     0.027 C 
BRANCH   8   9
HETATM    9  C           1     -22.184  -3.338 -12.309  0.00  0.00     0.229 C 
BRANCH   9  10
HETATM   10  N           1     -22.802  -4.665 -11.976  0.00  0.00    -0.079 N 
HETATM   11  H           1     -23.567  -4.874 -12.657  0.00  0.00     0.274 HD
HETATM   12  H           1     -22.073  -5.412 -12.032  0.00  0.00     0.274 HD
HETATM   13  H           1     -23.194  -4.633 -11.009  0.00  0.00     0.274 HD
ENDBRANCH   9  10
ENDBRANCH   8   9
ENDBRANCH   7   8
ENDBRANCH   6   7
ENDBRANCH   1   6
BRANCH   1  14
HETATM   14  C           1     -21.042  -5.208  -7.104  0.00  0.00     0.249 C 
HETATM   15  N           1     -21.237  -6.512  -6.732  0.00  0.00    -0.345 N 
HETATM   16  H           1     -21.710  -7.151  -7.358  0.00  0.00     0.163 HD
HETATM   17  O           1     -20.478  -4.444  -6.357  0.00  0.00    -0.271 OA
BRANCH  15  18
HETATM   18  C           1     -20.768  -6.975  -5.440  0.00  0.00     0.186 C 
BRANCH  18  19
HETATM   19  C           1     -21.919  -6.947  -4.443  0.00  0.00     0.046 C 
BRANCH  19  20
HETATM   20  C           1     -21.447  -6.317  -3.139  0.00  0.00     0.076 C 
BRANCH  20  21
HETATM   21  S           1     -21.136  -7.621  -1.915  0.00  0.00    -0.173 SA
HETATM   22  C           1     -22.395  -7.079  -0.725  0.00  0.00     0.089 C 
ENDBRANCH  20  21
ENDBRANCH  19  20
ENDBRANCH  18  19
BRANCH  18  23
HETATM   23  C           1     -20.250  -8.387  -5.571  0.00  0.00     0.196 C 
HETATM   24  O           1     -19.022  -8.594  -5.671  0.00  0.00    -0.646 OA
HETATM   25  O           1     -21.049  -9.348  -5.579  0.00  0.00    -0.646 OA
ENDBRANCH  18  23
ENDBRANCH  15  18
ENDBRANCH   1  14
TORSDOF 12
ENDMDL
MODEL 7
REMARK VINA RESULT:      -5.3     10.680     12.153
REMARK  12 active torsions:
REMARK  status: ('A' for Active; 'I' for Inactive)
REMARK    1  A    between atoms: N_1  and  C_21 
REMARK       I    between atoms: N_1  and  C_12 
REMARK    2  A    between atoms: N_6  and  C_11 
REMARK    3  A    between atoms: C_8  and  C_17 
REMARK    4  A    between atoms: C_8  and  C_23 
REMARK    5  A    between atoms: C_10  and  C_11 
REMARK    6  A    between atoms: C_10  and  C_17 
REMARK    7  A    between atoms: C_11  and  C_12 
REMARK    8  A    between atoms: N_13  and  C_23 
REMARK    9  A    between atoms: S_18  and  C_19 
REMARK   10  A    between atoms: C_19  and  C_20 
REMARK   11  A    between atoms: C_20  and  C_21 
REMARK   12  A    between atoms: C_21  and  C_22 
ROOT
HETATM    1  C           1     -25.679  -6.512 -19.570  0.00  0.00     0.274 C 
ENDROOT
BRANCH   1   2
HETATM    2  N           1     -24.773  -7.203 -18.596  0.00  0.00    -0.067 N 
HETATM    3  H           1     -25.344  -7.785 -17.941  0.00  0.00     0.275 HD
HETATM    4  H           1     -24.106  -7.817 -19.115  0.00  0.00     0.275 HD
HETATM    5  H           1     -24.238  -6.489 -18.051  0.00  0.00     0.275 HD
ENDBRANCH   1   2
BRANCH   1   6
HETATM    6  C           1     -25.891  -7.404 -20.787  0.00  0.00     0.042 C 
BRANCH   6   7
HETATM    7  C           1     -24.618  -8.190 -21.069  0.00  0.00     0.004 C 
BRANCH   7   8
HETATM    8  C           1     -24.062  -7.787 -22.429  0.00  0.00     0.027 C 
BRANCH   8   9
HETATM    9  C           1     -22.767  -8.544 -22.693  0.00  0.00     0.229 C 
BRANCH   9  10
HETATM   10  N           1     -22.330  -9.241 -21.438  0.00  0.00    -0.079 N 
HETATM   11  H           1     -22.312 -10.273 -21.602  0.00  0.00     0.274 HD
HETATM   12  H           1     -21.373  -8.914 -21.174  0.00  0.00     0.274 HD
HETATM   13  H           1     -22.999  -9.021 -20.667  0.00  0.00     0.274 HD
ENDBRANCH   9  10
ENDBRANCH   8   9
ENDBRANCH   7   8
ENDBRANCH   6   7
ENDBRANCH   1   6
BRANCH   1  14
HETATM   14  C           1     -27.008  -6.234 -18.912  0.00  0.00     0.249 C 
HETATM   15  N           1     -27.259  -6.704 -17.651  0.00  0.00    -0.345 N 
HETATM   16  H           1     -26.553  -7.238 -17.159  0.00  0.00     0.163 HD
HETATM   17  O           1     -27.851  -5.598 -19.499  0.00  0.00    -0.271 OA
BRANCH  15  18
HETATM   18  C           1     -28.537  -6.438 -17.018  0.00  0.00     0.186 C 
BRANCH  18  19
HETATM   19  C           1     -29.548  -7.487 -17.460  0.00  0.00     0.046 C 
BRANCH  19  20
HETATM   20  C           1     -30.955  -6.914 -17.353  0.00  0.00     0.076 C 
BRANCH  20  21
HETATM   21  S           1     -30.906  -5.127 -17.666  0.00  0.00    -0.173 SA
HETATM   22  C           1     -32.397  -4.718 -16.715  0.00  0.00     0.089 C 
ENDBRANCH  20  21
ENDBRANCH  19  20
ENDBRANCH  18  19
BRANCH  18  23
HETATM   23  C           1     -28.375  -6.494 -15.518  0.00  0.00     0.196 C 
HETATM   24  O           1     -27.911  -7.520 -14.978  0.00  0.00    -0.646 OA
HETATM   25  O           1     -28.706  -5.513 -14.818  0.00  0.00    -0.646 OA
ENDBRANCH  18  23
ENDBRANCH  15  18
ENDBRANCH   1  14
TORSDOF 12
ENDMDL
MODEL 8
REMARK VINA RESULT:      -5.2     14.534     16.707
REMARK  12 active torsions:
REMARK  status: ('A' for Active; 'I' for Inactive)
REMARK    1  A    between atoms: N_1  and  C_21 
REMARK       I    between atoms: N_1  and  C_12 
REMARK    2  A    between atoms: N_6  and  C_11 
REMARK    3  A    between atoms: C_8  and  C_17 
REMARK    4  A    between atoms: C_8  and  C_23 
REMARK    5  A    between atoms: C_10  and  C_11 
REMARK    6  A    between atoms: C_10  and  C_17 
REMARK    7  A    between atoms: C_11  and  C_12 
REMARK    8  A    between atoms: N_13  and  C_23 
REMARK    9  A    between atoms: S_18  and  C_19 
REMARK   10  A    between atoms: C_19  and  C_20 
REMARK   11  A    between atoms: C_20  and  C_21 
REMARK   12  A    between atoms: C_21  and  C_22 
ROOT
HETATM    1  C           1     -20.868  -5.054  -6.575  0.00  0.00     0.274 C 
ENDROOT
BRANCH   1   2
HETATM    2  N           1     -20.187  -5.952  -7.564  0.00  0.00    -0.067 N 
HETATM    3  H           1     -19.300  -6.319  -7.149  0.00  0.00     0.275 HD
HETATM    4  H           1     -20.817  -6.752  -7.800  0.00  0.00     0.275 HD
HETATM    5  H           1     -19.968  -5.412  -8.432  0.00  0.00     0.275 HD
ENDBRANCH   1   2
BRANCH   1   6
HETATM    6  C           1     -21.837  -4.136  -7.307  0.00  0.00     0.042 C 
BRANCH   6   7
HETATM    7  C           1     -22.066  -4.659  -8.718  0.00  0.00     0.004 C 
BRANCH   7   8
HETATM    8  C           1     -22.992  -3.711  -9.469  0.00  0.00     0.027 C 
BRANCH   8   9
HETATM    9  C           1     -24.245  -4.462  -9.902  0.00  0.00     0.229 C 
BRANCH   9  10
HETATM   10  N           1     -25.446  -3.582  -9.714  0.00  0.00    -0.079 N 
HETATM   11  H           1     -26.164  -3.812 -10.438  0.00  0.00     0.274 HD
HETATM   12  H           1     -25.848  -3.739  -8.762  0.00  0.00     0.274 HD
HETATM   13  H           1     -25.162  -2.581  -9.810  0.00  0.00     0.274 HD
ENDBRANCH   9  10
ENDBRANCH   8   9
ENDBRANCH   7   8
ENDBRANCH   6   7
ENDBRANCH   1   6
BRANCH   1  14
HETATM   14  C           1     -21.626  -5.891  -5.574  0.00  0.00     0.249 C 
HETATM   15  N           1     -20.950  -6.745  -4.744  0.00  0.00    -0.345 N 
HETATM   16  H           1     -19.942  -6.815  -4.802  0.00  0.00     0.163 HD
HETATM   17  O           1     -22.830  -5.808  -5.505  0.00  0.00    -0.271 OA
BRANCH  15  18
HETATM   18  C           1     -21.679  -7.551  -3.783  0.00  0.00     0.186 C 
BRANCH  18  19
HETATM   19  C           1     -21.076  -8.948  -3.731  0.00  0.00     0.046 C 
BRANCH  19  20
HETATM   20  C           1     -20.655  -9.372  -5.132  0.00  0.00     0.076 C 
BRANCH  20  21
HETATM   21  S           1     -18.994 -10.102  -5.071  0.00  0.00    -0.173 SA
HETATM   22  C           1     -18.514  -9.370  -3.480  0.00  0.00     0.089 C 
ENDBRANCH  20  21
ENDBRANCH  19  20
ENDBRANCH  18  19
BRANCH  18  23
HETATM   23  C           1     -21.586  -6.911  -2.419  0.00  0.00     0.196 C 
HETATM   24  O           1     -22.236  -5.873  -2.171  0.00  0.00    -0.646 OA
HETATM   25  O           1     -20.859  -7.419  -1.538  0.00  0.00    -0.646 OA
ENDBRANCH  18  23
ENDBRANCH  15  18
ENDBRANCH   1  14
TORSDOF 12
ENDMDL
MODEL 9
REMARK VINA RESULT:      -5.2     14.267     16.453
REMARK  12 active torsions:
REMARK  status: ('A' for Active; 'I' for Inactive)
REMARK    1  A    between atoms: N_1  and  C_21 
REMARK       I    between atoms: N_1  and  C_12 
REMARK    2  A    between atoms: N_6  and  C_11 
REMARK    3  A    between atoms: C_8  and  C_17 
REMARK    4  A    between atoms: C_8  and  C_23 
REMARK    5  A    between atoms: C_10  and  C_11 
REMARK    6  A    between atoms: C_10  and  C_17 
REMARK    7  A    between atoms: C_11  and  C_12 
REMARK    8  A    between atoms: N_13  and  C_23 
REMARK    9  A    between atoms: S_18  and  C_19 
REMARK   10  A    between atoms: C_19  and  C_20 
REMARK   11  A    between atoms: C_20  and  C_21 
REMARK   12  A    between atoms: C_21  and  C_22 
ROOT
HETATM    1  C           1     -21.048  -5.017  -6.678  0.00  0.00     0.274 C 
ENDROOT
BRANCH   1   2
HETATM    2  N           1     -20.247  -5.881  -7.605  0.00  0.00    -0.067 N 
HETATM    3  H           1     -20.845  -6.178  -8.409  0.00  0.00     0.275 HD
HETATM    4  H           1     -19.427  -5.342  -7.963  0.00  0.00     0.275 HD
HETATM    5  H           1     -19.911  -6.727  -7.090  0.00  0.00     0.275 HD
ENDBRANCH   1   2
BRANCH   1   6
HETATM    6  C           1     -22.091  -4.246  -7.476  0.00  0.00     0.042 C 
BRANCH   6   7
HETATM    7  C           1     -21.771  -4.347  -8.961  0.00  0.00     0.004 C 
BRANCH   7   8
HETATM    8  C           1     -22.839  -3.614  -9.762  0.00  0.00     0.027 C 
BRANCH   8   9
HETATM    9  C           1     -23.993  -4.563 -10.058  0.00  0.00     0.229 C 
BRANCH   9  10
HETATM   10  N           1     -25.290  -3.905  -9.690  0.00  0.00    -0.079 N 
HETATM   11  H           1     -25.591  -4.231  -8.744  0.00  0.00     0.274 HD
HETATM   12  H           1     -25.162  -2.868  -9.676  0.00  0.00     0.274 HD
HETATM   13  H           1     -26.020  -4.156 -10.394  0.00  0.00     0.274 HD
ENDBRANCH   9  10
ENDBRANCH   8   9
ENDBRANCH   7   8
ENDBRANCH   6   7
ENDBRANCH   1   6
BRANCH   1  14
HETATM   14  C           1     -21.737  -5.883  -5.652  0.00  0.00     0.249 C 
HETATM   15  N           1     -21.002  -6.730  -4.866  0.00  0.00    -0.345 N 
HETATM   16  H           1     -19.996  -6.775  -4.973  0.00  0.00     0.163 HD
HETATM   17  O           1     -22.937  -5.830  -5.525  0.00  0.00    -0.271 OA
BRANCH  15  18
HETATM   18  C           1     -21.664  -7.564  -3.881  0.00  0.00     0.186 C 
BRANCH  18  19
HETATM   19  C           1     -20.977  -8.921  -3.821  0.00  0.00     0.046 C 
BRANCH  19  20
HETATM   20  C           1     -22.013 -10.005  -3.562  0.00  0.00     0.076 C 
BRANCH  20  21
HETATM   21  S           1     -21.540 -10.958  -2.092  0.00  0.00    -0.173 SA
HETATM   22  C           1     -22.691 -10.146  -0.948  0.00  0.00     0.089 C 
ENDBRANCH  20  21
ENDBRANCH  19  20
ENDBRANCH  18  19
BRANCH  18  23
HETATM   23  C           1     -21.587  -6.899  -2.528  0.00  0.00     0.196 C 
HETATM   24  O           1     -22.355  -5.953  -2.253  0.00  0.00    -0.646 OA
HETATM   25  O           1     -20.756  -7.296  -1.683  0.00  0.00    -0.646 OA
ENDBRANCH  18  23
ENDBRANCH  15  18
ENDBRANCH   1  14
TORSDOF 12
ENDMDL
