MODEL 1
REMARK VINA RESULT:      -7.0      0.000      0.000
REMARK  10 active torsions:
REMARK  status: ('A' for Active; 'I' for Inactive)
REMARK    1  A    between atoms: N_7  and  C_10 
REMARK    2  A    between atoms: Se_8  and  C_9 
REMARK    3  A    between atoms: C_9  and  C_10 
REMARK    4  A    between atoms: C_10  and  C_11 
REMARK       I    between atoms: C_11  and  N_12 
REMARK    5  A    between atoms: N_12  and  C_16 
REMARK    6  A    between atoms: C_15  and  C_16 
REMARK    7  A    between atoms: C_16  and  C_17 
REMARK    8  A    between atoms: C_17  and  C_18 
REMARK    9  A    between atoms: C_18  and  C_19 
REMARK   10  A    between atoms: C_19  and  N_20 
REMARK       I    between atoms: N_20  and  C_22 
REMARK       I    between atoms: N_21  and  C_22 
ROOT
HETATM    1  C           1     -22.610  -3.761  -9.752  0.00  0.00     0.185 C 
ENDROOT
BRANCH   1   2
HETATM    2  N           1     -22.109  -4.829  -8.909  0.00  0.00    -0.345 N 
HETATM    3  C           1     -21.637  -4.546  -7.656  0.00  0.00     0.249 C 
HETATM    4  O           1     -21.637  -3.408  -7.252  0.00  0.00    -0.271 OA
HETATM    5  H           1     -22.108  -5.782  -9.247  0.00  0.00     0.163 HD
BRANCH   3   6
HETATM    6  C           1     -21.115  -5.657  -6.778  0.00  0.00     0.274 C 
BRANCH   6   7
HETATM    7  N           1     -19.933  -6.303  -7.438  0.00  0.00    -0.067 N 
HETATM    8  H           1     -20.067  -6.300  -8.475  0.00  0.00     0.275 HD
HETATM    9  H           1     -19.066  -5.772  -7.197  0.00  0.00     0.275 HD
HETATM   10  H           1     -19.843  -7.289  -7.102  0.00  0.00     0.275 HD
ENDBRANCH   6   7
BRANCH   6  11
HETATM   11  C           1     -20.694  -5.086  -5.431  0.00  0.00     0.045 C 
BRANCH  11  12
HETATM   12 Se           1     -21.378  -6.220  -4.001  0.00  0.00     0.000 Se
HETATM   13  H           1     -22.705  -6.392  -4.614  0.00  0.00     0.000 HD
ENDBRANCH  11  12
ENDBRANCH   6  11
ENDBRANCH   3   6
ENDBRANCH   1   2
BRANCH   1  14
HETATM   14  C           1     -24.118  -3.802  -9.773  0.00  0.00     0.196 C 
HETATM   15  O           1     -24.710  -4.871 -10.035  0.00  0.00    -0.646 OA
HETATM   16  O           1     -24.775  -2.767  -9.528  0.00  0.00    -0.646 OA
ENDBRANCH   1  14
BRANCH   1  17
HETATM   17  C           1     -22.076  -3.940 -11.168  0.00  0.00     0.038 C 
BRANCH  17  18
HETATM   18  C           1     -22.313  -2.666 -11.967  0.00  0.00     0.023 C 
BRANCH  18  19
HETATM   19  C           1     -23.083  -2.998 -13.239  0.00  0.00     0.138 C 
BRANCH  19  20
HETATM   20  N           1     -23.934  -1.859 -13.610  0.00  0.00    -0.227 N 
HETATM   21  H           1     -24.677  -1.521 -12.949  0.00  0.00     0.177 HD
HETATM   22  C           1     -23.771  -1.284 -14.726  0.00  0.00     0.665 C 
HETATM   23  N           1     -22.875  -1.690 -15.523  0.00  0.00    -0.235 N 
HETATM   24  N           1     -24.524  -0.276 -15.054  0.00  0.00    -0.235 N 
HETATM   25  H           1     -22.740  -1.213 -16.448  0.00  0.00     0.174 HD
HETATM   26  H           1     -22.267  -2.504 -15.258  0.00  0.00     0.174 HD
HETATM   27  H           1     -24.389   0.198 -15.975  0.00  0.00     0.174 HD
HETATM   28  H           1     -25.264   0.059 -14.396  0.00  0.00     0.174 HD
ENDBRANCH  19  20
ENDBRANCH  18  19
ENDBRANCH  17  18
ENDBRANCH   1  17
TORSDOF 10
ENDMDL
MODEL 2
REMARK VINA RESULT:      -6.4      9.705     11.407
REMARK  10 active torsions:
REMARK  status: ('A' for Active; 'I' for Inactive)
REMARK    1  A    between atoms: N_7  and  C_10 
REMARK    2  A    between atoms: Se_8  and  C_9 
REMARK    3  A    between atoms: C_9  and  C_10 
REMARK    4  A    between atoms: C_10  and  C_11 
REMARK       I    between atoms: C_11  and  N_12 
REMARK    5  A    between atoms: N_12  and  C_16 
REMARK    6  A    between atoms: C_15  and  C_16 
REMARK    7  A    between atoms: C_16  and  C_17 
REMARK    8  A    between atoms: C_17  and  C_18 
REMARK    9  A    between atoms: C_18  and  C_19 
REMARK   10  A    between atoms: C_19  and  N_20 
REMARK       I    between atoms: N_20  and  C_22 
REMARK       I    between atoms: N_21  and  C_22 
ROOT
HETATM    1  C           1     -28.693  -6.556 -16.929  0.00  0.00     0.185 C 
ENDROOT
BRANCH   1   2
HETATM    2  N           1     -27.465  -6.802 -17.659  0.00  0.00    -0.345 N 
HETATM    3  C           1     -27.259  -6.202 -18.873  0.00  0.00     0.249 C 
HETATM    4  O           1     -28.100  -5.468 -19.335  0.00  0.00    -0.271 OA
HETATM    5  H           1     -26.760  -7.416 -17.273  0.00  0.00     0.163 HD
BRANCH   3   6
HETATM    6  C           1     -25.981  -6.457 -19.634  0.00  0.00     0.274 C 
BRANCH   6   7
HETATM    7  N           1     -24.944  -7.007 -18.700  0.00  0.00    -0.067 N 
HETATM    8  H           1     -24.138  -7.378 -19.253  0.00  0.00     0.275 HD
HETATM    9  H           1     -24.610  -6.248 -18.064  0.00  0.00     0.275 HD
HETATM   10  H           1     -25.362  -7.779 -18.132  0.00  0.00     0.275 HD
ENDBRANCH   6   7
BRANCH   6  11
HETATM   11  C           1     -26.245  -7.460 -20.748  0.00  0.00     0.045 C 
BRANCH  11  12
HETATM   12 Se           1     -24.573  -7.872 -21.661  0.00  0.00     0.000 Se
HETATM   13  H           1     -23.766  -6.950 -20.846  0.00  0.00     0.000 HD
ENDBRANCH  11  12
ENDBRANCH   6  11
ENDBRANCH   3   6
ENDBRANCH   1   2
BRANCH   1  14
HETATM   14  C           1     -28.401  -6.530 -15.448  0.00  0.00     0.196 C 
HETATM   15  O           1     -27.922  -7.540 -14.888  0.00  0.00    -0.646 OA
HETATM   16  O           1     -28.637  -5.499 -14.783  0.00  0.00    -0.646 OA
ENDBRANCH   1  14
BRANCH   1  17
HETATM   17  C           1     -29.692  -7.665 -17.231  0.00  0.00     0.038 C 
BRANCH  17  18
HETATM   18  C           1     -31.053  -7.055 -17.536  0.00  0.00     0.023 C 
BRANCH  18  19
HETATM   19  C           1     -31.032  -5.569 -17.198  0.00  0.00     0.138 C 
BRANCH  19  20
HETATM   20  N           1     -32.362  -5.153 -16.730  0.00  0.00    -0.227 N 
HETATM   21  H           1     -32.975  -5.833 -16.216  0.00  0.00     0.177 HD
HETATM   22  C           1     -32.769  -3.974 -16.947  0.00  0.00     0.665 C 
HETATM   23  N           1     -32.030  -3.153 -17.567  0.00  0.00    -0.235 N 
HETATM   24  N           1     -33.945  -3.606 -16.533  0.00  0.00    -0.235 N 
HETATM   25  H           1     -32.368  -2.175 -17.746  0.00  0.00     0.174 HD
HETATM   26  H           1     -31.080  -3.450 -17.900  0.00  0.00     0.174 HD
HETATM   27  H           1     -34.280  -2.633 -16.712  0.00  0.00     0.174 HD
HETATM   28  H           1     -34.554  -4.283 -16.022  0.00  0.00     0.174 HD
ENDBRANCH  19  20
ENDBRANCH  18  19
ENDBRANCH  17  18
ENDBRANCH   1  17
TORSDOF 10
ENDMDL
MODEL 3
REMARK VINA RESULT:      -6.4      1.597      1.995
REMARK  10 active torsions:
REMARK  status: ('A' for Active; 'I' for Inactive)
REMARK    1  A    between atoms: N_7  and  C_10 
REMARK    2  A    between atoms: Se_8  and  C_9 
REMARK    3  A    between atoms: C_9  and  C_10 
REMARK    4  A    between atoms: C_10  and  C_11 
REMARK       I    between atoms: C_11  and  N_12 
REMARK    5  A    between atoms: N_12  and  C_16 
REMARK    6  A    between atoms: C_15  and  C_16 
REMARK    7  A    between atoms: C_16  and  C_17 
REMARK    8  A    between atoms: C_17  and  C_18 
REMARK    9  A    between atoms: C_18  and  C_19 
REMARK   10  A    between atoms: C_19  and  N_20 
REMARK       I    between atoms: N_20  and  C_22 
REMARK       I    between atoms: N_21  and  C_22 
ROOT
HETATM    1  C           1     -22.701  -3.982  -9.112  0.00  0.00     0.185 C 
ENDROOT
BRANCH   1   2
HETATM    2  N           1     -22.587  -4.778  -7.905  0.00  0.00    -0.345 N 
HETATM    3  C           1     -21.590  -4.515  -7.005  0.00  0.00     0.249 C 
HETATM    4  O           1     -20.805  -3.621  -7.215  0.00  0.00    -0.271 OA
HETATM    5  H           1     -23.243  -5.527  -7.729  0.00  0.00     0.163 HD
BRANCH   3   6
HETATM    6  C           1     -21.470  -5.344  -5.749  0.00  0.00     0.274 C 
BRANCH   6   7
HETATM    7  N           1     -22.812  -5.910  -5.393  0.00  0.00    -0.067 N 
HETATM    8  H           1     -22.847  -6.109  -4.368  0.00  0.00     0.275 HD
HETATM    9  H           1     -23.558  -5.220  -5.639  0.00  0.00     0.275 HD
HETATM   10  H           1     -22.968  -6.797  -5.926  0.00  0.00     0.275 HD
ENDBRANCH   6   7
BRANCH   6  11
HETATM   11  C           1     -20.484  -6.481  -5.982  0.00  0.00     0.045 C 
BRANCH  11  12
HETATM   12 Se           1     -21.160  -8.108  -5.148  0.00  0.00     0.000 Se
HETATM   13  H           1     -22.527  -7.945  -5.668  0.00  0.00     0.000 HD
ENDBRANCH  11  12
ENDBRANCH   6  11
ENDBRANCH   3   6
ENDBRANCH   1   2
BRANCH   1  14
HETATM   14  C           1     -24.149  -3.907  -9.529  0.00  0.00     0.196 C 
HETATM   15  O           1     -24.755  -4.946  -9.872  0.00  0.00    -0.646 OA
HETATM   16  O           1     -24.743  -2.807  -9.533  0.00  0.00    -0.646 OA
ENDBRANCH   1  14
BRANCH   1  17
HETATM   17  C           1     -21.883  -4.627 -10.224  0.00  0.00     0.038 C 
BRANCH  17  18
HETATM   18  C           1     -20.830  -3.644 -10.716  0.00  0.00     0.023 C 
BRANCH  18  19
HETATM   19  C           1     -21.466  -2.662 -11.692  0.00  0.00     0.138 C 
BRANCH  19  20
HETATM   20  N           1     -22.006  -3.396 -12.845  0.00  0.00    -0.227 N 
HETATM   21  H           1     -21.414  -4.111 -13.336  0.00  0.00     0.177 HD
HETATM   22  C           1     -23.184  -3.166 -13.247  0.00  0.00     0.665 C 
HETATM   23  N           1     -23.898  -2.303 -12.656  0.00  0.00    -0.235 N 
HETATM   24  N           1     -23.661  -3.815 -14.268  0.00  0.00    -0.235 N 
HETATM   25  H           1     -24.875  -2.112 -12.989  0.00  0.00     0.174 HD
HETATM   26  H           1     -23.513  -1.779 -11.832  0.00  0.00     0.174 HD
HETATM   27  H           1     -24.633  -3.625 -14.599  0.00  0.00     0.174 HD
HETATM   28  H           1     -23.072  -4.526 -14.756  0.00  0.00     0.174 HD
ENDBRANCH  19  20
ENDBRANCH  18  19
ENDBRANCH  17  18
ENDBRANCH   1  17
TORSDOF 10
ENDMDL
MODEL 4
REMARK VINA RESULT:      -5.8      3.810      8.061
REMARK  10 active torsions:
REMARK  status: ('A' for Active; 'I' for Inactive)
REMARK    1  A    between atoms: N_7  and  C_10 
REMARK    2  A    between atoms: Se_8  and  C_9 
REMARK    3  A    between atoms: C_9  and  C_10 
REMARK    4  A    between atoms: C_10  and  C_11 
REMARK       I    between atoms: C_11  and  N_12 
REMARK    5  A    between atoms: N_12  and  C_16 
REMARK    6  A    between atoms: C_15  and  C_16 
REMARK    7  A    between atoms: C_16  and  C_17 
REMARK    8  A    between atoms: C_17  and  C_18 
REMARK    9  A    between atoms: C_18  and  C_19 
REMARK   10  A    between atoms: C_19  and  N_20 
REMARK       I    between atoms: N_20  and  C_22 
REMARK       I    between atoms: N_21  and  C_22 
ROOT
HETATM    1  C           1     -21.092  -4.338  -7.486  0.00  0.00     0.185 C 
ENDROOT
BRANCH   1   2
HETATM    2  N           1     -22.133  -4.931  -8.303  0.00  0.00    -0.345 N 
HETATM    3  C           1     -22.958  -4.131  -9.047  0.00  0.00     0.249 C 
HETATM    4  O           1     -22.819  -2.931  -9.023  0.00  0.00    -0.271 OA
HETATM    5  H           1     -22.249  -5.936  -8.322  0.00  0.00     0.163 HD
BRANCH   3   6
HETATM    6  C           1     -24.042  -4.748  -9.897  0.00  0.00     0.274 C 
BRANCH   6   7
HETATM    7  N           1     -25.298  -3.940  -9.769  0.00  0.00    -0.067 N 
HETATM    8  H           1     -25.808  -4.221  -8.901  0.00  0.00     0.275 HD
HETATM    9  H           1     -25.056  -2.924  -9.717  0.00  0.00     0.275 HD
HETATM   10  H           1     -25.908  -4.110 -10.601  0.00  0.00     0.275 HD
ENDBRANCH   6   7
BRANCH   6  11
HETATM   11  C           1     -23.597  -4.768 -11.353  0.00  0.00     0.045 C 
BRANCH  11  12
HETATM   12 Se           1     -24.264  -3.177 -12.259  0.00  0.00     0.000 Se
HETATM   13  H           1     -25.643  -3.679 -12.373  0.00  0.00     0.000 HD
ENDBRANCH  11  12
ENDBRANCH   6  11
ENDBRANCH   3   6
ENDBRANCH   1   2
BRANCH   1  14
HETATM   14  C           1     -19.760  -4.489  -8.180  0.00  0.00     0.196 C 
HETATM   15  O           1     -19.719  -4.768  -9.398  0.00  0.00    -0.646 OA
HETATM   16  O           1     -18.700  -4.337  -7.537  0.00  0.00    -0.646 OA
ENDBRANCH   1  14
BRANCH   1  17
HETATM   17  C           1     -21.046  -5.040  -6.135  0.00  0.00     0.038 C 
BRANCH  17  18
HETATM   18  C           1     -21.221  -6.539  -6.335  0.00  0.00     0.023 C 
BRANCH  18  19
HETATM   19  C           1     -21.298  -7.227  -4.977  0.00  0.00     0.138 C 
BRANCH  19  20
HETATM   20  N           1     -21.912  -6.318  -4.000  0.00  0.00    -0.227 N 
HETATM   21  H           1     -22.475  -5.495  -4.330  0.00  0.00     0.177 HD
HETATM   22  C           1     -21.763  -6.526  -2.760  0.00  0.00     0.665 C 
HETATM   23  N           1     -21.083  -7.518  -2.362  0.00  0.00    -0.235 N 
HETATM   24  N           1     -22.306  -5.721  -1.896  0.00  0.00    -0.235 N 
HETATM   25  H           1     -20.959  -7.690  -1.334  0.00  0.00     0.174 HD
HETATM   26  H           1     -20.644  -8.167  -3.060  0.00  0.00     0.174 HD
HETATM   27  H           1     -22.182  -5.893  -0.873  0.00  0.00     0.174 HD
HETATM   28  H           1     -22.866  -4.903  -2.225  0.00  0.00     0.174 HD
ENDBRANCH  19  20
ENDBRANCH  18  19
ENDBRANCH  17  18
ENDBRANCH   1  17
TORSDOF 10
ENDMDL
MODEL 5
REMARK VINA RESULT:      -5.7      3.768      5.057
REMARK  10 active torsions:
REMARK  status: ('A' for Active; 'I' for Inactive)
REMARK    1  A    between atoms: N_7  and  C_10 
REMARK    2  A    between atoms: Se_8  and  C_9 
REMARK    3  A    between atoms: C_9  and  C_10 
REMARK    4  A    between atoms: C_10  and  C_11 
REMARK       I    between atoms: C_11  and  N_12 
REMARK    5  A    between atoms: N_12  and  C_16 
REMARK    6  A    between atoms: C_15  and  C_16 
REMARK    7  A    between atoms: C_16  and  C_17 
REMARK    8  A    between atoms: C_17  and  C_18 
REMARK    9  A    between atoms: C_18  and  C_19 
REMARK   10  A    between atoms: C_19  and  N_20 
REMARK       I    between atoms: N_20  and  C_22 
REMARK       I    between atoms: N_21  and  C_22 
ROOT
HETATM    1  C           1     -20.931  -5.178  -6.315  0.00  0.00     0.185 C 
ENDROOT
BRANCH   1   2
HETATM    2  N           1     -20.807  -5.322  -4.877  0.00  0.00    -0.345 N 
HETATM    3  C           1     -21.426  -6.362  -4.238  0.00  0.00     0.249 C 
HETATM    4  O           1     -22.075  -7.161  -4.871  0.00  0.00    -0.271 OA
HETATM    5  H           1     -20.264  -4.653  -4.347  0.00  0.00     0.163 HD
BRANCH   3   6
HETATM    6  C           1     -21.299  -6.512  -2.742  0.00  0.00     0.274 C 
BRANCH   6   7
HETATM    7  N           1     -22.452  -5.827  -2.071  0.00  0.00    -0.067 N 
HETATM    8  H           1     -22.141  -5.438  -1.152  0.00  0.00     0.275 HD
HETATM    9  H           1     -22.797  -5.049  -2.678  0.00  0.00     0.275 HD
HETATM   10  H           1     -23.223  -6.516  -1.915  0.00  0.00     0.275 HD
ENDBRANCH   6   7
BRANCH   6  11
HETATM   11  C           1     -21.304  -7.990  -2.376  0.00  0.00     0.045 C 
BRANCH  11  12
HETATM   12 Se           1     -21.956  -8.207  -0.553  0.00  0.00     0.000 Se
HETATM   13  H           1     -20.880  -9.129  -0.154  0.00  0.00     0.000 HD
ENDBRANCH  11  12
ENDBRANCH   6  11
ENDBRANCH   3   6
ENDBRANCH   1   2
BRANCH   1  14
HETATM   14  C           1     -19.638  -5.594  -6.974  0.00  0.00     0.196 C 
HETATM   15  O           1     -19.394  -6.806  -7.160  0.00  0.00    -0.646 OA
HETATM   16  O           1     -18.813  -4.728  -7.334  0.00  0.00    -0.646 OA
ENDBRANCH   1  14
BRANCH   1  17
HETATM   17  C           1     -21.231  -3.724  -6.655  0.00  0.00     0.038 C 
BRANCH  17  18
HETATM   18  C           1     -21.892  -3.648  -8.024  0.00  0.00     0.023 C 
BRANCH  18  19
HETATM   19  C           1     -23.289  -4.252  -7.948  0.00  0.00     0.138 C 
BRANCH  19  20
HETATM   20  N           1     -24.183  -3.540  -8.873  0.00  0.00    -0.227 N 
HETATM   21  H           1     -24.664  -2.659  -8.564  0.00  0.00     0.177 HD
HETATM   22  C           1     -24.374  -3.988 -10.041  0.00  0.00     0.665 C 
HETATM   23  N           1     -23.794  -5.051 -10.413  0.00  0.00    -0.235 N 
HETATM   24  N           1     -25.164  -3.358 -10.858  0.00  0.00    -0.235 N 
HETATM   25  H           1     -23.952  -5.423 -11.382  0.00  0.00     0.174 HD
HETATM   26  H           1     -23.156  -5.560  -9.753  0.00  0.00     0.174 HD
HETATM   27  H           1     -25.321  -3.729 -11.822  0.00  0.00     0.174 HD
HETATM   28  H           1     -25.642  -2.481 -10.551  0.00  0.00     0.174 HD
ENDBRANCH  19  20
ENDBRANCH  18  19
ENDBRANCH  17  18
ENDBRANCH   1  17
TORSDOF 10
ENDMDL
MODEL 6
REMARK VINA RESULT:      -5.7      2.326      3.043
REMARK  10 active torsions:
REMARK  status: ('A' for Active; 'I' for Inactive)
REMARK    1  A    between atoms: N_7  and  C_10 
REMARK    2  A    between atoms: Se_8  and  C_9 
REMARK    3  A    between atoms: C_9  and  C_10 
REMARK    4  A    between atoms: C_10  and  C_11 
REMARK       I    between atoms: C_11  and  N_12 
REMARK    5  A    between atoms: N_12  and  C_16 
REMARK    6  A    between atoms: C_15  and  C_16 
REMARK    7  A    between atoms: C_16  and  C_17 
REMARK    8  A    between atoms: C_17  and  C_18 
REMARK    9  A    between atoms: C_18  and  C_19 
REMARK   10  A    between atoms: C_19  and  N_20 
REMARK       I    between atoms: N_20  and  C_22 
REMARK       I    between atoms: N_21  and  C_22 
ROOT
HETATM    1  C           1     -21.439  -4.595  -9.250  0.00  0.00     0.185 C 
ENDROOT
BRANCH   1   2
HETATM    2  N           1     -20.624  -4.690  -8.055  0.00  0.00    -0.345 N 
HETATM    3  C           1     -20.787  -5.744  -7.197  0.00  0.00     0.249 C 
HETATM    4  O           1     -21.609  -6.596  -7.436  0.00  0.00    -0.271 OA
HETATM    5  H           1     -19.936  -3.976  -7.854  0.00  0.00     0.163 HD
BRANCH   3   6
HETATM    6  C           1     -19.940  -5.843  -5.952  0.00  0.00     0.274 C 
BRANCH   6   7
HETATM    7  N           1     -20.115  -4.601  -5.129  0.00  0.00    -0.067 N 
HETATM    8  H           1     -20.292  -4.865  -4.133  0.00  0.00     0.275 HD
HETATM    9  H           1     -19.248  -4.020  -5.186  0.00  0.00     0.275 HD
HETATM   10  H           1     -20.927  -4.053  -5.494  0.00  0.00     0.275 HD
ENDBRANCH   6   7
BRANCH   6  11
HETATM   11  C           1     -20.369  -7.056  -5.139  0.00  0.00     0.045 C 
BRANCH  11  12
HETATM   12 Se           1     -21.484  -6.479  -3.649  0.00  0.00     0.000 Se
HETATM   13  H           1     -20.469  -5.570  -3.091  0.00  0.00     0.000 HD
ENDBRANCH  11  12
ENDBRANCH   6  11
ENDBRANCH   3   6
ENDBRANCH   1   2
BRANCH   1  14
HETATM   14  C           1     -20.572  -4.197 -10.419  0.00  0.00     0.196 C 
HETATM   15  O           1     -20.795  -3.126 -11.025  0.00  0.00    -0.646 OA
HETATM   16  O           1     -19.632  -4.936 -10.782  0.00  0.00    -0.646 OA
ENDBRANCH   1  14
BRANCH   1  17
HETATM   17  C           1     -22.526  -3.549  -9.042  0.00  0.00     0.038 C 
BRANCH  17  18
HETATM   18  C           1     -23.886  -4.158  -9.354  0.00  0.00     0.023 C 
BRANCH  18  19
HETATM   19  C           1     -24.591  -3.314 -10.409  0.00  0.00     0.138 C 
BRANCH  19  20
HETATM   20  N           1     -24.442  -3.948 -11.726  0.00  0.00    -0.227 N 
HETATM   21  H           1     -24.853  -4.898 -11.901  0.00  0.00     0.177 HD
HETATM   22  C           1     -23.817  -3.350 -12.650  0.00  0.00     0.665 C 
HETATM   23  N           1     -23.320  -2.204 -12.439  0.00  0.00    -0.235 N 
HETATM   24  N           1     -23.684  -3.911 -13.815  0.00  0.00    -0.235 N 
HETATM   25  H           1     -22.802  -1.707 -13.205  0.00  0.00     0.174 HD
HETATM   26  H           1     -23.427  -1.750 -11.498  0.00  0.00     0.174 HD
HETATM   27  H           1     -23.168  -3.416 -14.577  0.00  0.00     0.174 HD
HETATM   28  H           1     -24.094  -4.856 -13.989  0.00  0.00     0.174 HD
ENDBRANCH  19  20
ENDBRANCH  18  19
ENDBRANCH  17  18
ENDBRANCH   1  17
TORSDOF 10
ENDMDL
MODEL 7
REMARK VINA RESULT:      -5.5      4.332      6.183
REMARK  10 active torsions:
REMARK  status: ('A' for Active; 'I' for Inactive)
REMARK    1  A    between atoms: N_7  and  C_10 
REMARK    2  A    between atoms: Se_8  and  C_9 
REMARK    3  A    between atoms: C_9  and  C_10 
REMARK    4  A    between atoms: C_10  and  C_11 
REMARK       I    between atoms: C_11  and  N_12 
REMARK    5  A    between atoms: N_12  and  C_16 
REMARK    6  A    between atoms: C_15  and  C_16 
REMARK    7  A    between atoms: C_16  and  C_17 
REMARK    8  A    between atoms: C_17  and  C_18 
REMARK    9  A    between atoms: C_18  and  C_19 
REMARK   10  A    between atoms: C_19  and  N_20 
REMARK       I    between atoms: N_20  and  C_22 
REMARK       I    between atoms: N_21  and  C_22 
ROOT
HETATM    1  C           1     -20.727  -6.822  -5.348  0.00  0.00     0.185 C 
ENDROOT
BRANCH   1   2
HETATM    2  N           1     -20.860  -8.244  -5.599  0.00  0.00    -0.345 N 
HETATM    3  C           1     -20.105  -9.137  -4.888  0.00  0.00     0.249 C 
HETATM    4  O           1     -19.329  -8.742  -4.051  0.00  0.00    -0.271 OA
HETATM    5  H           1     -21.510  -8.575  -6.300  0.00  0.00     0.163 HD
BRANCH   3   6
HETATM    6  C           1     -20.243 -10.617  -5.149  0.00  0.00     0.274 C 
BRANCH   6   7
HETATM    7  N           1     -21.144 -10.836  -6.327  0.00  0.00    -0.067 N 
HETATM    8  H           1     -22.128 -10.601  -6.063  0.00  0.00     0.275 HD
HETATM    9  H           1     -20.840 -10.222  -7.117  0.00  0.00     0.275 HD
HETATM   10  H           1     -21.092 -11.837  -6.625  0.00  0.00     0.275 HD
ENDBRANCH   6   7
BRANCH   6  11
HETATM   11  C           1     -18.872 -11.212  -5.441  0.00  0.00     0.045 C 
BRANCH  11  12
HETATM   12 Se           1     -18.288 -12.279  -3.918  0.00  0.00     0.000 Se
HETATM   13  H           1     -19.133 -11.565  -2.946  0.00  0.00     0.000 HD
ENDBRANCH  11  12
ENDBRANCH   6  11
ENDBRANCH   3   6
ENDBRANCH   1   2
BRANCH   1  14
HETATM   14  C           1     -21.979  -6.310  -4.678  0.00  0.00     0.196 C 
HETATM   15  O           1     -22.014  -6.182  -3.435  0.00  0.00    -0.646 OA
HETATM   16  O           1     -22.980  -6.016  -5.365  0.00  0.00    -0.646 OA
ENDBRANCH   1  14
BRANCH   1  17
HETATM   17  C           1     -20.521  -6.091  -6.668  0.00  0.00     0.038 C 
BRANCH  17  18
HETATM   18  C           1     -20.115  -4.649  -6.395  0.00  0.00     0.023 C 
BRANCH  18  19
HETATM   19  C           1     -20.723  -3.740  -7.456  0.00  0.00     0.138 C 
BRANCH  19  20
HETATM   20  N           1     -22.189  -3.818  -7.388  0.00  0.00    -0.227 N 
HETATM   21  H           1     -22.673  -3.821  -6.457  0.00  0.00     0.177 HD
HETATM   22  C           1     -22.869  -3.882  -8.454  0.00  0.00     0.665 C 
HETATM   23  N           1     -22.286  -3.879  -9.578  0.00  0.00    -0.235 N 
HETATM   24  N           1     -24.166  -3.952  -8.395  0.00  0.00    -0.235 N 
HETATM   25  H           1     -22.850  -3.932 -10.462  0.00  0.00     0.174 HD
HETATM   26  H           1     -21.239  -3.823  -9.626  0.00  0.00     0.174 HD
HETATM   27  H           1     -24.727  -4.004  -9.275  0.00  0.00     0.174 HD
HETATM   28  H           1     -24.647  -3.955  -7.467  0.00  0.00     0.174 HD
ENDBRANCH  19  20
ENDBRANCH  18  19
ENDBRANCH  17  18
ENDBRANCH   1  17
TORSDOF 10
ENDMDL
MODEL 8
REMARK VINA RESULT:      -5.4      4.934      9.834
REMARK  10 active torsions:
REMARK  status: ('A' for Active; 'I' for Inactive)
REMARK    1  A    between atoms: N_7  and  C_10 
REMARK    2  A    between atoms: Se_8  and  C_9 
REMARK    3  A    between atoms: C_9  and  C_10 
REMARK    4  A    between atoms: C_10  and  C_11 
REMARK       I    between atoms: C_11  and  N_12 
REMARK    5  A    between atoms: N_12  and  C_16 
REMARK    6  A    between atoms: C_15  and  C_16 
REMARK    7  A    between atoms: C_16  and  C_17 
REMARK    8  A    between atoms: C_17  and  C_18 
REMARK    9  A    between atoms: C_18  and  C_19 
REMARK   10  A    between atoms: C_19  and  N_20 
REMARK       I    between atoms: N_20  and  C_22 
REMARK       I    between atoms: N_21  and  C_22 
ROOT
HETATM    1  C           1     -20.785  -6.908  -4.861  0.00  0.00     0.185 C 
ENDROOT
BRANCH   1   2
HETATM    2  N           1     -21.235  -6.497  -6.177  0.00  0.00    -0.345 N 
HETATM    3  C           1     -20.947  -5.240  -6.636  0.00  0.00     0.249 C 
HETATM    4  O           1     -20.318  -4.474  -5.946  0.00  0.00    -0.271 OA
HETATM    5  H           1     -21.762  -7.139  -6.755  0.00  0.00     0.163 HD
BRANCH   3   6
HETATM    6  C           1     -21.415  -4.811  -8.005  0.00  0.00     0.274 C 
BRANCH   6   7
HETATM    7  N           1     -22.250  -3.571  -7.882  0.00  0.00    -0.067 N 
HETATM    8  H           1     -22.319  -3.295  -6.877  0.00  0.00     0.275 HD
HETATM    9  H           1     -21.806  -2.797  -8.426  0.00  0.00     0.275 HD
HETATM   10  H           1     -23.207  -3.757  -8.260  0.00  0.00     0.275 HD
ENDBRANCH   6   7
BRANCH   6  11
HETATM   11  C           1     -20.208  -4.526  -8.889  0.00  0.00     0.045 C 
BRANCH  11  12
HETATM   12 Se           1     -20.804  -4.191 -10.714  0.00  0.00     0.000 Se
HETATM   13  H           1     -19.751  -5.012 -11.332  0.00  0.00     0.000 HD
ENDBRANCH  11  12
ENDBRANCH   6  11
ENDBRANCH   3   6
ENDBRANCH   1   2
BRANCH   1  14
HETATM   14  C           1     -20.292  -8.333  -4.921  0.00  0.00     0.196 C 
HETATM   15  O           1     -20.817  -9.143  -5.716  0.00  0.00    -0.646 OA
HETATM   16  O           1     -19.359  -8.704  -4.176  0.00  0.00    -0.646 OA
ENDBRANCH   1  14
BRANCH   1  17
HETATM   17  C           1     -21.944  -6.812  -3.877  0.00  0.00     0.038 C 
BRANCH  17  18
HETATM   18  C           1     -21.479  -6.101  -2.613  0.00  0.00     0.023 C 
BRANCH  18  19
HETATM   19  C           1     -22.305  -6.582  -1.426  0.00  0.00     0.138 C 
BRANCH  19  20
HETATM   20  N           1     -21.901  -7.949  -1.068  0.00  0.00    -0.227 N 
HETATM   21  H           1     -21.117  -8.417  -1.585  0.00  0.00     0.177 HD
HETATM   22  C           1     -22.499  -8.562  -0.136  0.00  0.00     0.665 C 
HETATM   23  N           1     -23.445  -7.998   0.488  0.00  0.00    -0.235 N 
HETATM   24  N           1     -22.141  -9.771   0.180  0.00  0.00    -0.235 N 
HETATM   25  H           1     -23.941  -8.507   1.261  0.00  0.00     0.174 HD
HETATM   26  H           1     -23.734  -7.021   0.233  0.00  0.00     0.174 HD
HETATM   27  H           1     -22.635 -10.277   0.950  0.00  0.00     0.174 HD
HETATM   28  H           1     -21.361 -10.237  -0.335  0.00  0.00     0.174 HD
ENDBRANCH  19  20
ENDBRANCH  18  19
ENDBRANCH  17  18
ENDBRANCH   1  17
TORSDOF 10
ENDMDL
MODEL 9
REMARK VINA RESULT:      -5.4      2.164      3.056
REMARK  10 active torsions:
REMARK  status: ('A' for Active; 'I' for Inactive)
REMARK    1  A    between atoms: N_7  and  C_10 
REMARK    2  A    between atoms: Se_8  and  C_9 
REMARK    3  A    between atoms: C_9  and  C_10 
REMARK    4  A    between atoms: C_10  and  C_11 
REMARK       I    between atoms: C_11  and  N_12 
REMARK    5  A    between atoms: N_12  and  C_16 
REMARK    6  A    between atoms: C_15  and  C_16 
REMARK    7  A    between atoms: C_16  and  C_17 
REMARK    8  A    between atoms: C_17  and  C_18 
REMARK    9  A    between atoms: C_18  and  C_19 
REMARK   10  A    between atoms: C_19  and  N_20 
REMARK       I    between atoms: N_20  and  C_22 
REMARK       I    between atoms: N_21  and  C_22 
ROOT
HETATM    1  C           1     -20.481  -4.976  -7.827  0.00  0.00     0.185 C 
ENDROOT
BRANCH   1   2
HETATM    2  N           1     -20.749  -6.260  -7.211  0.00  0.00    -0.345 N 
HETATM    3  C           1     -20.703  -6.388  -5.848  0.00  0.00     0.249 C 
HETATM    4  O           1     -20.440  -5.431  -5.160  0.00  0.00    -0.271 OA
HETATM    5  H           1     -20.969  -7.062  -7.787  0.00  0.00     0.163 HD
BRANCH   3   6
HETATM    6  C           1     -20.981  -7.725  -5.206  0.00  0.00     0.274 C 
BRANCH   6   7
HETATM    7  N           1     -19.904  -8.696  -5.586  0.00  0.00    -0.067 N 
HETATM    8  H           1     -20.293  -9.410  -6.242  0.00  0.00     0.275 HD
HETATM    9  H           1     -19.122  -8.184  -6.053  0.00  0.00     0.275 HD
HETATM   10  H           1     -19.544  -9.171  -4.726  0.00  0.00     0.275 HD
ENDBRANCH   6   7
BRANCH   6  11
HETATM   11  C           1     -21.010  -7.565  -3.692  0.00  0.00     0.045 C 
BRANCH  11  12
HETATM   12 Se           1     -21.449  -9.275  -2.866  0.00  0.00     0.000 Se
HETATM   13  H           1     -22.856  -9.255  -3.297  0.00  0.00     0.000 HD
ENDBRANCH  11  12
ENDBRANCH   6  11
ENDBRANCH   3   6
ENDBRANCH   1   2
BRANCH   1  14
HETATM   14  C           1     -21.718  -4.114  -7.751  0.00  0.00     0.196 C 
HETATM   15  O           1     -22.777  -4.492  -8.297  0.00  0.00    -0.646 OA
HETATM   16  O           1     -21.683  -3.023  -7.142  0.00  0.00    -0.646 OA
ENDBRANCH   1  14
BRANCH   1  17
HETATM   17  C           1     -20.095  -5.185  -9.286  0.00  0.00     0.038 C 
BRANCH  17  18
HETATM   18  C           1     -20.275  -3.881 -10.052  0.00  0.00     0.023 C 
BRANCH  18  19
HETATM   19  C           1     -21.005  -4.156 -11.361  0.00  0.00     0.138 C 
BRANCH  19  20
HETATM   20  N           1     -22.307  -3.474 -11.351  0.00  0.00    -0.227 N 
HETATM   21  H           1     -22.804  -3.306 -10.442  0.00  0.00     0.177 HD
HETATM   22  C           1     -22.828  -3.089 -12.438  0.00  0.00     0.665 C 
HETATM   23  N           1     -22.228  -3.291 -13.535  0.00  0.00    -0.235 N 
HETATM   24  N           1     -23.979  -2.486 -12.429  0.00  0.00    -0.235 N 
HETATM   25  H           1     -22.660  -2.972 -14.437  0.00  0.00     0.174 HD
HETATM   26  H           1     -21.298  -3.779 -13.542  0.00  0.00     0.174 HD
HETATM   27  H           1     -24.409  -2.168 -13.327  0.00  0.00     0.174 HD
HETATM   28  H           1     -24.474  -2.319 -11.525  0.00  0.00     0.174 HD
ENDBRANCH  19  20
ENDBRANCH  18  19
ENDBRANCH  17  18
ENDBRANCH   1  17
TORSDOF 10
ENDMDL
