MODEL 1
REMARK VINA RESULT:      -7.1      0.000      0.000
REMARK  9 active torsions:
REMARK  status: ('A' for Active; 'I' for Inactive)
REMARK    1  A    between atoms: C_1  and  C_25 
REMARK    2  A    between atoms: C_1  and  C_2 
REMARK    3  A    between atoms: C_1  and  N_6 
REMARK    4  A    between atoms: C_2  and  C_3 
REMARK    5  A    between atoms: C_3  and  Se_4 
REMARK    6  A    between atoms: C_11  and  C_13 
REMARK    7  A    between atoms: C_13  and  C_14 
REMARK    8  A    between atoms: C_13  and  N_24 
REMARK    9  A    between atoms: C_14  and  C_15 
REMARK       I    between atoms: N_24  and  C_25 
ROOT
HETATM    1  C           1     -21.147  -6.132  -6.975  0.00  0.00     0.190 C 
ENDROOT
BRANCH   1   2
HETATM    2  C           1     -19.649  -6.198  -6.809  0.00  0.00     0.197 C 
HETATM    3  O           1     -19.096  -7.289  -6.547  0.00  0.00    -0.646 OA
HETATM    4  O           1     -18.959  -5.162  -6.934  0.00  0.00    -0.646 OA
ENDBRANCH   1   2
BRANCH   1   5
HETATM    5  C           1     -21.621  -4.702  -6.748  0.00  0.00     0.077 C 
BRANCH   5   6
HETATM    6  C           1     -22.476  -4.272  -7.898  0.00  0.00    -0.028 A 
HETATM    7  C           1     -23.842  -4.099  -7.875  0.00  0.00     0.096 A 
HETATM    8  N           1     -24.235  -3.701  -9.125  0.00  0.00    -0.365 N 
HETATM    9  H           1     -25.225  -3.494  -9.405  0.00  0.00     0.165 HD
HETATM   10  C           1     -23.144  -3.613  -9.961  0.00  0.00     0.042 A 
HETATM   11  C           1     -23.067  -3.249 -11.311  0.00  0.00     0.030 A 
HETATM   12  C           1     -22.023  -3.968  -9.212  0.00  0.00    -0.002 A 
HETATM   13  C           1     -21.803  -3.249 -11.909  0.00  0.00     0.002 A 
HETATM   14  C           1     -20.665  -3.598 -11.184  0.00  0.00     0.001 A 
HETATM   15  C           1     -20.760  -3.960  -9.835  0.00  0.00     0.014 A 
ENDBRANCH   5   6
ENDBRANCH   1   5
BRANCH   1  16
HETATM   16  N           1     -21.778  -7.010  -6.008  0.00  0.00    -0.344 N 
HETATM   17  H           1     -21.814  -8.007  -6.177  0.00  0.00     0.163 HD
HETATM   18  C           1     -22.326  -6.489  -4.867  0.00  0.00     0.249 C 
HETATM   19  O           1     -23.484  -6.143  -4.855  0.00  0.00    -0.271 OA
BRANCH  18  20
HETATM   20  C           1     -21.484  -6.347  -3.622  0.00  0.00     0.274 C 
BRANCH  20  21
HETATM   21  C           1     -20.855  -7.691  -3.278  0.00  0.00     0.042 C 
BRANCH  21  22
HETATM   22  C           1     -20.656  -7.788  -1.771  0.00  0.00     0.003 C 
BRANCH  22  23
HETATM   23 Se           1     -21.018  -9.610  -1.183  0.00  0.00     0.000 Se
HETATM   24  C           1     -22.702  -9.168  -0.307  0.00  0.00     0.000 C 
ENDBRANCH  22  23
ENDBRANCH  21  22
ENDBRANCH  20  21
BRANCH  20  25
HETATM   25  N           1     -22.349  -5.894  -2.484  0.00  0.00    -0.067 N 
HETATM   26  H           1     -22.971  -5.117  -2.806  0.00  0.00     0.275 HD
HETATM   27  H           1     -22.935  -6.693  -2.152  0.00  0.00     0.275 HD
HETATM   28  H           1     -21.746  -5.554  -1.701  0.00  0.00     0.275 HD
ENDBRANCH  20  25
ENDBRANCH  18  20
ENDBRANCH   1  16
TORSDOF 9
ENDMDL
MODEL 2
REMARK VINA RESULT:      -7.0      2.972      7.647
REMARK  9 active torsions:
REMARK  status: ('A' for Active; 'I' for Inactive)
REMARK    1  A    between atoms: C_1  and  C_25 
REMARK    2  A    between atoms: C_1  and  C_2 
REMARK    3  A    between atoms: C_1  and  N_6 
REMARK    4  A    between atoms: C_2  and  C_3 
REMARK    5  A    between atoms: C_3  and  Se_4 
REMARK    6  A    between atoms: C_11  and  C_13 
REMARK    7  A    between atoms: C_13  and  C_14 
REMARK    8  A    between atoms: C_13  and  N_24 
REMARK    9  A    between atoms: C_14  and  C_15 
REMARK       I    between atoms: N_24  and  C_25 
ROOT
HETATM    1  C           1     -20.053  -7.362  -5.357  0.00  0.00     0.190 C 
ENDROOT
BRANCH   1   2
HETATM    2  C           1     -19.061  -8.496  -5.279  0.00  0.00     0.197 C 
HETATM    3  O           1     -18.544  -8.948  -6.324  0.00  0.00    -0.646 OA
HETATM    4  O           1     -18.755  -8.984  -4.169  0.00  0.00    -0.646 OA
ENDBRANCH   1   2
BRANCH   1   5
HETATM    5  C           1     -21.422  -7.853  -4.904  0.00  0.00     0.077 C 
BRANCH   5   6
HETATM    6  C           1     -21.726  -7.299  -3.547  0.00  0.00    -0.028 A 
HETATM    7  C           1     -21.976  -5.980  -3.246  0.00  0.00     0.096 A 
HETATM    8  N           1     -22.207  -5.894  -1.898  0.00  0.00    -0.365 N 
HETATM    9  H           1     -22.426  -5.007  -1.382  0.00  0.00     0.165 HD
HETATM   10  C           1     -22.112  -7.139  -1.319  0.00  0.00     0.042 A 
HETATM   11  C           1     -22.268  -7.530   0.016  0.00  0.00     0.030 A 
HETATM   12  C           1     -21.809  -8.043  -2.337  0.00  0.00    -0.002 A 
HETATM   13  C           1     -22.110  -8.886   0.316  0.00  0.00     0.002 A 
HETATM   14  C           1     -21.808  -9.812  -0.681  0.00  0.00     0.001 A 
HETATM   15  C           1     -21.655  -9.405  -2.012  0.00  0.00     0.014 A 
ENDBRANCH   5   6
ENDBRANCH   1   5
BRANCH   1  16
HETATM   16  N           1     -20.138  -6.890  -6.725  0.00  0.00    -0.344 N 
HETATM   17  H           1     -20.153  -7.553  -7.490  0.00  0.00     0.163 HD
HETATM   18  C           1     -20.200  -5.547  -6.983  0.00  0.00     0.249 C 
HETATM   19  O           1     -19.183  -4.916  -7.149  0.00  0.00    -0.271 OA
BRANCH  18  20
HETATM   20  C           1     -21.539  -4.854  -7.060  0.00  0.00     0.274 C 
BRANCH  20  21
HETATM   21  C           1     -22.168  -5.113  -8.422  0.00  0.00     0.042 C 
BRANCH  21  22
HETATM   22  C           1     -22.648  -3.798  -9.020  0.00  0.00     0.003 C 
BRANCH  22  23
HETATM   23 Se           1     -22.180  -3.733 -10.911  0.00  0.00     0.000 Se
HETATM   24  C           1     -20.359  -4.379 -10.651  0.00  0.00     0.000 C 
ENDBRANCH  22  23
ENDBRANCH  21  22
ENDBRANCH  20  21
BRANCH  20  25
HETATM   25  N           1     -21.348  -3.378  -6.871  0.00  0.00    -0.067 N 
HETATM   26  H           1     -21.024  -2.951  -7.769  0.00  0.00     0.275 HD
HETATM   27  H           1     -22.254  -2.944  -6.585  0.00  0.00     0.275 HD
HETATM   28  H           1     -20.631  -3.213  -6.128  0.00  0.00     0.275 HD
ENDBRANCH  20  25
ENDBRANCH  18  20
ENDBRANCH   1  16
TORSDOF 9
ENDMDL
MODEL 3
REMARK VINA RESULT:      -7.0      1.640      1.917
REMARK  9 active torsions:
REMARK  status: ('A' for Active; 'I' for Inactive)
REMARK    1  A    between atoms: C_1  and  C_25 
REMARK    2  A    between atoms: C_1  and  C_2 
REMARK    3  A    between atoms: C_1  and  N_6 
REMARK    4  A    between atoms: C_2  and  C_3 
REMARK    5  A    between atoms: C_3  and  Se_4 
REMARK    6  A    between atoms: C_11  and  C_13 
REMARK    7  A    between atoms: C_13  and  C_14 
REMARK    8  A    between atoms: C_13  and  N_24 
REMARK    9  A    between atoms: C_14  and  C_15 
REMARK       I    between atoms: N_24  and  C_25 
ROOT
HETATM    1  C           1     -21.861  -6.571  -5.819  0.00  0.00     0.190 C 
ENDROOT
BRANCH   1   2
HETATM    2  C           1     -20.892  -7.722  -5.712  0.00  0.00     0.197 C 
HETATM    3  O           1     -19.661  -7.504  -5.688  0.00  0.00    -0.646 OA
HETATM    4  O           1     -21.320  -8.896  -5.645  0.00  0.00    -0.646 OA
ENDBRANCH   1   2
BRANCH   1   5
HETATM    5  C           1     -21.149  -5.362  -6.413  0.00  0.00     0.077 C 
BRANCH   5   6
HETATM    6  C           1     -22.008  -4.748  -7.475  0.00  0.00    -0.028 A 
HETATM    7  C           1     -23.331  -4.393  -7.344  0.00  0.00     0.096 A 
HETATM    8  N           1     -23.744  -3.869  -8.540  0.00  0.00    -0.365 N 
HETATM    9  H           1     -24.712  -3.512  -8.737  0.00  0.00     0.165 HD
HETATM   10  C           1     -22.709  -3.878  -9.447  0.00  0.00     0.042 A 
HETATM   11  C           1     -22.668  -3.446 -10.777  0.00  0.00     0.030 A 
HETATM   12  C           1     -21.602  -4.428  -8.800  0.00  0.00    -0.002 A 
HETATM   13  C           1     -21.458  -3.581 -11.465  0.00  0.00     0.002 A 
HETATM   14  C           1     -20.335  -4.126 -10.844  0.00  0.00     0.001 A 
HETATM   15  C           1     -20.393  -4.554  -9.512  0.00  0.00     0.014 A 
ENDBRANCH   5   6
ENDBRANCH   1   5
BRANCH   1  16
HETATM   16  N           1     -22.362  -6.237  -4.501  0.00  0.00    -0.344 N 
HETATM   17  H           1     -23.310  -5.900  -4.389  0.00  0.00     0.163 HD
HETATM   18  C           1     -21.553  -6.376  -3.405  0.00  0.00     0.249 C 
HETATM   19  O           1     -20.860  -5.454  -3.044  0.00  0.00    -0.271 OA
BRANCH  18  20
HETATM   20  C           1     -21.525  -7.683  -2.649  0.00  0.00     0.274 C 
BRANCH  20  21
HETATM   21  C           1     -21.985  -7.450  -1.217  0.00  0.00     0.042 C 
BRANCH  21  22
HETATM   22  C           1     -21.219  -8.374  -0.280  0.00  0.00     0.003 C 
BRANCH  22  23
HETATM   23 Se           1     -22.174 -10.063  -0.106  0.00  0.00     0.000 Se
HETATM   24  C           1     -20.671 -11.021   0.682  0.00  0.00     0.000 C 
ENDBRANCH  22  23
ENDBRANCH  21  22
ENDBRANCH  20  21
BRANCH  20  25
HETATM   25  N           1     -20.127  -8.225  -2.643  0.00  0.00    -0.067 N 
HETATM   26  H           1     -19.465  -7.489  -2.982  0.00  0.00     0.275 HD
HETATM   27  H           1     -19.866  -8.506  -1.671  0.00  0.00     0.275 HD
HETATM   28  H           1     -20.073  -9.057  -3.273  0.00  0.00     0.275 HD
ENDBRANCH  20  25
ENDBRANCH  18  20
ENDBRANCH   1  16
TORSDOF 9
ENDMDL
MODEL 4
REMARK VINA RESULT:      -6.7      3.102      8.037
REMARK  9 active torsions:
REMARK  status: ('A' for Active; 'I' for Inactive)
REMARK    1  A    between atoms: C_1  and  C_25 
REMARK    2  A    between atoms: C_1  and  C_2 
REMARK    3  A    between atoms: C_1  and  N_6 
REMARK    4  A    between atoms: C_2  and  C_3 
REMARK    5  A    between atoms: C_3  and  Se_4 
REMARK    6  A    between atoms: C_11  and  C_13 
REMARK    7  A    between atoms: C_13  and  C_14 
REMARK    8  A    between atoms: C_13  and  N_24 
REMARK    9  A    between atoms: C_14  and  C_15 
REMARK       I    between atoms: N_24  and  C_25 
ROOT
HETATM    1  C           1     -21.161  -7.248  -5.749  0.00  0.00     0.190 C 
ENDROOT
BRANCH   1   2
HETATM    2  C           1     -21.921  -6.210  -4.961  0.00  0.00     0.197 C 
HETATM    3  O           1     -21.348  -5.573  -4.050  0.00  0.00    -0.646 OA
HETATM    4  O           1     -23.124  -5.985  -5.219  0.00  0.00    -0.646 OA
ENDBRANCH   1   2
BRANCH   1   5
HETATM    5  C           1     -20.218  -8.002  -4.820  0.00  0.00     0.077 C 
BRANCH   5   6
HETATM    6  C           1     -21.001  -8.979  -3.999  0.00  0.00    -0.028 A 
HETATM    7  C           1     -21.552 -10.157  -4.448  0.00  0.00     0.096 A 
HETATM    8  N           1     -22.183 -10.754  -3.389  0.00  0.00    -0.365 N 
HETATM    9  H           1     -22.695 -11.669  -3.434  0.00  0.00     0.165 HD
HETATM   10  C           1     -22.049  -9.981  -2.258  0.00  0.00     0.042 A 
HETATM   11  C           1     -22.524 -10.190  -0.958  0.00  0.00     0.030 A 
HETATM   12  C           1     -21.308  -8.855  -2.616  0.00  0.00    -0.002 A 
HETATM   13  C           1     -22.230  -9.218   0.003  0.00  0.00     0.002 A 
HETATM   14  C           1     -21.490  -8.083  -0.326  0.00  0.00     0.001 A 
HETATM   15  C           1     -21.023  -7.889  -1.632  0.00  0.00     0.014 A 
ENDBRANCH   5   6
ENDBRANCH   1   5
BRANCH   1  16
HETATM   16  N           1     -20.393  -6.596  -6.792  0.00  0.00    -0.344 N 
HETATM   17  H           1     -19.680  -7.111  -7.293  0.00  0.00     0.163 HD
HETATM   18  C           1     -20.632  -5.284  -7.099  0.00  0.00     0.249 C 
HETATM   19  O           1     -20.027  -4.409  -6.526  0.00  0.00    -0.271 OA
BRANCH  18  20
HETATM   20  C           1     -21.652  -4.929  -8.154  0.00  0.00     0.274 C 
BRANCH  20  21
HETATM   21  C           1     -20.983  -4.120  -9.256  0.00  0.00     0.042 C 
BRANCH  21  22
HETATM   22  C           1     -21.519  -4.564 -10.610  0.00  0.00     0.003 C 
BRANCH  22  23
HETATM   23 Se           1     -22.296  -3.036 -11.536  0.00  0.00     0.000 Se
HETATM   24  C           1     -24.106  -3.355 -10.887  0.00  0.00     0.000 C 
ENDBRANCH  22  23
ENDBRANCH  21  22
ENDBRANCH  20  21
BRANCH  20  25
HETATM   25  N           1     -22.750  -4.117  -7.533  0.00  0.00    -0.067 N 
HETATM   26  H           1     -23.503  -4.754  -7.188  0.00  0.00     0.275 HD
HETATM   27  H           1     -22.365  -3.567  -6.731  0.00  0.00     0.275 HD
HETATM   28  H           1     -23.146  -3.464  -8.246  0.00  0.00     0.275 HD
ENDBRANCH  20  25
ENDBRANCH  18  20
ENDBRANCH   1  16
TORSDOF 9
ENDMDL
MODEL 5
REMARK VINA RESULT:      -6.6      3.694      7.446
REMARK  9 active torsions:
REMARK  status: ('A' for Active; 'I' for Inactive)
REMARK    1  A    between atoms: C_1  and  C_25 
REMARK    2  A    between atoms: C_1  and  C_2 
REMARK    3  A    between atoms: C_1  and  N_6 
REMARK    4  A    between atoms: C_2  and  C_3 
REMARK    5  A    between atoms: C_3  and  Se_4 
REMARK    6  A    between atoms: C_11  and  C_13 
REMARK    7  A    between atoms: C_13  and  C_14 
REMARK    8  A    between atoms: C_13  and  N_24 
REMARK    9  A    between atoms: C_14  and  C_15 
REMARK       I    between atoms: N_24  and  C_25 
ROOT
HETATM    1  C           1     -21.403  -8.774  -2.003  0.00  0.00     0.190 C 
ENDROOT
BRANCH   1   2
HETATM    2  C           1     -22.000  -8.732  -0.618  0.00  0.00     0.197 C 
HETATM    3  O           1     -23.057  -9.354  -0.374  0.00  0.00    -0.646 OA
HETATM    4  O           1     -21.438  -8.077   0.286  0.00  0.00    -0.646 OA
ENDBRANCH   1   2
BRANCH   1   5
HETATM    5  C           1     -20.260  -9.781  -2.034  0.00  0.00     0.077 C 
BRANCH   5   6
HETATM    6  C           1     -19.692  -9.849  -3.417  0.00  0.00    -0.028 A 
HETATM    7  C           1     -20.410  -9.982  -4.584  0.00  0.00     0.096 A 
HETATM    8  N           1     -19.518 -10.004  -5.623  0.00  0.00    -0.365 N 
HETATM    9  H           1     -19.779 -10.096  -6.636  0.00  0.00     0.165 HD
HETATM   10  C           1     -18.231  -9.887  -5.149  0.00  0.00     0.042 A 
HETATM   11  C           1     -17.012  -9.862  -5.837  0.00  0.00     0.030 A 
HETATM   12  C           1     -18.313  -9.789  -3.760  0.00  0.00    -0.002 A 
HETATM   13  C           1     -15.844  -9.732  -5.080  0.00  0.00     0.002 A 
HETATM   14  C           1     -15.895  -9.631  -3.691  0.00  0.00     0.001 A 
HETATM   15  C           1     -17.123  -9.658  -3.018  0.00  0.00     0.014 A 
ENDBRANCH   5   6
ENDBRANCH   1   5
BRANCH   1  16
HETATM   16  N           1     -20.899  -7.460  -2.351  0.00  0.00    -0.344 N 
HETATM   17  H           1     -19.951  -7.201  -2.108  0.00  0.00     0.163 HD
HETATM   18  C           1     -21.704  -6.571  -3.010  0.00  0.00     0.249 C 
HETATM   19  O           1     -22.398  -5.805  -2.384  0.00  0.00    -0.271 OA
BRANCH  18  20
HETATM   20  C           1     -21.725  -6.546  -4.519  0.00  0.00     0.274 C 
BRANCH  20  21
HETATM   21  C           1     -20.740  -5.501  -5.024  0.00  0.00     0.042 C 
BRANCH  21  22
HETATM   22  C           1     -20.535  -5.677  -6.523  0.00  0.00     0.003 C 
BRANCH  22  23
HETATM   23 Se           1     -20.734  -3.955  -7.413  0.00  0.00     0.000 Se
HETATM   24  C           1     -22.571  -4.276  -7.981  0.00  0.00     0.000 C 
ENDBRANCH  22  23
ENDBRANCH  21  22
ENDBRANCH  20  21
BRANCH  20  25
HETATM   25  N           1     -23.106  -6.201  -4.992  0.00  0.00    -0.067 N 
HETATM   26  H           1     -23.808  -6.763  -4.460  0.00  0.00     0.275 HD
HETATM   27  H           1     -23.284  -5.183  -4.834  0.00  0.00     0.275 HD
HETATM   28  H           1     -23.189  -6.416  -6.012  0.00  0.00     0.275 HD
ENDBRANCH  20  25
ENDBRANCH  18  20
ENDBRANCH   1  16
TORSDOF 9
ENDMDL
MODEL 6
REMARK VINA RESULT:      -6.4      3.355      4.841
REMARK  9 active torsions:
REMARK  status: ('A' for Active; 'I' for Inactive)
REMARK    1  A    between atoms: C_1  and  C_25 
REMARK    2  A    between atoms: C_1  and  C_2 
REMARK    3  A    between atoms: C_1  and  N_6 
REMARK    4  A    between atoms: C_2  and  C_3 
REMARK    5  A    between atoms: C_3  and  Se_4 
REMARK    6  A    between atoms: C_11  and  C_13 
REMARK    7  A    between atoms: C_13  and  C_14 
REMARK    8  A    between atoms: C_13  and  N_24 
REMARK    9  A    between atoms: C_14  and  C_15 
REMARK       I    between atoms: N_24  and  C_25 
ROOT
HETATM    1  C           1     -21.433  -7.313  -3.931  0.00  0.00     0.190 C 
ENDROOT
BRANCH   1   2
HETATM    2  C           1     -21.558  -6.819  -2.511  0.00  0.00     0.197 C 
HETATM    3  O           1     -22.366  -5.906  -2.235  0.00  0.00    -0.646 OA
HETATM    4  O           1     -20.854  -7.324  -1.609  0.00  0.00    -0.646 OA
ENDBRANCH   1   2
BRANCH   1   5
HETATM    5  C           1     -22.176  -6.367  -4.865  0.00  0.00     0.077 C 
BRANCH   5   6
HETATM    6  C           1     -21.316  -6.059  -6.051  0.00  0.00    -0.028 A 
HETATM    7  C           1     -20.030  -6.504  -6.259  0.00  0.00     0.096 A 
HETATM    8  N           1     -19.601  -5.999  -7.458  0.00  0.00    -0.365 N 
HETATM    9  H           1     -18.654  -6.172  -7.877  0.00  0.00     0.165 HD
HETATM   10  C           1     -20.589  -5.234  -8.033  0.00  0.00     0.042 A 
HETATM   11  C           1     -20.600  -4.531  -9.243  0.00  0.00     0.030 A 
HETATM   12  C           1     -21.682  -5.255  -7.166  0.00  0.00    -0.002 A 
HETATM   13  C           1     -21.763  -3.829  -9.574  0.00  0.00     0.002 A 
HETATM   14  C           1     -22.870  -3.833  -8.728  0.00  0.00     0.001 A 
HETATM   15  C           1     -22.843  -4.541  -7.521  0.00  0.00     0.014 A 
ENDBRANCH   5   6
ENDBRANCH   1   5
BRANCH   1  16
HETATM   16  N           1     -22.008  -8.641  -4.032  0.00  0.00    -0.344 N 
HETATM   17  H           1     -23.013  -8.757  -4.056  0.00  0.00     0.163 HD
HETATM   18  C           1     -21.191  -9.737  -4.097  0.00  0.00     0.249 C 
HETATM   19  O           1     -20.845 -10.294  -3.082  0.00  0.00    -0.271 OA
BRANCH  18  20
HETATM   20  C           1     -20.720 -10.250  -5.437  0.00  0.00     0.274 C 
BRANCH  20  21
HETATM   21  C           1     -20.927 -11.757  -5.504  0.00  0.00     0.042 C 
BRANCH  21  22
HETATM   22  C           1     -21.360 -12.149  -6.910  0.00  0.00     0.003 C 
BRANCH  22  23
HETATM   23 Se           1     -20.224 -13.591  -7.564  0.00  0.00     0.000 Se
HETATM   24  C           1     -18.793 -12.412  -8.165  0.00  0.00     0.000 C 
ENDBRANCH  22  23
ENDBRANCH  21  22
ENDBRANCH  20  21
BRANCH  20  25
HETATM   25  N           1     -19.264  -9.937  -5.607  0.00  0.00    -0.067 N 
HETATM   26  H           1     -18.694 -10.607  -5.041  0.00  0.00     0.275 HD
HETATM   27  H           1     -19.004 -10.025  -6.616  0.00  0.00     0.275 HD
HETATM   28  H           1     -19.077  -8.961  -5.283  0.00  0.00     0.275 HD
ENDBRANCH  20  25
ENDBRANCH  18  20
ENDBRANCH   1  16
TORSDOF 9
ENDMDL
MODEL 7
REMARK VINA RESULT:      -6.3      2.853      4.470
REMARK  9 active torsions:
REMARK  status: ('A' for Active; 'I' for Inactive)
REMARK    1  A    between atoms: C_1  and  C_25 
REMARK    2  A    between atoms: C_1  and  C_2 
REMARK    3  A    between atoms: C_1  and  N_6 
REMARK    4  A    between atoms: C_2  and  C_3 
REMARK    5  A    between atoms: C_3  and  Se_4 
REMARK    6  A    between atoms: C_11  and  C_13 
REMARK    7  A    between atoms: C_13  and  C_14 
REMARK    8  A    between atoms: C_13  and  N_24 
REMARK    9  A    between atoms: C_14  and  C_15 
REMARK       I    between atoms: N_24  and  C_25 
ROOT
HETATM    1  C           1     -21.372  -7.413  -3.593  0.00  0.00     0.190 C 
ENDROOT
BRANCH   1   2
HETATM    2  C           1     -21.737  -6.785  -2.271  0.00  0.00     0.197 C 
HETATM    3  O           1     -21.748  -7.478  -1.230  0.00  0.00    -0.646 OA
HETATM    4  O           1     -22.028  -5.570  -2.214  0.00  0.00    -0.646 OA
ENDBRANCH   1   2
BRANCH   1   5
HETATM    5  C           1     -22.232  -6.810  -4.697  0.00  0.00     0.077 C 
BRANCH   5   6
HETATM    6  C           1     -21.355  -6.357  -5.821  0.00  0.00    -0.028 A 
HETATM    7  C           1     -20.039  -6.710  -6.018  0.00  0.00     0.096 A 
HETATM    8  N           1     -19.603  -6.085  -7.155  0.00  0.00    -0.365 N 
HETATM    9  H           1     -18.635  -6.169  -7.553  0.00  0.00     0.165 HD
HETATM   10  C           1     -20.616  -5.330  -7.702  0.00  0.00     0.042 A 
HETATM   11  C           1     -20.629  -4.530  -8.850  0.00  0.00     0.030 A 
HETATM   12  C           1     -21.732  -5.485  -6.879  0.00  0.00    -0.002 A 
HETATM   13  C           1     -21.821  -3.870  -9.165  0.00  0.00     0.002 A 
HETATM   14  C           1     -22.952  -4.006  -8.362  0.00  0.00     0.001 A 
HETATM   15  C           1     -22.921  -4.810  -7.216  0.00  0.00     0.014 A 
ENDBRANCH   5   6
ENDBRANCH   1   5
BRANCH   1  16
HETATM   16  N           1     -21.603  -8.843  -3.527  0.00  0.00    -0.344 N 
HETATM   17  H           1     -22.546  -9.206  -3.573  0.00  0.00     0.163 HD
HETATM   18  C           1     -20.545  -9.702  -3.405  0.00  0.00     0.249 C 
HETATM   19  O           1     -20.150 -10.022  -2.308  0.00  0.00    -0.271 OA
BRANCH  18  20
HETATM   20  C           1     -19.870 -10.250  -4.639  0.00  0.00     0.274 C 
BRANCH  20  21
HETATM   21  C           1     -18.574  -9.491  -4.889  0.00  0.00     0.042 C 
BRANCH  21  22
HETATM   22  C           1     -17.387 -10.383  -4.551  0.00  0.00     0.003 C 
BRANCH  22  23
HETATM   23 Se           1     -16.433  -9.646  -3.020  0.00  0.00     0.000 Se
HETATM   24  C           1     -16.785 -11.171  -1.858  0.00  0.00     0.000 C 
ENDBRANCH  22  23
ENDBRANCH  21  22
ENDBRANCH  20  21
BRANCH  20  25
HETATM   25  N           1     -20.781 -10.087  -5.819  0.00  0.00    -0.067 N 
HETATM   26  H           1     -20.415 -10.649  -6.622  0.00  0.00     0.275 HD
HETATM   27  H           1     -21.739 -10.422  -5.568  0.00  0.00     0.275 HD
HETATM   28  H           1     -20.823  -9.079  -6.090  0.00  0.00     0.275 HD
ENDBRANCH  20  25
ENDBRANCH  18  20
ENDBRANCH   1  16
TORSDOF 9
ENDMDL
MODEL 8
REMARK VINA RESULT:      -6.3      5.954      8.417
REMARK  9 active torsions:
REMARK  status: ('A' for Active; 'I' for Inactive)
REMARK    1  A    between atoms: C_1  and  C_25 
REMARK    2  A    between atoms: C_1  and  C_2 
REMARK    3  A    between atoms: C_1  and  N_6 
REMARK    4  A    between atoms: C_2  and  C_3 
REMARK    5  A    between atoms: C_3  and  Se_4 
REMARK    6  A    between atoms: C_11  and  C_13 
REMARK    7  A    between atoms: C_13  and  C_14 
REMARK    8  A    between atoms: C_13  and  N_24 
REMARK    9  A    between atoms: C_14  and  C_15 
REMARK       I    between atoms: N_24  and  C_25 
ROOT
HETATM    1  C           1     -19.448 -10.114  -4.830  0.00  0.00     0.190 C 
ENDROOT
BRANCH   1   2
HETATM    2  C           1     -20.882  -9.920  -5.257  0.00  0.00     0.197 C 
HETATM    3  O           1     -21.712 -10.841  -5.097  0.00  0.00    -0.646 OA
HETATM    4  O           1     -21.241  -8.838  -5.772  0.00  0.00    -0.646 OA
ENDBRANCH   1   2
BRANCH   1   5
HETATM    5  C           1     -19.061  -9.025  -3.837  0.00  0.00     0.077 C 
BRANCH   5   6
HETATM    6  C           1     -19.772  -9.259  -2.540  0.00  0.00    -0.028 A 
HETATM    7  C           1     -19.624 -10.353  -1.718  0.00  0.00     0.096 A 
HETATM    8  N           1     -20.449 -10.180  -0.638  0.00  0.00    -0.365 N 
HETATM    9  H           1     -20.547 -10.858   0.157  0.00  0.00     0.165 HD
HETATM   10  C           1     -21.130  -8.989  -0.746  0.00  0.00     0.042 A 
HETATM   11  C           1     -22.068  -8.403   0.112  0.00  0.00     0.030 A 
HETATM   12  C           1     -20.722  -8.388  -1.937  0.00  0.00    -0.002 A 
HETATM   13  C           1     -22.603  -7.166  -0.261  0.00  0.00     0.002 A 
HETATM   14  C           1     -22.213  -6.542  -1.445  0.00  0.00     0.001 A 
HETATM   15  C           1     -21.273  -7.142  -2.292  0.00  0.00     0.014 A 
ENDBRANCH   5   6
ENDBRANCH   1   5
BRANCH   1  16
HETATM   16  N           1     -18.584 -10.036  -5.992  0.00  0.00    -0.344 N 
HETATM   17  H           1     -18.249  -9.137  -6.315  0.00  0.00     0.163 HD
HETATM   18  C           1     -18.219 -11.178  -6.652  0.00  0.00     0.249 C 
HETATM   19  O           1     -18.897 -11.593  -7.562  0.00  0.00    -0.271 OA
BRANCH  18  20
HETATM   20  C           1     -16.969 -11.920  -6.244  0.00  0.00     0.274 C 
BRANCH  20  21
HETATM   21  C           1     -15.858 -10.921  -5.953  0.00  0.00     0.042 C 
BRANCH  21  22
HETATM   22  C           1     -15.548 -10.924  -4.461  0.00  0.00     0.003 C 
BRANCH  22  23
HETATM   23 Se           1     -14.482 -12.494  -4.021  0.00  0.00     0.000 Se
HETATM   24  C           1     -13.368 -12.388  -5.618  0.00  0.00     0.000 C 
ENDBRANCH  22  23
ENDBRANCH  21  22
ENDBRANCH  20  21
BRANCH  20  25
HETATM   25  N           1     -16.544 -12.831  -7.357  0.00  0.00    -0.067 N 
HETATM   26  H           1     -16.714 -13.825  -7.078  0.00  0.00     0.275 HD
HETATM   27  H           1     -17.097 -12.612  -8.216  0.00  0.00     0.275 HD
HETATM   28  H           1     -15.527 -12.693  -7.551  0.00  0.00     0.275 HD
ENDBRANCH  20  25
ENDBRANCH  18  20
ENDBRANCH   1  16
TORSDOF 9
ENDMDL
MODEL 9
REMARK VINA RESULT:      -6.3      2.719      3.728
REMARK  9 active torsions:
REMARK  status: ('A' for Active; 'I' for Inactive)
REMARK    1  A    between atoms: C_1  and  C_25 
REMARK    2  A    between atoms: C_1  and  C_2 
REMARK    3  A    between atoms: C_1  and  N_6 
REMARK    4  A    between atoms: C_2  and  C_3 
REMARK    5  A    between atoms: C_3  and  Se_4 
REMARK    6  A    between atoms: C_11  and  C_13 
REMARK    7  A    between atoms: C_13  and  C_14 
REMARK    8  A    between atoms: C_13  and  N_24 
REMARK    9  A    between atoms: C_14  and  C_15 
REMARK       I    between atoms: N_24  and  C_25 
ROOT
HETATM    1  C           1     -21.175  -6.459  -5.282  0.00  0.00     0.190 C 
ENDROOT
BRANCH   1   2
HETATM    2  C           1     -21.688  -6.346  -3.867  0.00  0.00     0.197 C 
HETATM    3  O           1     -20.887  -6.371  -2.908  0.00  0.00    -0.646 OA
HETATM    4  O           1     -22.914  -6.226  -3.654  0.00  0.00    -0.646 OA
ENDBRANCH   1   2
BRANCH   1   5
HETATM    5  C           1     -21.971  -5.526  -6.187  0.00  0.00     0.077 C 
BRANCH   5   6
HETATM    6  C           1     -21.078  -4.993  -7.263  0.00  0.00    -0.028 A 
HETATM    7  C           1     -19.737  -4.707  -7.138  0.00  0.00     0.096 A 
HETATM    8  N           1     -19.294  -4.242  -8.347  0.00  0.00    -0.365 N 
HETATM    9  H           1     -18.308  -3.944  -8.551  0.00  0.00     0.165 HD
HETATM   10  C           1     -20.327  -4.222  -9.258  0.00  0.00     0.042 A 
HETATM   11  C           1     -20.341  -3.829 -10.601  0.00  0.00     0.030 A 
HETATM   12  C           1     -21.463  -4.691  -8.598  0.00  0.00    -0.002 A 
HETATM   13  C           1     -21.555  -3.919 -11.288  0.00  0.00     0.002 A 
HETATM   14  C           1     -22.707  -4.384 -10.656  0.00  0.00     0.001 A 
HETATM   15  C           1     -22.675  -4.773  -9.311  0.00  0.00     0.014 A 
ENDBRANCH   5   6
ENDBRANCH   1   5
BRANCH   1  16
HETATM   16  N           1     -21.328  -7.825  -5.742  0.00  0.00    -0.344 N 
HETATM   17  H           1     -21.676  -8.009  -6.675  0.00  0.00     0.163 HD
HETATM   18  C           1     -20.999  -8.866  -4.917  0.00  0.00     0.249 C 
HETATM   19  O           1     -21.833  -9.342  -4.183  0.00  0.00    -0.271 OA
BRANCH  18  20
HETATM   20  C           1     -19.595  -9.421  -4.924  0.00  0.00     0.274 C 
BRANCH  20  21
HETATM   21  C           1     -18.917  -9.102  -3.599  0.00  0.00     0.042 C 
BRANCH  21  22
HETATM   22  C           1     -18.033 -10.271  -3.185  0.00  0.00     0.003 C 
BRANCH  22  23
HETATM   23 Se           1     -16.192  -9.660  -2.994  0.00  0.00     0.000 Se
HETATM   24  C           1     -15.423 -11.450  -3.013  0.00  0.00     0.000 C 
ENDBRANCH  22  23
ENDBRANCH  21  22
ENDBRANCH  20  21
BRANCH  20  25
HETATM   25  N           1     -18.819  -8.799  -6.046  0.00  0.00    -0.067 N 
HETATM   26  H           1     -19.468  -8.256  -6.660  0.00  0.00     0.275 HD
HETATM   27  H           1     -18.093  -8.157  -5.654  0.00  0.00     0.275 HD
HETATM   28  H           1     -18.355  -9.549  -6.606  0.00  0.00     0.275 HD
ENDBRANCH  20  25
ENDBRANCH  18  20
ENDBRANCH   1  16
TORSDOF 9
ENDMDL
