MODEL 1
REMARK VINA RESULT:      -4.9      0.000      0.000
REMARK  4 active torsions:
REMARK  status: ('A' for Active; 'I' for Inactive)
REMARK    1  A    between atoms: C_8  and  C_10 
REMARK    2  A    between atoms: C_10  and  C_11 
REMARK    3  A    between atoms: C_10  and  N_14 
REMARK       I    between atoms: N_14  and  C_15 
REMARK    4  A    between atoms: C_15  and  C_18 
ROOT
HETATM    1  H           1     -22.326  -8.435  -2.462  0.00  0.00     0.163 HD
HETATM    2  O           1     -19.680 -10.054  -1.994  0.00  0.00    -0.271 OA
HETATM    3  N           1     -21.678  -9.059  -1.996  0.00  0.00    -0.344 N 
HETATM    4  C           1     -20.452  -9.310  -2.550  0.00  0.00     0.249 C 
ENDROOT
BRANCH   4   5
HETATM    5  C           1     -20.065  -8.659  -3.855  0.00  0.00     0.274 C 
HETATM    6  N           1     -18.696  -9.121  -4.257  0.00  0.00    -0.067 N 
HETATM    7  H           1     -18.427  -8.671  -5.161  0.00  0.00     0.275 HD
HETATM    8  H           1     -18.008  -8.854  -3.517  0.00  0.00     0.275 HD
HETATM    9  H           1     -18.699 -10.160  -4.373  0.00  0.00     0.275 HD
HETATM   10 Se           1     -19.292 -11.161  -5.626  0.00  0.00     0.000 Se
HETATM   11  C           1     -21.072 -10.561  -5.104  0.00  0.00     0.003 C 
HETATM   12  C           1     -19.775 -13.047  -5.716  0.00  0.00     0.000 C 
HETATM   13  C           1     -21.068  -9.048  -4.934  0.00  0.00     0.042 C 
ENDBRANCH   4   5
BRANCH   3  14
HETATM   14  C           1     -22.050  -9.684  -0.742  0.00  0.00     0.189 C 
BRANCH  14  15
HETATM   15  C           1     -22.367  -8.608   0.288  0.00  0.00     0.010 C 
HETATM   16  C           1     -21.230  -8.521   1.297  0.00  0.00     0.012 C 
HETATM   17  C           1     -22.528  -7.267  -0.415  0.00  0.00     0.012 C 
ENDBRANCH  14  15
BRANCH  14  18
HETATM   18  C           1     -23.268 -10.552  -0.956  0.00  0.00     0.197 C 
HETATM   19  O           1     -24.119 -10.668  -0.048  0.00  0.00    -0.646 OA
HETATM   20  O           1     -23.423 -11.153  -2.040  0.00  0.00    -0.646 OA
ENDBRANCH  14  18
ENDBRANCH   3  14
TORSDOF 4
ENDMDL
MODEL 2
REMARK VINA RESULT:      -4.8      4.170      5.420
REMARK  4 active torsions:
REMARK  status: ('A' for Active; 'I' for Inactive)
REMARK    1  A    between atoms: C_8  and  C_10 
REMARK    2  A    between atoms: C_10  and  C_11 
REMARK    3  A    between atoms: C_10  and  N_14 
REMARK       I    between atoms: N_14  and  C_15 
REMARK    4  A    between atoms: C_15  and  C_18 
ROOT
HETATM    1  H           1     -19.846  -6.341  -3.868  0.00  0.00     0.163 HD
HETATM    2  O           1     -21.464  -7.449  -6.317  0.00  0.00    -0.271 OA
HETATM    3  N           1     -20.543  -6.884  -4.363  0.00  0.00    -0.344 N 
HETATM    4  C           1     -20.632  -6.802  -5.727  0.00  0.00     0.249 C 
ENDROOT
BRANCH   4   5
HETATM    5  C           1     -19.691  -5.904  -6.492  0.00  0.00     0.274 C 
HETATM    6  N           1     -19.814  -6.188  -7.960  0.00  0.00    -0.067 N 
HETATM    7  H           1     -19.163  -5.567  -8.491  0.00  0.00     0.275 HD
HETATM    8  H           1     -19.567  -7.188  -8.142  0.00  0.00     0.275 HD
HETATM    9  H           1     -20.796  -6.009  -8.269  0.00  0.00     0.275 HD
HETATM   10 Se           1     -21.639  -4.555  -8.585  0.00  0.00     0.000 Se
HETATM   11  C           1     -21.481  -4.185  -6.678  0.00  0.00     0.003 C 
HETATM   12  C           1     -23.532  -4.100  -8.682  0.00  0.00     0.000 C 
HETATM   13  C           1     -20.049  -4.448  -6.227  0.00  0.00     0.042 C 
ENDBRANCH   4   5
BRANCH   3  14
HETATM   14  C           1     -21.447  -7.746  -3.627  0.00  0.00     0.189 C 
BRANCH  14  15
HETATM   15  C           1     -20.742  -9.054  -3.295  0.00  0.00     0.010 C 
HETATM   16  C           1     -21.368 -10.186  -4.099  0.00  0.00     0.012 C 
HETATM   17  C           1     -19.265  -8.937  -3.646  0.00  0.00     0.012 C 
ENDBRANCH  14  15
BRANCH  14  18
HETATM   18  C           1     -21.866  -7.060  -2.349  0.00  0.00     0.197 C 
HETATM   19  O           1     -22.392  -5.927  -2.391  0.00  0.00    -0.646 OA
HETATM   20  O           1     -21.685  -7.625  -1.249  0.00  0.00    -0.646 OA
ENDBRANCH  14  18
ENDBRANCH   3  14
TORSDOF 4
ENDMDL
MODEL 3
REMARK VINA RESULT:      -4.7      7.955      9.823
REMARK  4 active torsions:
REMARK  status: ('A' for Active; 'I' for Inactive)
REMARK    1  A    between atoms: C_8  and  C_10 
REMARK    2  A    between atoms: C_10  and  C_11 
REMARK    3  A    between atoms: C_10  and  N_14 
REMARK       I    between atoms: N_14  and  C_15 
REMARK    4  A    between atoms: C_15  and  C_18 
ROOT
HETATM    1  H           1     -22.372  -3.029  -9.049  0.00  0.00     0.163 HD
HETATM    2  O           1     -20.065  -5.025  -9.782  0.00  0.00    -0.271 OA
HETATM    3  N           1     -21.873  -3.730  -9.583  0.00  0.00    -0.344 N 
HETATM    4  C           1     -20.660  -4.188  -9.144  0.00  0.00     0.249 C 
ENDROOT
BRANCH   4   5
HETATM    5  C           1     -20.066  -3.649  -7.867  0.00  0.00     0.274 C 
HETATM    6  N           1     -21.154  -3.458  -6.852  0.00  0.00    -0.067 N 
HETATM    7  H           1     -20.743  -3.084  -5.967  0.00  0.00     0.275 HD
HETATM    8  H           1     -21.858  -2.779  -7.222  0.00  0.00     0.275 HD
HETATM    9  H           1     -21.618  -4.374  -6.661  0.00  0.00     0.275 HD
HETATM   10 Se           1     -21.129  -5.722  -5.729  0.00  0.00     0.000 Se
HETATM   11  C           1     -19.715  -5.973  -7.048  0.00  0.00     0.003 C 
HETATM   12  C           1     -21.664  -7.596  -5.706  0.00  0.00     0.000 C 
HETATM   13  C           1     -19.039  -4.637  -7.327  0.00  0.00     0.042 C 
ENDBRANCH   4   5
BRANCH   3  14
HETATM   14  C           1     -22.445  -4.248 -10.810  0.00  0.00     0.189 C 
BRANCH  14  15
HETATM   15  C           1     -23.943  -4.451 -10.626  0.00  0.00     0.010 C 
HETATM   16  C           1     -24.191  -5.768  -9.902  0.00  0.00     0.012 C 
HETATM   17  C           1     -24.513  -3.303  -9.804  0.00  0.00     0.012 C 
ENDBRANCH  14  15
BRANCH  14  18
HETATM   18  C           1     -22.204  -3.264 -11.930  0.00  0.00     0.197 C 
HETATM   19  O           1     -22.759  -3.430 -13.037  0.00  0.00    -0.646 OA
HETATM   20  O           1     -21.449  -2.285 -11.749  0.00  0.00    -0.646 OA
ENDBRANCH  14  18
ENDBRANCH   3  14
TORSDOF 4
ENDMDL
MODEL 4
REMARK VINA RESULT:      -4.7      2.346      3.072
REMARK  4 active torsions:
REMARK  status: ('A' for Active; 'I' for Inactive)
REMARK    1  A    between atoms: C_8  and  C_10 
REMARK    2  A    between atoms: C_10  and  C_11 
REMARK    3  A    between atoms: C_10  and  N_14 
REMARK       I    between atoms: N_14  and  C_15 
REMARK    4  A    between atoms: C_15  and  C_18 
ROOT
HETATM    1  H           1     -19.755  -8.417  -0.936  0.00  0.00     0.163 HD
HETATM    2  O           1     -20.845 -10.817  -2.636  0.00  0.00    -0.271 OA
HETATM    3  N           1     -20.427  -8.971  -1.452  0.00  0.00    -0.344 N 
HETATM    4  C           1     -20.043 -10.156  -2.020  0.00  0.00     0.249 C 
ENDROOT
BRANCH   4   5
HETATM    5  C           1     -18.619 -10.635  -1.879  0.00  0.00     0.274 C 
HETATM    6  N           1     -18.527 -12.065  -2.321  0.00  0.00    -0.067 N 
HETATM    7  H           1     -17.542 -12.398  -2.224  0.00  0.00     0.275 HD
HETATM    8  H           1     -19.154 -12.654  -1.726  0.00  0.00     0.275 HD
HETATM    9  H           1     -18.823 -12.141  -3.321  0.00  0.00     0.275 HD
HETATM   10 Se           1     -18.016 -11.748  -4.777  0.00  0.00     0.000 Se
HETATM   11  C           1     -18.135  -9.888  -4.203  0.00  0.00     0.003 C 
HETATM   12  C           1     -18.630 -11.397  -6.593  0.00  0.00     0.000 C 
HETATM   13  C           1     -17.705  -9.778  -2.746  0.00  0.00     0.042 C 
ENDBRANCH   4   5
BRANCH   3  14
HETATM   14  C           1     -21.794  -8.510  -1.588  0.00  0.00     0.189 C 
BRANCH  14  15
HETATM   15  C           1     -22.488  -8.575  -0.234  0.00  0.00     0.010 C 
HETATM   16  C           1     -23.280  -9.872  -0.132  0.00  0.00     0.012 C 
HETATM   17  C           1     -21.444  -8.527   0.873  0.00  0.00     0.012 C 
ENDBRANCH  14  15
BRANCH  14  18
HETATM   18  C           1     -21.796  -7.085  -2.088  0.00  0.00     0.197 C 
HETATM   19  O           1     -21.074  -6.761  -3.055  0.00  0.00    -0.646 OA
HETATM   20  O           1     -22.521  -6.231  -1.534  0.00  0.00    -0.646 OA
ENDBRANCH  14  18
ENDBRANCH   3  14
TORSDOF 4
ENDMDL
MODEL 5
REMARK VINA RESULT:      -4.7      2.651      4.352
REMARK  4 active torsions:
REMARK  status: ('A' for Active; 'I' for Inactive)
REMARK    1  A    between atoms: C_8  and  C_10 
REMARK    2  A    between atoms: C_10  and  C_11 
REMARK    3  A    between atoms: C_10  and  N_14 
REMARK       I    between atoms: N_14  and  C_15 
REMARK    4  A    between atoms: C_15  and  C_18 
ROOT
HETATM    1  H           1     -22.798  -9.478  -2.263  0.00  0.00     0.163 HD
HETATM    2  O           1     -21.191  -9.461   0.431  0.00  0.00    -0.271 OA
HETATM    3  N           1     -22.102  -9.185  -1.589  0.00  0.00    -0.344 N 
HETATM    4  C           1     -22.022  -9.811  -0.374  0.00  0.00     0.249 C 
ENDROOT
BRANCH   4   5
HETATM    5  C           1     -22.969 -10.937  -0.040  0.00  0.00     0.274 C 
HETATM    6  N           1     -23.886 -11.178  -1.202  0.00  0.00    -0.067 N 
HETATM    7  H           1     -24.543 -11.957  -0.972  0.00  0.00     0.275 HD
HETATM    8  H           1     -24.434 -10.308  -1.399  0.00  0.00     0.275 HD
HETATM    9  H           1     -23.323 -11.434  -2.044  0.00  0.00     0.275 HD
HETATM   10 Se           1     -22.546 -12.891  -2.490  0.00  0.00     0.000 Se
HETATM   11  C           1     -21.352 -12.578  -0.980  0.00  0.00     0.003 C 
HETATM   12  C           1     -21.115 -13.313  -3.743  0.00  0.00     0.000 C 
HETATM   13  C           1     -22.173 -12.203   0.247  0.00  0.00     0.042 C 
ENDBRANCH   4   5
BRANCH   3  14
HETATM   14  C           1     -21.192  -8.104  -1.910  0.00  0.00     0.189 C 
BRANCH  14  15
HETATM   15  C           1     -20.590  -8.339  -3.289  0.00  0.00     0.010 C 
HETATM   16  C           1     -19.237  -9.023  -3.143  0.00  0.00     0.012 C 
HETATM   17  C           1     -21.523  -9.225  -4.103  0.00  0.00     0.012 C 
ENDBRANCH  14  15
BRANCH  14  18
HETATM   18  C           1     -21.945  -6.795  -1.905  0.00  0.00     0.197 C 
HETATM   19  O           1     -22.696  -6.510  -0.947  0.00  0.00    -0.646 OA
HETATM   20  O           1     -21.819  -5.998  -2.859  0.00  0.00    -0.646 OA
ENDBRANCH  14  18
ENDBRANCH   3  14
TORSDOF 4
ENDMDL
MODEL 6
REMARK VINA RESULT:      -4.6      1.345      1.701
REMARK  4 active torsions:
REMARK  status: ('A' for Active; 'I' for Inactive)
REMARK    1  A    between atoms: C_8  and  C_10 
REMARK    2  A    between atoms: C_10  and  C_11 
REMARK    3  A    between atoms: C_10  and  N_14 
REMARK       I    between atoms: N_14  and  C_15 
REMARK    4  A    between atoms: C_15  and  C_18 
ROOT
HETATM    1  H           1     -22.382  -9.186  -2.902  0.00  0.00     0.163 HD
HETATM    2  O           1     -19.271  -8.799  -3.007  0.00  0.00    -0.271 OA
HETATM    3  N           1     -21.440  -9.065  -2.551  0.00  0.00    -0.344 N 
HETATM    4  C           1     -20.395  -8.943  -3.427  0.00  0.00     0.249 C 
ENDROOT
BRANCH   4   5
HETATM    5  C           1     -20.646  -8.989  -4.914  0.00  0.00     0.274 C 
HETATM    6  N           1     -19.383  -8.641  -5.644  0.00  0.00    -0.067 N 
HETATM    7  H           1     -19.555  -8.673  -6.674  0.00  0.00     0.275 HD
HETATM    8  H           1     -19.078  -7.679  -5.371  0.00  0.00     0.275 HD
HETATM    9  H           1     -18.635  -9.328  -5.395  0.00  0.00     0.275 HD
HETATM   10 Se           1     -18.360 -10.939  -5.899  0.00  0.00     0.000 Se
HETATM   11  C           1     -20.001 -11.392  -4.949  0.00  0.00     0.003 C 
HETATM   12  C           1     -17.328 -12.415  -5.154  0.00  0.00     0.000 C 
HETATM   13  C           1     -21.090 -10.391  -5.311  0.00  0.00     0.042 C 
ENDBRANCH   4   5
BRANCH   3  14
HETATM   14  C           1     -21.200  -9.021  -1.122  0.00  0.00     0.189 C 
BRANCH  14  15
HETATM   15  C           1     -22.277  -8.179  -0.452  0.00  0.00     0.010 C 
HETATM   16  C           1     -21.954  -8.027   1.029  0.00  0.00     0.012 C 
HETATM   17  C           1     -22.326  -6.805  -1.106  0.00  0.00     0.012 C 
ENDBRANCH  14  15
BRANCH  14  18
HETATM   18  C           1     -21.236 -10.424  -0.564  0.00  0.00     0.197 C 
HETATM   19  O           1     -20.211 -10.916  -0.044  0.00  0.00    -0.646 OA
HETATM   20  O           1     -22.290 -11.092  -0.621  0.00  0.00    -0.646 OA
ENDBRANCH  14  18
ENDBRANCH   3  14
TORSDOF 4
ENDMDL
MODEL 7
REMARK VINA RESULT:      -4.6      1.800      2.640
REMARK  4 active torsions:
REMARK  status: ('A' for Active; 'I' for Inactive)
REMARK    1  A    between atoms: C_8  and  C_10 
REMARK    2  A    between atoms: C_10  and  C_11 
REMARK    3  A    between atoms: C_10  and  N_14 
REMARK       I    between atoms: N_14  and  C_15 
REMARK    4  A    between atoms: C_15  and  C_18 
ROOT
HETATM    1  H           1     -22.416  -9.772  -2.639  0.00  0.00     0.163 HD
HETATM    2  O           1     -19.497 -10.633  -1.877  0.00  0.00    -0.271 OA
HETATM    3  N           1     -21.615  -9.948  -2.044  0.00  0.00    -0.344 N 
HETATM    4  C           1     -20.452 -10.423  -2.587  0.00  0.00     0.249 C 
ENDROOT
BRANCH   4   5
HETATM    5  C           1     -20.362 -10.684  -4.071  0.00  0.00     0.274 C 
HETATM    6  N           1     -21.676 -10.358  -4.715  0.00  0.00    -0.067 N 
HETATM    7  H           1     -21.615 -10.539  -5.743  0.00  0.00     0.275 HD
HETATM    8  H           1     -22.425 -10.959  -4.300  0.00  0.00     0.275 HD
HETATM    9  H           1     -21.905  -9.351  -4.551  0.00  0.00     0.275 HD
HETATM   10 Se           1     -21.312  -7.920  -5.276  0.00  0.00     0.000 Se
HETATM   11  C           1     -19.604  -8.343  -4.438  0.00  0.00     0.003 C 
HETATM   12  C           1     -21.303  -6.050  -4.729  0.00  0.00     0.000 C 
HETATM   13  C           1     -19.271  -9.810  -4.675  0.00  0.00     0.042 C 
ENDBRANCH   4   5
BRANCH   3  14
HETATM   14  C           1     -21.702  -9.697  -0.619  0.00  0.00     0.189 C 
BRANCH  14  15
HETATM   15  C           1     -22.429  -8.380  -0.379  0.00  0.00     0.010 C 
HETATM   16  C           1     -22.200  -7.929   1.057  0.00  0.00     0.012 C 
HETATM   17  C           1     -21.892  -7.324  -1.336  0.00  0.00     0.012 C 
ENDBRANCH  14  15
BRANCH  14  18
HETATM   18  C           1     -22.463 -10.820   0.043  0.00  0.00     0.197 C 
HETATM   19  O           1     -21.847 -11.699   0.684  0.00  0.00    -0.646 OA
HETATM   20  O           1     -23.708 -10.871  -0.050  0.00  0.00    -0.646 OA
ENDBRANCH  14  18
ENDBRANCH   3  14
TORSDOF 4
ENDMDL
MODEL 8
REMARK VINA RESULT:      -4.5      2.195      2.730
REMARK  4 active torsions:
REMARK  status: ('A' for Active; 'I' for Inactive)
REMARK    1  A    between atoms: C_8  and  C_10 
REMARK    2  A    between atoms: C_10  and  C_11 
REMARK    3  A    between atoms: C_10  and  N_14 
REMARK       I    between atoms: N_14  and  C_15 
REMARK    4  A    between atoms: C_15  and  C_18 
ROOT
HETATM    1  H           1     -20.063  -9.338  -1.136  0.00  0.00     0.163 HD
HETATM    2  O           1     -21.715  -8.604  -3.700  0.00  0.00    -0.271 OA
HETATM    3  N           1     -20.878  -9.112  -1.694  0.00  0.00    -0.344 N 
HETATM    4  C           1     -20.743  -8.874  -3.035  0.00  0.00     0.249 C 
ENDROOT
BRANCH   4   5
HETATM    5  C           1     -19.382  -8.949  -3.683  0.00  0.00     0.274 C 
HETATM    6  N           1     -18.365  -9.361  -2.660  0.00  0.00    -0.067 N 
HETATM    7  H           1     -17.422  -9.413  -3.108  0.00  0.00     0.275 HD
HETATM    8  H           1     -18.345  -8.658  -1.887  0.00  0.00     0.275 HD
HETATM    9  H           1     -18.619 -10.298  -2.273  0.00  0.00     0.275 HD
HETATM   10 Se           1     -18.458 -11.874  -2.918  0.00  0.00     0.000 Se
HETATM   11  C           1     -19.781 -11.340  -4.246  0.00  0.00     0.003 C 
HETATM   12  C           1     -19.314 -13.578  -2.513  0.00  0.00     0.000 C 
HETATM   13  C           1     -19.411  -9.973  -4.809  0.00  0.00     0.042 C 
ENDBRANCH   4   5
BRANCH   3  14
HETATM   14  C           1     -22.184  -9.040  -1.071  0.00  0.00     0.189 C 
BRANCH  14  15
HETATM   15  C           1     -22.348 -10.201  -0.099  0.00  0.00     0.010 C 
HETATM   16  C           1     -23.654 -10.927  -0.392  0.00  0.00     0.012 C 
HETATM   17  C           1     -21.182 -11.166  -0.262  0.00  0.00     0.012 C 
ENDBRANCH  14  15
BRANCH  14  18
HETATM   18  C           1     -22.313  -7.735  -0.323  0.00  0.00     0.197 C 
HETATM   19  O           1     -22.068  -7.689   0.902  0.00  0.00    -0.646 OA
HETATM   20  O           1     -22.665  -6.700  -0.930  0.00  0.00    -0.646 OA
ENDBRANCH  14  18
ENDBRANCH   3  14
TORSDOF 4
ENDMDL
MODEL 9
REMARK VINA RESULT:      -4.5     17.128     18.777
REMARK  4 active torsions:
REMARK  status: ('A' for Active; 'I' for Inactive)
REMARK    1  A    between atoms: C_8  and  C_10 
REMARK    2  A    between atoms: C_10  and  C_11 
REMARK    3  A    between atoms: C_10  and  N_14 
REMARK       I    between atoms: N_14  and  C_15 
REMARK    4  A    between atoms: C_15  and  C_18 
ROOT
HETATM    1  H           1     -24.539   9.028  -2.234  0.00  0.00     0.163 HD
HETATM    2  O           1     -26.698   8.136  -0.140  0.00  0.00    -0.271 OA
HETATM    3  N           1     -24.911   8.594  -1.398  0.00  0.00    -0.344 N 
HETATM    4  C           1     -26.254   8.654  -1.137  0.00  0.00     0.249 C 
ENDROOT
BRANCH   4   5
HETATM    5  C           1     -27.179   9.365  -2.094  0.00  0.00     0.274 C 
HETATM    6  N           1     -26.369  10.034  -3.165  0.00  0.00    -0.067 N 
HETATM    7  H           1     -27.008  10.527  -3.829  0.00  0.00     0.275 HD
HETATM    8  H           1     -25.720  10.727  -2.728  0.00  0.00     0.275 HD
HETATM    9  H           1     -25.815   9.316  -3.684  0.00  0.00     0.275 HD
HETATM   10 Se           1     -26.267   8.180  -4.880  0.00  0.00     0.000 Se
HETATM   11  C           1     -27.318   7.309  -3.489  0.00  0.00     0.003 C 
HETATM   12  C           1     -25.458   6.530  -5.530  0.00  0.00     0.000 C 
HETATM   13  C           1     -28.125   8.356  -2.732  0.00  0.00     0.042 C 
ENDBRANCH   4   5
BRANCH   3  14
HETATM   14  C           1     -24.023   7.911  -0.479  0.00  0.00     0.189 C 
BRANCH  14  15
HETATM   15  C           1     -23.146   6.935  -1.252  0.00  0.00     0.010 C 
HETATM   16  C           1     -23.932   5.662  -1.535  0.00  0.00     0.012 C 
HETATM   17  C           1     -22.717   7.572  -2.566  0.00  0.00     0.012 C 
ENDBRANCH  14  15
BRANCH  14  18
HETATM   18  C           1     -23.152   8.924   0.224  0.00  0.00     0.197 C 
HETATM   19  O           1     -23.116  10.106  -0.183  0.00  0.00    -0.646 OA
HETATM   20  O           1     -22.467   8.581   1.211  0.00  0.00    -0.646 OA
ENDBRANCH  14  18
ENDBRANCH   3  14
TORSDOF 4
ENDMDL
