MODEL 1
REMARK VINA RESULT:      -5.7      0.000      0.000
REMARK  8 active torsions:
REMARK  status: ('A' for Active; 'I' for Inactive)
REMARK    1  A    between atoms: C_1  and  C_13 
REMARK    2  A    between atoms: C_1  and  C_3 
REMARK    3  A    between atoms: C_3  and  C_4 
REMARK    4  A    between atoms: C_3  and  N_9 
REMARK    5  A    between atoms: N_6  and  C_14 
REMARK       I    between atoms: N_9  and  C_19 
REMARK    6  A    between atoms: C_14  and  C_19 
REMARK    7  A    between atoms: C_14  and  C_15 
REMARK    8  A    between atoms: C_15  and  S_16 
ROOT
HETATM    1  O           1     -21.620  -3.403  -7.401  0.00  0.00    -0.271 OA
HETATM    2  N           1     -22.352  -4.856  -8.932  0.00  0.00    -0.344 N 
HETATM    3  H           1     -22.437  -5.821  -9.227  0.00  0.00     0.163 HD
HETATM    4  C           1     -21.724  -4.555  -7.753  0.00  0.00     0.249 C 
ENDROOT
BRANCH   2   5
HETATM    5  C           1     -22.892  -3.795  -9.758  0.00  0.00     0.189 C 
BRANCH   5   6
HETATM    6  C           1     -22.461  -4.007 -11.204  0.00  0.00     0.014 C 
HETATM    7  C           1     -22.838  -2.784 -12.029  0.00  0.00     0.012 C 
BRANCH   6   8
HETATM    8  C           1     -20.954  -4.212 -11.258  0.00  0.00     0.002 C 
HETATM    9  C           1     -20.253  -2.863 -11.159  0.00  0.00     0.005 C 
ENDBRANCH   6   8
ENDBRANCH   5   6
BRANCH   5  10
HETATM   10  C           1     -24.399  -3.811  -9.674  0.00  0.00     0.197 C 
HETATM   11  O           1     -25.023  -2.753  -9.439  0.00  0.00    -0.646 OA
HETATM   12  O           1     -25.023  -4.881  -9.840  0.00  0.00    -0.646 OA
ENDBRANCH   5  10
ENDBRANCH   2   5
BRANCH   4  13
HETATM   13  C           1     -21.161  -5.660  -6.893  0.00  0.00     0.283 C 
BRANCH  13  14
HETATM   14  N           1     -19.906  -6.190  -7.522  0.00  0.00    -0.066 N 
HETATM   15  H           1     -19.838  -7.219  -7.350  0.00  0.00     0.275 HD
HETATM   16  H           1     -19.930  -6.011  -8.551  0.00  0.00     0.275 HD
HETATM   17  H           1     -19.077  -5.712  -7.103  0.00  0.00     0.275 HD
ENDBRANCH  13  14
BRANCH  13  18
HETATM   18  C           1     -20.842  -5.113  -5.508  0.00  0.00     0.113 C 
BRANCH  18  19
HETATM   19  S           1     -21.386  -6.301  -4.247  0.00  0.00    -0.180 SA
HETATM   20  H           1     -22.129  -7.055  -5.075  0.00  0.00     0.101 HD
ENDBRANCH  18  19
ENDBRANCH  13  18
ENDBRANCH   4  13
TORSDOF 8
ENDMDL
MODEL 2
REMARK VINA RESULT:      -5.2      4.052      5.868
REMARK  8 active torsions:
REMARK  status: ('A' for Active; 'I' for Inactive)
REMARK    1  A    between atoms: C_1  and  C_13 
REMARK    2  A    between atoms: C_1  and  C_3 
REMARK    3  A    between atoms: C_3  and  C_4 
REMARK    4  A    between atoms: C_3  and  N_9 
REMARK    5  A    between atoms: N_6  and  C_14 
REMARK       I    between atoms: N_9  and  C_19 
REMARK    6  A    between atoms: C_14  and  C_19 
REMARK    7  A    between atoms: C_14  and  C_15 
REMARK    8  A    between atoms: C_15  and  S_16 
ROOT
HETATM    1  O           1     -23.934  -4.285 -12.790  0.00  0.00    -0.271 OA
HETATM    2  N           1     -22.720  -3.081 -11.351  0.00  0.00    -0.344 N 
HETATM    3  H           1     -22.144  -2.266 -11.189  0.00  0.00     0.163 HD
HETATM    4  C           1     -23.245  -3.311 -12.595  0.00  0.00     0.249 C 
ENDROOT
BRANCH   2   5
HETATM    5  C           1     -22.990  -4.007 -10.269  0.00  0.00     0.189 C 
BRANCH   5   6
HETATM    6  C           1     -22.049  -3.715  -9.106  0.00  0.00     0.014 C 
HETATM    7  C           1     -22.492  -4.509  -7.884  0.00  0.00     0.012 C 
BRANCH   6   8
HETATM    8  C           1     -20.632  -4.120  -9.488  0.00  0.00     0.002 C 
HETATM    9  C           1     -20.013  -4.934  -8.359  0.00  0.00     0.005 C 
ENDBRANCH   6   8
ENDBRANCH   5   6
BRANCH   5  10
HETATM   10  C           1     -24.419  -3.844  -9.813  0.00  0.00     0.197 C 
HETATM   11  O           1     -25.161  -4.845  -9.711  0.00  0.00    -0.646 OA
HETATM   12  O           1     -24.861  -2.708  -9.536  0.00  0.00    -0.646 OA
ENDBRANCH   5  10
ENDBRANCH   2   5
BRANCH   4  13
HETATM   13  C           1     -22.965  -2.348 -13.722  0.00  0.00     0.283 C 
BRANCH  13  14
HETATM   14  N           1     -22.389  -3.098 -14.887  0.00  0.00    -0.066 N 
HETATM   15  H           1     -23.034  -3.021 -15.706  0.00  0.00     0.275 HD
HETATM   16  H           1     -21.460  -2.690 -15.138  0.00  0.00     0.275 HD
HETATM   17  H           1     -22.271  -4.104 -14.630  0.00  0.00     0.275 HD
ENDBRANCH  13  14
BRANCH  13  18
HETATM   18  C           1     -24.262  -1.672 -14.147  0.00  0.00     0.113 C 
BRANCH  18  19
HETATM   19  S           1     -23.912  -0.444 -15.437  0.00  0.00    -0.180 SA
HETATM   20  H           1     -23.072   0.301 -14.698  0.00  0.00     0.101 HD
ENDBRANCH  18  19
ENDBRANCH  13  18
ENDBRANCH   4  13
TORSDOF 8
ENDMDL
MODEL 3
REMARK VINA RESULT:      -4.9      3.160      5.357
REMARK  8 active torsions:
REMARK  status: ('A' for Active; 'I' for Inactive)
REMARK    1  A    between atoms: C_1  and  C_13 
REMARK    2  A    between atoms: C_1  and  C_3 
REMARK    3  A    between atoms: C_3  and  C_4 
REMARK    4  A    between atoms: C_3  and  N_9 
REMARK    5  A    between atoms: N_6  and  C_14 
REMARK       I    between atoms: N_9  and  C_19 
REMARK    6  A    between atoms: C_14  and  C_19 
REMARK    7  A    between atoms: C_14  and  C_15 
REMARK    8  A    between atoms: C_15  and  S_16 
ROOT
HETATM    1  O           1     -23.341  -4.595 -10.018  0.00  0.00    -0.271 OA
HETATM    2  N           1     -21.234  -4.283  -9.342  0.00  0.00    -0.344 N 
HETATM    3  H           1     -20.330  -3.863  -9.519  0.00  0.00     0.163 HD
HETATM    4  C           1     -22.261  -4.093 -10.228  0.00  0.00     0.249 C 
ENDROOT
BRANCH   2   5
HETATM    5  C           1     -21.441  -5.086  -8.154  0.00  0.00     0.189 C 
BRANCH   5   6
HETATM    6  C           1     -20.093  -5.543  -7.609  0.00  0.00     0.014 C 
HETATM    7  C           1     -19.050  -4.465  -7.869  0.00  0.00     0.012 C 
BRANCH   6   8
HETATM    8  C           1     -20.209  -5.788  -6.111  0.00  0.00     0.002 C 
HETATM    9  C           1     -20.449  -7.270  -5.854  0.00  0.00     0.005 C 
ENDBRANCH   6   8
ENDBRANCH   5   6
BRANCH   5  10
HETATM   10  C           1     -22.153  -4.262  -7.109  0.00  0.00     0.197 C 
HETATM   11  O           1     -23.182  -4.707  -6.556  0.00  0.00    -0.646 OA
HETATM   12  O           1     -21.712  -3.135  -6.794  0.00  0.00    -0.646 OA
ENDBRANCH   5  10
ENDBRANCH   2   5
BRANCH   4  13
HETATM   13  C           1     -22.046  -3.257 -11.466  0.00  0.00     0.283 C 
BRANCH  13  14
HETATM   14  N           1     -21.325  -4.072 -12.498  0.00  0.00    -0.066 N 
HETATM   15  H           1     -21.783  -5.008 -12.586  0.00  0.00     0.275 HD
HETATM   16  H           1     -21.363  -3.580 -13.419  0.00  0.00     0.275 HD
HETATM   17  H           1     -20.329  -4.199 -12.210  0.00  0.00     0.275 HD
ENDBRANCH  13  14
BRANCH  13  18
HETATM   18  C           1     -23.393  -2.814 -12.020  0.00  0.00     0.113 C 
BRANCH  18  19
HETATM   19  S           1     -23.297  -2.696 -13.829  0.00  0.00    -0.180 SA
HETATM   20  H           1     -22.003  -3.048 -13.924  0.00  0.00     0.101 HD
ENDBRANCH  18  19
ENDBRANCH  13  18
ENDBRANCH   4  13
TORSDOF 8
ENDMDL
MODEL 4
REMARK VINA RESULT:      -4.7     17.471     18.854
REMARK  8 active torsions:
REMARK  status: ('A' for Active; 'I' for Inactive)
REMARK    1  A    between atoms: C_1  and  C_13 
REMARK    2  A    between atoms: C_1  and  C_3 
REMARK    3  A    between atoms: C_3  and  C_4 
REMARK    4  A    between atoms: C_3  and  N_9 
REMARK    5  A    between atoms: N_6  and  C_14 
REMARK       I    between atoms: N_9  and  C_19 
REMARK    6  A    between atoms: C_14  and  C_19 
REMARK    7  A    between atoms: C_14  and  C_15 
REMARK    8  A    between atoms: C_15  and  S_16 
ROOT
HETATM    1  O           1     -12.008   7.145 -21.984  0.00  0.00    -0.271 OA
HETATM    2  N           1     -12.612   6.080 -20.116  0.00  0.00    -0.344 N 
HETATM    3  H           1     -12.589   6.042 -19.105  0.00  0.00     0.163 HD
HETATM    4  C           1     -11.980   7.099 -20.777  0.00  0.00     0.249 C 
ENDROOT
BRANCH   2   5
HETATM    5  C           1     -13.314   5.056 -20.864  0.00  0.00     0.189 C 
BRANCH   5   6
HETATM    6  C           1     -12.887   3.681 -20.365  0.00  0.00     0.014 C 
HETATM    7  C           1     -13.332   2.620 -21.363  0.00  0.00     0.012 C 
BRANCH   6   8
HETATM    8  C           1     -11.371   3.642 -20.225  0.00  0.00     0.002 C 
HETATM    9  C           1     -10.845   2.313 -20.748  0.00  0.00     0.005 C 
ENDBRANCH   6   8
ENDBRANCH   5   6
BRANCH   5  10
HETATM   10  C           1     -14.802   5.222 -20.669  0.00  0.00     0.197 C 
HETATM   11  O           1     -15.285   5.216 -19.516  0.00  0.00    -0.646 OA
HETATM   12  O           1     -15.550   5.368 -21.660  0.00  0.00    -0.646 OA
ENDBRANCH   5  10
ENDBRANCH   2   5
BRANCH   4  13
HETATM   13  C           1     -11.250   8.166 -19.999  0.00  0.00     0.283 C 
BRANCH  13  14
HETATM   14  N           1     -10.067   7.555 -19.307  0.00  0.00    -0.066 N 
HETATM   15  H           1      -9.569   6.915 -19.967  0.00  0.00     0.275 HD
HETATM   16  H           1      -9.414   8.312 -19.000  0.00  0.00     0.275 HD
HETATM   17  H           1     -10.390   7.013 -18.474  0.00  0.00     0.275 HD
ENDBRANCH  13  14
BRANCH  13  18
HETATM   18  C           1     -10.774   9.254 -20.951  0.00  0.00     0.113 C 
BRANCH  18  19
HETATM   19  S           1      -8.993   9.064 -21.251  0.00  0.00    -0.180 SA
HETATM   20  H           1      -8.824   8.014 -20.428  0.00  0.00     0.101 HD
ENDBRANCH  18  19
ENDBRANCH  13  18
ENDBRANCH   4  13
TORSDOF 8
ENDMDL
MODEL 5
REMARK VINA RESULT:      -4.7      4.225      7.158
REMARK  8 active torsions:
REMARK  status: ('A' for Active; 'I' for Inactive)
REMARK    1  A    between atoms: C_1  and  C_13 
REMARK    2  A    between atoms: C_1  and  C_3 
REMARK    3  A    between atoms: C_3  and  C_4 
REMARK    4  A    between atoms: C_3  and  N_9 
REMARK    5  A    between atoms: N_6  and  C_14 
REMARK       I    between atoms: N_9  and  C_19 
REMARK    6  A    between atoms: C_14  and  C_19 
REMARK    7  A    between atoms: C_14  and  C_15 
REMARK    8  A    between atoms: C_15  and  S_16 
ROOT
HETATM    1  O           1     -19.696  -6.859  -6.554  0.00  0.00    -0.271 OA
HETATM    2  N           1     -21.488  -7.150  -5.251  0.00  0.00    -0.344 N 
HETATM    3  H           1     -22.442  -6.893  -5.037  0.00  0.00     0.163 HD
HETATM    4  C           1     -20.837  -6.553  -6.298  0.00  0.00     0.249 C 
ENDROOT
BRANCH   2   5
HETATM    5  C           1     -20.808  -8.150  -4.452  0.00  0.00     0.189 C 
BRANCH   5   6
HETATM    6  C           1     -21.184  -7.968  -2.986  0.00  0.00     0.014 C 
HETATM    7  C           1     -19.987  -8.314  -2.110  0.00  0.00     0.012 C 
BRANCH   6   8
HETATM    8  C           1     -21.589  -6.520  -2.744  0.00  0.00     0.002 C 
HETATM    9  C           1     -22.289  -6.406  -1.396  0.00  0.00     0.005 C 
ENDBRANCH   6   8
ENDBRANCH   5   6
BRANCH   5  10
HETATM   10  C           1     -21.224  -9.527  -4.910  0.00  0.00     0.197 C 
HETATM   11  O           1     -22.001 -10.211  -4.209  0.00  0.00    -0.646 OA
HETATM   12  O           1     -20.792  -9.982  -5.991  0.00  0.00    -0.646 OA
ENDBRANCH   5  10
ENDBRANCH   2   5
BRANCH   4  13
HETATM   13  C           1     -21.543  -5.512  -7.131  0.00  0.00     0.283 C 
BRANCH  13  14
HETATM   14  N           1     -22.692  -4.945  -6.351  0.00  0.00    -0.066 N 
HETATM   15  H           1     -22.690  -3.902  -6.433  0.00  0.00     0.275 HD
HETATM   16  H           1     -23.590  -5.320  -6.731  0.00  0.00     0.275 HD
HETATM   17  H           1     -22.598  -5.214  -5.345  0.00  0.00     0.275 HD
ENDBRANCH  13  14
BRANCH  13  18
HETATM   18  C           1     -20.569  -4.396  -7.482  0.00  0.00     0.113 C 
BRANCH  18  19
HETATM   19  S           1     -20.358  -4.319  -9.284  0.00  0.00    -0.180 SA
HETATM   20  H           1     -21.526  -4.911  -9.588  0.00  0.00     0.101 HD
ENDBRANCH  18  19
ENDBRANCH  13  18
ENDBRANCH   4  13
TORSDOF 8
ENDMDL
MODEL 6
REMARK VINA RESULT:      -4.7      3.397      5.160
REMARK  8 active torsions:
REMARK  status: ('A' for Active; 'I' for Inactive)
REMARK    1  A    between atoms: C_1  and  C_13 
REMARK    2  A    between atoms: C_1  and  C_3 
REMARK    3  A    between atoms: C_3  and  C_4 
REMARK    4  A    between atoms: C_3  and  N_9 
REMARK    5  A    between atoms: N_6  and  C_14 
REMARK       I    between atoms: N_9  and  C_19 
REMARK    6  A    between atoms: C_14  and  C_19 
REMARK    7  A    between atoms: C_14  and  C_15 
REMARK    8  A    between atoms: C_15  and  S_16 
ROOT
HETATM    1  O           1     -23.740  -5.228 -10.946  0.00  0.00    -0.271 OA
HETATM    2  N           1     -22.352  -3.887  -9.820  0.00  0.00    -0.344 N 
HETATM    3  H           1     -21.982  -2.955  -9.685  0.00  0.00     0.163 HD
HETATM    4  C           1     -23.297  -4.115 -10.784  0.00  0.00     0.249 C 
ENDROOT
BRANCH   2   5
HETATM    5  C           1     -21.884  -4.980  -8.991  0.00  0.00     0.189 C 
BRANCH   5   6
HETATM    6  C           1     -20.360  -4.991  -8.979  0.00  0.00     0.014 C 
HETATM    7  C           1     -19.841  -4.850 -10.404  0.00  0.00     0.012 C 
BRANCH   6   8
HETATM    8  C           1     -19.853  -3.828  -8.137  0.00  0.00     0.002 C 
HETATM    9  C           1     -18.614  -4.262  -7.364  0.00  0.00     0.005 C 
ENDBRANCH   6   8
ENDBRANCH   5   6
BRANCH   5  10
HETATM   10  C           1     -22.398  -4.800  -7.584  0.00  0.00     0.197 C 
HETATM   11  O           1     -23.382  -4.060  -7.368  0.00  0.00    -0.646 OA
HETATM   12  O           1     -21.840  -5.392  -6.634  0.00  0.00    -0.646 OA
ENDBRANCH   5  10
ENDBRANCH   2   5
BRANCH   4  13
HETATM   13  C           1     -23.785  -2.977 -11.647  0.00  0.00     0.283 C 
BRANCH  13  14
HETATM   14  N           1     -22.679  -1.981 -11.831  0.00  0.00    -0.066 N 
HETATM   15  H           1     -21.881  -2.225 -11.201  0.00  0.00     0.275 HD
HETATM   16  H           1     -22.355  -2.001 -12.825  0.00  0.00     0.275 HD
HETATM   17  H           1     -23.027  -1.024 -11.596  0.00  0.00     0.275 HD
ENDBRANCH  13  14
BRANCH  13  18
HETATM   18  C           1     -24.214  -3.516 -13.005  0.00  0.00     0.113 C 
BRANCH  18  19
HETATM   19  S           1     -23.173  -2.789 -14.303  0.00  0.00    -0.180 SA
HETATM   20  H           1     -24.186  -2.290 -15.031  0.00  0.00     0.101 HD
ENDBRANCH  18  19
ENDBRANCH  13  18
ENDBRANCH   4  13
TORSDOF 8
ENDMDL
MODEL 7
REMARK VINA RESULT:      -4.6      6.728      9.883
REMARK  8 active torsions:
REMARK  status: ('A' for Active; 'I' for Inactive)
REMARK    1  A    between atoms: C_1  and  C_13 
REMARK    2  A    between atoms: C_1  and  C_3 
REMARK    3  A    between atoms: C_3  and  C_4 
REMARK    4  A    between atoms: C_3  and  N_9 
REMARK    5  A    between atoms: N_6  and  C_14 
REMARK       I    between atoms: N_9  and  C_19 
REMARK    6  A    between atoms: C_14  and  C_19 
REMARK    7  A    between atoms: C_14  and  C_15 
REMARK    8  A    between atoms: C_15  and  S_16 
ROOT
HETATM    1  O           1     -20.821  -6.988  -2.191  0.00  0.00    -0.271 OA
HETATM    2  N           1     -21.591  -9.085  -2.188  0.00  0.00    -0.344 N 
HETATM    3  H           1     -22.038  -9.835  -2.700  0.00  0.00     0.163 HD
HETATM    4  C           1     -21.354  -7.885  -2.802  0.00  0.00     0.249 C 
ENDROOT
BRANCH   2   5
HETATM    5  C           1     -21.204  -9.281  -0.805  0.00  0.00     0.189 C 
BRANCH   5   6
HETATM    6  C           1     -22.446  -9.551   0.036  0.00  0.00     0.014 C 
HETATM    7  C           1     -23.110  -8.229   0.398  0.00  0.00     0.012 C 
BRANCH   6   8
HETATM    8  C           1     -23.420 -10.408  -0.760  0.00  0.00     0.002 C 
HETATM    9  C           1     -23.778 -11.652   0.042  0.00  0.00     0.005 C 
ENDBRANCH   6   8
ENDBRANCH   5   6
BRANCH   5  10
HETATM   10  C           1     -20.264 -10.458  -0.708  0.00  0.00     0.197 C 
HETATM   11  O           1     -20.096 -11.034   0.389  0.00  0.00    -0.646 OA
HETATM   12  O           1     -19.656 -10.857  -1.725  0.00  0.00    -0.646 OA
ENDBRANCH   5  10
ENDBRANCH   2   5
BRANCH   4  13
HETATM   13  C           1     -21.757  -7.681  -4.242  0.00  0.00     0.283 C 
BRANCH  13  14
HETATM   14  N           1     -22.362  -6.318  -4.401  0.00  0.00    -0.066 N 
HETATM   15  H           1     -22.473  -5.873  -3.462  0.00  0.00     0.275 HD
HETATM   16  H           1     -21.737  -5.726  -4.994  0.00  0.00     0.275 HD
HETATM   17  H           1     -23.299  -6.403  -4.858  0.00  0.00     0.275 HD
ENDBRANCH  13  14
BRANCH  13  18
HETATM   18  C           1     -20.529  -7.797  -5.135  0.00  0.00     0.113 C 
BRANCH  18  19
HETATM   19  S           1     -20.353  -6.287  -6.126  0.00  0.00    -0.180 SA
HETATM   20  H           1     -19.214  -5.870  -5.547  0.00  0.00     0.101 HD
ENDBRANCH  18  19
ENDBRANCH  13  18
ENDBRANCH   4  13
TORSDOF 8
ENDMDL
MODEL 8
REMARK VINA RESULT:      -4.5      2.408      3.454
REMARK  8 active torsions:
REMARK  status: ('A' for Active; 'I' for Inactive)
REMARK    1  A    between atoms: C_1  and  C_13 
REMARK    2  A    between atoms: C_1  and  C_3 
REMARK    3  A    between atoms: C_3  and  C_4 
REMARK    4  A    between atoms: C_3  and  N_9 
REMARK    5  A    between atoms: N_6  and  C_14 
REMARK       I    between atoms: N_9  and  C_19 
REMARK    6  A    between atoms: C_14  and  C_19 
REMARK    7  A    between atoms: C_14  and  C_15 
REMARK    8  A    between atoms: C_15  and  S_16 
ROOT
HETATM    1  O           1     -20.919  -5.649  -4.506  0.00  0.00    -0.271 OA
HETATM    2  N           1     -21.087  -5.979  -6.709  0.00  0.00    -0.344 N 
HETATM    3  H           1     -21.121  -6.637  -7.478  0.00  0.00     0.163 HD
HETATM    4  C           1     -20.960  -6.434  -5.425  0.00  0.00     0.249 C 
ENDROOT
BRANCH   2   5
HETATM    5  C           1     -21.173  -4.555  -6.969  0.00  0.00     0.189 C 
BRANCH   5   6
HETATM    6  C           1     -20.172  -4.177  -8.054  0.00  0.00     0.014 C 
HETATM    7  C           1     -18.764  -4.195  -7.474  0.00  0.00     0.012 C 
BRANCH   6   8
HETATM    8  C           1     -20.263  -5.177  -9.198  0.00  0.00     0.002 C 
HETATM    9  C           1     -20.227  -4.434 -10.527  0.00  0.00     0.005 C 
ENDBRANCH   6   8
ENDBRANCH   5   6
BRANCH   5  10
HETATM   10  C           1     -22.568  -4.212  -7.429  0.00  0.00     0.197 C 
HETATM   11  O           1     -23.558  -4.643  -6.798  0.00  0.00    -0.646 OA
HETATM   12  O           1     -22.735  -3.495  -8.439  0.00  0.00    -0.646 OA
ENDBRANCH   5  10
ENDBRANCH   2   5
BRANCH   4  13
HETATM   13  C           1     -20.871  -7.916  -5.154  0.00  0.00     0.283 C 
BRANCH  13  14
HETATM   14  N           1     -19.527  -8.422  -5.588  0.00  0.00    -0.066 N 
HETATM   15  H           1     -18.777  -7.831  -5.163  0.00  0.00     0.275 HD
HETATM   16  H           1     -19.409  -9.412  -5.273  0.00  0.00     0.275 HD
HETATM   17  H           1     -19.457  -8.376  -6.630  0.00  0.00     0.275 HD
ENDBRANCH  13  14
BRANCH  13  18
HETATM   18  C           1     -21.051  -8.172  -3.664  0.00  0.00     0.113 C 
BRANCH  18  19
HETATM   19  S           1     -19.776  -9.329  -3.087  0.00  0.00    -0.180 SA
HETATM   20  H           1     -19.473  -8.655  -1.964  0.00  0.00     0.101 HD
ENDBRANCH  18  19
ENDBRANCH  13  18
ENDBRANCH   4  13
TORSDOF 8
ENDMDL
MODEL 9
REMARK VINA RESULT:      -4.4      8.783     10.112
REMARK  8 active torsions:
REMARK  status: ('A' for Active; 'I' for Inactive)
REMARK    1  A    between atoms: C_1  and  C_13 
REMARK    2  A    between atoms: C_1  and  C_3 
REMARK    3  A    between atoms: C_3  and  C_4 
REMARK    4  A    between atoms: C_3  and  N_9 
REMARK    5  A    between atoms: N_6  and  C_14 
REMARK       I    between atoms: N_9  and  C_19 
REMARK    6  A    between atoms: C_14  and  C_19 
REMARK    7  A    between atoms: C_14  and  C_15 
REMARK    8  A    between atoms: C_15  and  S_16 
ROOT
HETATM    1  O           1     -19.707 -11.293  -0.049  0.00  0.00    -0.271 OA
HETATM    2  N           1     -21.001 -10.135  -1.455  0.00  0.00    -0.344 N 
HETATM    3  H           1     -21.130  -9.752  -2.383  0.00  0.00     0.163 HD
HETATM    4  C           1     -19.863 -10.836  -1.157  0.00  0.00     0.249 C 
ENDROOT
BRANCH   2   5
HETATM    5  C           1     -22.019  -9.942  -0.442  0.00  0.00     0.189 C 
BRANCH   5   6
HETATM    6  C           1     -22.323  -8.455  -0.306  0.00  0.00     0.014 C 
HETATM    7  C           1     -21.893  -7.974   1.074  0.00  0.00     0.012 C 
BRANCH   6   8
HETATM    8  C           1     -21.561  -7.682  -1.373  0.00  0.00     0.002 C 
HETATM    9  C           1     -22.256  -6.352  -1.633  0.00  0.00     0.005 C 
ENDBRANCH   6   8
ENDBRANCH   5   6
BRANCH   5  10
HETATM   10  C           1     -23.274 -10.678  -0.844  0.00  0.00     0.197 C 
HETATM   11  O           1     -24.201 -10.830  -0.019  0.00  0.00    -0.646 OA
HETATM   12  O           1     -23.387 -11.134  -2.003  0.00  0.00    -0.646 OA
ENDBRANCH   5  10
ENDBRANCH   2   5
BRANCH   4  13
HETATM   13  C           1     -18.802 -11.037  -2.212  0.00  0.00     0.283 C 
BRANCH  13  14
HETATM   14  N           1     -19.349 -11.901  -3.309  0.00  0.00    -0.066 N 
HETATM   15  H           1     -19.947 -11.323  -3.943  0.00  0.00     0.275 HD
HETATM   16  H           1     -18.558 -12.311  -3.857  0.00  0.00     0.275 HD
HETATM   17  H           1     -19.923 -12.670  -2.896  0.00  0.00     0.275 HD
ENDBRANCH  13  14
BRANCH  13  18
HETATM   18  C           1     -18.393  -9.687  -2.785  0.00  0.00     0.113 C 
BRANCH  18  19
HETATM   19  S           1     -16.585  -9.617  -2.942  0.00  0.00    -0.180 SA
HETATM   20  H           1     -16.485 -10.599  -3.854  0.00  0.00     0.101 HD
ENDBRANCH  18  19
ENDBRANCH  13  18
ENDBRANCH   4  13
TORSDOF 8
ENDMDL
