MODEL 1
REMARK VINA RESULT:      -7.8      0.000      0.000
REMARK  9 active torsions:
REMARK  status: ('A' for Active; 'I' for Inactive)
REMARK       I    between atoms: C_1  and  N_28 
REMARK    1  A    between atoms: C_1  and  C_4 
REMARK    2  A    between atoms: C_4  and  C_13 
REMARK    3  A    between atoms: C_4  and  N_24 
REMARK    4  A    between atoms: C_5  and  O_22 
REMARK    5  A    between atoms: C_6  and  C_11 
REMARK    6  A    between atoms: C_6  and  C_7 
REMARK    7  A    between atoms: C_6  and  N_28 
REMARK    8  A    between atoms: C_11  and  C_25 
REMARK    9  A    between atoms: C_13  and  C_20 
REMARK       I    between atoms: N_16  and  C_25 
ROOT
HETATM    1  C           1     -36.462  -0.294 -12.461  0.00  0.00     0.249 C 
HETATM    2  H           1     -34.628   0.175 -13.299  0.00  0.00     0.163 HD
HETATM    3  O           1     -37.643  -0.436 -12.678  0.00  0.00    -0.271 OA
HETATM    4  N           1     -35.617   0.056 -13.480  0.00  0.00    -0.344 N 
ENDROOT
BRANCH   1   5
HETATM    5  C           1     -35.920  -0.502 -11.068  0.00  0.00     0.278 C 
BRANCH   5   6
HETATM    6  C           1     -36.306  -1.890 -10.574  0.00  0.00     0.081 C 
BRANCH   6   7
HETATM    7  C           1     -35.210  -2.858 -10.895  0.00  0.00    -0.056 A 
HETATM    8  C           1     -35.483  -4.223 -10.964  0.00  0.00     0.010 A 
HETATM    9  C           1     -34.461  -5.124 -11.264  0.00  0.00     0.037 A 
HETATM   10  C           1     -33.166  -4.659 -11.495  0.00  0.00     0.065 A 
HETATM   11  C           1     -32.894  -3.293 -11.427  0.00  0.00     0.037 A 
HETATM   12  C           1     -33.916  -2.392 -11.127  0.00  0.00     0.010 A 
BRANCH  10  13
HETATM   13  O           1     -32.174  -5.535 -11.786  0.00  0.00    -0.361 OA
HETATM   14  H           1     -32.536  -6.433 -11.714  0.00  0.00     0.217 HD
ENDBRANCH  10  13
ENDBRANCH   6   7
ENDBRANCH   5   6
BRANCH   5  15
HETATM   15  N           1     -36.495   0.533 -10.149  0.00  0.00    -0.066 N 
HETATM   16  H           1     -35.742   1.195  -9.855  0.00  0.00     0.275 HD
HETATM   17  H           1     -37.249   1.061 -10.645  0.00  0.00     0.275 HD
HETATM   18  H           1     -36.896   0.065  -9.305  0.00  0.00     0.275 HD
ENDBRANCH   5  15
ENDBRANCH   1   5
BRANCH   4  19
HETATM   19  C           1     -36.138   0.256 -14.818  0.00  0.00     0.194 C 
BRANCH  19  20
HETATM   20  C           1     -35.592   1.559 -15.387  0.00  0.00     0.138 C 
BRANCH  20  21
HETATM   21  C           1     -36.663   2.240 -16.202  0.00  0.00     0.217 C 
HETATM   22  O           1     -36.380   3.183 -16.903  0.00  0.00    -0.274 OA
HETATM   23  N           1     -37.955   1.791 -16.147  0.00  0.00    -0.370 N 
HETATM   24  H           1     -38.673   2.249 -16.694  0.00  0.00     0.159 HD
HETATM   25  H           1     -38.191   1.003 -15.560  0.00  0.00     0.159 HD
ENDBRANCH  20  21
ENDBRANCH  19  20
BRANCH  19  26
HETATM   26  C           1     -35.713  -0.893 -15.699  0.00  0.00     0.197 C 
HETATM   27  O           1     -36.034  -0.906 -16.908  0.00  0.00    -0.646 OA
HETATM   28  O           1     -35.041  -1.833 -15.221  0.00  0.00    -0.646 OA
ENDBRANCH  19  26
ENDBRANCH   4  19
TORSDOF 9
ENDMDL
MODEL 2
REMARK VINA RESULT:      -7.4     12.484     15.139
REMARK  9 active torsions:
REMARK  status: ('A' for Active; 'I' for Inactive)
REMARK       I    between atoms: C_1  and  N_28 
REMARK    1  A    between atoms: C_1  and  C_4 
REMARK    2  A    between atoms: C_4  and  C_13 
REMARK    3  A    between atoms: C_4  and  N_24 
REMARK    4  A    between atoms: C_5  and  O_22 
REMARK    5  A    between atoms: C_6  and  C_11 
REMARK    6  A    between atoms: C_6  and  C_7 
REMARK    7  A    between atoms: C_6  and  N_28 
REMARK    8  A    between atoms: C_11  and  C_25 
REMARK    9  A    between atoms: C_13  and  C_20 
REMARK       I    between atoms: N_16  and  C_25 
ROOT
HETATM    1  C           1     -22.203  -4.202  -7.968  0.00  0.00     0.249 C 
HETATM    2  H           1     -24.137  -4.737  -8.475  0.00  0.00     0.163 HD
HETATM    3  O           1     -21.202  -3.636  -8.341  0.00  0.00    -0.271 OA
HETATM    4  N           1     -23.300  -4.263  -8.787  0.00  0.00    -0.344 N 
ENDROOT
BRANCH   1   5
HETATM    5  C           1     -22.244  -4.841  -6.602  0.00  0.00     0.278 C 
BRANCH   5   6
HETATM    6  C           1     -21.357  -6.079  -6.593  0.00  0.00     0.081 C 
BRANCH   6   7
HETATM    7  C           1     -21.377  -6.697  -5.229  0.00  0.00    -0.056 A 
HETATM    8  C           1     -21.502  -8.079  -5.092  0.00  0.00     0.010 A 
HETATM    9  C           1     -21.519  -8.654  -3.821  0.00  0.00     0.037 A 
HETATM   10  C           1     -21.411  -7.848  -2.688  0.00  0.00     0.065 A 
HETATM   11  C           1     -21.284  -6.466  -2.827  0.00  0.00     0.037 A 
HETATM   12  C           1     -21.267  -5.890  -4.097  0.00  0.00     0.010 A 
BRANCH  10  13
HETATM   13  O           1     -21.428  -8.407  -1.454  0.00  0.00    -0.361 OA
HETATM   14  H           1     -22.297  -8.822  -1.325  0.00  0.00     0.217 HD
ENDBRANCH  10  13
ENDBRANCH   6   7
ENDBRANCH   5   6
BRANCH   5  15
HETATM   15  N           1     -23.654  -5.234  -6.277  0.00  0.00    -0.066 N 
HETATM   16  H           1     -23.986  -4.691  -5.449  0.00  0.00     0.275 HD
HETATM   17  H           1     -24.271  -5.031  -7.096  0.00  0.00     0.275 HD
HETATM   18  H           1     -23.689  -6.256  -6.060  0.00  0.00     0.275 HD
ENDBRANCH   5  15
ENDBRANCH   1   5
BRANCH   4  19
HETATM   19  C           1     -23.259  -3.648 -10.099  0.00  0.00     0.194 C 
BRANCH  19  20
HETATM   20  C           1     -22.666  -4.630 -11.102  0.00  0.00     0.138 C 
BRANCH  20  21
HETATM   21  C           1     -21.616  -3.932 -11.929  0.00  0.00     0.217 C 
HETATM   22  O           1     -20.475  -3.874 -11.533  0.00  0.00    -0.274 OA
HETATM   23  N           1     -21.954  -3.361 -13.127  0.00  0.00    -0.370 N 
HETATM   24  H           1     -21.248  -2.893 -13.680  0.00  0.00     0.159 HD
HETATM   25  H           1     -22.908  -3.410 -13.458  0.00  0.00     0.159 HD
ENDBRANCH  20  21
ENDBRANCH  19  20
BRANCH  19  26
HETATM   26  C           1     -24.660  -3.281 -10.525  0.00  0.00     0.197 C 
HETATM   27  O           1     -25.565  -3.175  -9.669  0.00  0.00    -0.646 OA
HETATM   28  O           1     -24.915  -3.084 -11.733  0.00  0.00    -0.646 OA
ENDBRANCH  19  26
ENDBRANCH   4  19
TORSDOF 9
ENDMDL
MODEL 3
REMARK VINA RESULT:      -7.4     13.860     17.514
REMARK  9 active torsions:
REMARK  status: ('A' for Active; 'I' for Inactive)
REMARK       I    between atoms: C_1  and  N_28 
REMARK    1  A    between atoms: C_1  and  C_4 
REMARK    2  A    between atoms: C_4  and  C_13 
REMARK    3  A    between atoms: C_4  and  N_24 
REMARK    4  A    between atoms: C_5  and  O_22 
REMARK    5  A    between atoms: C_6  and  C_11 
REMARK    6  A    between atoms: C_6  and  C_7 
REMARK    7  A    between atoms: C_6  and  N_28 
REMARK    8  A    between atoms: C_11  and  C_25 
REMARK    9  A    between atoms: C_13  and  C_20 
REMARK       I    between atoms: N_16  and  C_25 
ROOT
HETATM    1  C           1     -21.350  -5.604  -5.741  0.00  0.00     0.249 C 
HETATM    2  H           1     -22.365  -7.395  -5.521  0.00  0.00     0.163 HD
HETATM    3  O           1     -20.441  -4.924  -5.327  0.00  0.00    -0.271 OA
HETATM    4  N           1     -21.603  -6.826  -5.175  0.00  0.00    -0.344 N 
ENDROOT
BRANCH   1   5
HETATM    5  C           1     -22.206  -5.108  -6.880  0.00  0.00     0.278 C 
BRANCH   5   6
HETATM    6  C           1     -21.650  -3.789  -7.398  0.00  0.00     0.081 C 
BRANCH   6   7
HETATM    7  C           1     -21.676  -3.788  -8.894  0.00  0.00    -0.056 A 
HETATM    8  C           1     -22.865  -3.513  -9.570  0.00  0.00     0.010 A 
HETATM    9  C           1     -22.888  -3.512 -10.965  0.00  0.00     0.037 A 
HETATM   10  C           1     -21.725  -3.786 -11.683  0.00  0.00     0.065 A 
HETATM   11  C           1     -20.536  -4.060 -11.006  0.00  0.00     0.037 A 
HETATM   12  C           1     -20.512  -4.061  -9.612  0.00  0.00     0.010 A 
BRANCH  10  13
HETATM   13  O           1     -21.749  -3.785 -13.039  0.00  0.00    -0.361 OA
HETATM   14  H           1     -22.631  -4.077 -13.323  0.00  0.00     0.217 HD
ENDBRANCH  10  13
ENDBRANCH   6   7
ENDBRANCH   5   6
BRANCH   5  15
HETATM   15  N           1     -23.610  -4.902  -6.396  0.00  0.00    -0.066 N 
HETATM   16  H           1     -23.906  -5.726  -5.825  0.00  0.00     0.275 HD
HETATM   17  H           1     -23.655  -4.038  -5.809  0.00  0.00     0.275 HD
HETATM   18  H           1     -24.250  -4.799  -7.216  0.00  0.00     0.275 HD
ENDBRANCH   5  15
ENDBRANCH   1   5
BRANCH   4  19
HETATM   19  C           1     -20.780  -7.302  -4.080  0.00  0.00     0.194 C 
BRANCH  19  20
HETATM   20  C           1     -21.672  -7.873  -2.985  0.00  0.00     0.138 C 
BRANCH  20  21
HETATM   21  C           1     -22.016  -6.785  -1.999  0.00  0.00     0.217 C 
HETATM   22  O           1     -21.989  -5.627  -2.343  0.00  0.00    -0.274 OA
HETATM   23  N           1     -22.359  -7.109  -0.713  0.00  0.00    -0.370 N 
HETATM   24  H           1     -22.590  -6.378  -0.053  0.00  0.00     0.159 HD
HETATM   25  H           1     -22.382  -8.078  -0.425  0.00  0.00     0.159 HD
ENDBRANCH  20  21
ENDBRANCH  19  20
BRANCH  19  26
HETATM   26  C           1     -19.851  -8.379  -4.583  0.00  0.00     0.197 C 
HETATM   27  O           1     -19.415  -9.246  -3.795  0.00  0.00    -0.646 OA
HETATM   28  O           1     -19.516  -8.404  -5.788  0.00  0.00    -0.646 OA
ENDBRANCH  19  26
ENDBRANCH   4  19
TORSDOF 9
ENDMDL
MODEL 4
REMARK VINA RESULT:      -6.9     14.326     17.733
REMARK  9 active torsions:
REMARK  status: ('A' for Active; 'I' for Inactive)
REMARK       I    between atoms: C_1  and  N_28 
REMARK    1  A    between atoms: C_1  and  C_4 
REMARK    2  A    between atoms: C_4  and  C_13 
REMARK    3  A    between atoms: C_4  and  N_24 
REMARK    4  A    between atoms: C_5  and  O_22 
REMARK    5  A    between atoms: C_6  and  C_11 
REMARK    6  A    between atoms: C_6  and  C_7 
REMARK    7  A    between atoms: C_6  and  N_28 
REMARK    8  A    between atoms: C_11  and  C_25 
REMARK    9  A    between atoms: C_13  and  C_20 
REMARK       I    between atoms: N_16  and  C_25 
ROOT
HETATM    1  C           1     -21.709  -5.904  -5.395  0.00  0.00     0.249 C 
HETATM    2  H           1     -19.949  -6.581  -4.541  0.00  0.00     0.163 HD
HETATM    3  O           1     -22.914  -6.002  -5.390  0.00  0.00    -0.271 OA
HETATM    4  N           1     -20.958  -6.662  -4.537  0.00  0.00    -0.344 N 
ENDROOT
BRANCH   1   5
HETATM    5  C           1     -21.033  -4.947  -6.346  0.00  0.00     0.278 C 
BRANCH   5   6
HETATM    6  C           1     -20.730  -5.662  -7.656  0.00  0.00     0.081 C 
BRANCH   6   7
HETATM    7  C           1     -21.220  -4.832  -8.802  0.00  0.00    -0.056 A 
HETATM    8  C           1     -22.552  -4.422  -8.847  0.00  0.00     0.010 A 
HETATM    9  C           1     -23.007  -3.648  -9.915  0.00  0.00     0.037 A 
HETATM   10  C           1     -22.131  -3.285 -10.937  0.00  0.00     0.065 A 
HETATM   11  C           1     -20.798  -3.695 -10.891  0.00  0.00     0.037 A 
HETATM   12  C           1     -20.343  -4.469  -9.824  0.00  0.00     0.010 A 
BRANCH  10  13
HETATM   13  O           1     -22.574  -2.533 -11.974  0.00  0.00    -0.361 OA
HETATM   14  H           1     -23.148  -3.091 -12.525  0.00  0.00     0.217 HD
ENDBRANCH  10  13
ENDBRANCH   6   7
ENDBRANCH   5   6
BRANCH   5  15
HETATM   15  N           1     -19.754  -4.458  -5.736  0.00  0.00    -0.066 N 
HETATM   16  H           1     -19.950  -4.050  -4.795  0.00  0.00     0.275 HD
HETATM   17  H           1     -19.086  -5.256  -5.637  0.00  0.00     0.275 HD
HETATM   18  H           1     -19.333  -3.726  -6.352  0.00  0.00     0.275 HD
ENDBRANCH   5  15
ENDBRANCH   1   5
BRANCH   4  19
HETATM   19  C           1     -21.608  -7.582  -3.623  0.00  0.00     0.194 C 
BRANCH  19  20
HETATM   20  C           1     -20.807  -8.876  -3.549  0.00  0.00     0.138 C 
BRANCH  20  21
HETATM   21  C           1     -21.243  -9.800  -4.658  0.00  0.00     0.217 C 
HETATM   22  O           1     -20.932  -9.561  -5.801  0.00  0.00    -0.274 OA
HETATM   23  N           1     -21.991 -10.910  -4.371  0.00  0.00    -0.370 N 
HETATM   24  H           1     -22.283 -11.530  -5.116  0.00  0.00     0.159 HD
HETATM   25  H           1     -22.252 -11.110  -3.415  0.00  0.00     0.159 HD
ENDBRANCH  20  21
ENDBRANCH  19  20
BRANCH  19  26
HETATM   26  C           1     -21.681  -6.958  -2.251  0.00  0.00     0.197 C 
HETATM   27  O           1     -21.064  -7.477  -1.295  0.00  0.00    -0.646 OA
HETATM   28  O           1     -22.358  -5.922  -2.070  0.00  0.00    -0.646 OA
ENDBRANCH  19  26
ENDBRANCH   4  19
TORSDOF 9
ENDMDL
MODEL 5
REMARK VINA RESULT:      -6.5     15.775     19.212
REMARK  9 active torsions:
REMARK  status: ('A' for Active; 'I' for Inactive)
REMARK       I    between atoms: C_1  and  N_28 
REMARK    1  A    between atoms: C_1  and  C_4 
REMARK    2  A    between atoms: C_4  and  C_13 
REMARK    3  A    between atoms: C_4  and  N_24 
REMARK    4  A    between atoms: C_5  and  O_22 
REMARK    5  A    between atoms: C_6  and  C_11 
REMARK    6  A    between atoms: C_6  and  C_7 
REMARK    7  A    between atoms: C_6  and  N_28 
REMARK    8  A    between atoms: C_11  and  C_25 
REMARK    9  A    between atoms: C_13  and  C_20 
REMARK       I    between atoms: N_16  and  C_25 
ROOT
HETATM    1  C           1     -20.147  -8.519  -3.453  0.00  0.00     0.249 C 
HETATM    2  H           1     -22.111  -8.247  -2.860  0.00  0.00     0.163 HD
HETATM    3  O           1     -19.069  -8.964  -3.135  0.00  0.00    -0.271 OA
HETATM    4  N           1     -21.209  -8.620  -2.594  0.00  0.00    -0.344 N 
ENDROOT
BRANCH   1   5
HETATM    5  C           1     -20.322  -7.853  -4.795  0.00  0.00     0.278 C 
BRANCH   5   6
HETATM    6  C           1     -20.969  -6.487  -4.604  0.00  0.00     0.081 C 
BRANCH   6   7
HETATM    7  C           1     -20.998  -5.761  -5.913  0.00  0.00    -0.056 A 
HETATM    8  C           1     -22.201  -5.249  -6.399  0.00  0.00     0.010 A 
HETATM    9  C           1     -22.227  -4.572  -7.619  0.00  0.00     0.037 A 
HETATM   10  C           1     -21.052  -4.407  -8.351  0.00  0.00     0.065 A 
HETATM   11  C           1     -19.850  -4.918  -7.863  0.00  0.00     0.037 A 
HETATM   12  C           1     -19.822  -5.595  -6.645  0.00  0.00     0.010 A 
BRANCH  10  13
HETATM   13  O           1     -21.079  -3.749  -9.536  0.00  0.00    -0.361 OA
HETATM   14  H           1     -22.008  -3.648  -9.802  0.00  0.00     0.217 HD
ENDBRANCH  10  13
ENDBRANCH   6   7
ENDBRANCH   5   6
BRANCH   5  15
HETATM   15  N           1     -21.198  -8.703  -5.665  0.00  0.00    -0.066 N 
HETATM   16  H           1     -21.082  -8.416  -6.663  0.00  0.00     0.275 HD
HETATM   17  H           1     -20.928  -9.707  -5.558  0.00  0.00     0.275 HD
HETATM   18  H           1     -22.196  -8.579  -5.381  0.00  0.00     0.275 HD
ENDBRANCH   5  15
ENDBRANCH   1   5
BRANCH   4  19
HETATM   19  C           1     -21.040  -9.261  -1.305  0.00  0.00     0.194 C 
BRANCH  19  20
HETATM   20  C           1     -21.161  -8.219  -0.200  0.00  0.00     0.138 C 
BRANCH  20  21
HETATM   21  C           1     -22.498  -7.529  -0.302  0.00  0.00     0.217 C 
HETATM   22  O           1     -22.662  -6.648  -1.112  0.00  0.00    -0.274 OA
HETATM   23  N           1     -23.525  -7.900   0.524  0.00  0.00    -0.370 N 
HETATM   24  H           1     -24.422  -7.437   0.454  0.00  0.00     0.159 HD
HETATM   25  H           1     -23.387  -8.637   1.202  0.00  0.00     0.159 HD
ENDBRANCH  20  21
ENDBRANCH  19  20
BRANCH  19  26
HETATM   26  C           1     -22.108 -10.311  -1.123  0.00  0.00     0.197 C 
HETATM   27  O           1     -22.283 -10.836  -0.001  0.00  0.00    -0.646 OA
HETATM   28  O           1     -22.817 -10.657  -2.092  0.00  0.00    -0.646 OA
ENDBRANCH  19  26
ENDBRANCH   4  19
TORSDOF 9
ENDMDL
MODEL 6
REMARK VINA RESULT:      -6.5     10.905     12.921
REMARK  9 active torsions:
REMARK  status: ('A' for Active; 'I' for Inactive)
REMARK       I    between atoms: C_1  and  N_28 
REMARK    1  A    between atoms: C_1  and  C_4 
REMARK    2  A    between atoms: C_4  and  C_13 
REMARK    3  A    between atoms: C_4  and  N_24 
REMARK    4  A    between atoms: C_5  and  O_22 
REMARK    5  A    between atoms: C_6  and  C_11 
REMARK    6  A    between atoms: C_6  and  C_7 
REMARK    7  A    between atoms: C_6  and  N_28 
REMARK    8  A    between atoms: C_11  and  C_25 
REMARK    9  A    between atoms: C_13  and  C_20 
REMARK       I    between atoms: N_16  and  C_25 
ROOT
HETATM    1  C           1     -27.720  -6.536 -18.964  0.00  0.00     0.249 C 
HETATM    2  H           1     -28.021  -8.006 -17.538  0.00  0.00     0.163 HD
HETATM    3  O           1     -27.980  -5.400 -19.285  0.00  0.00    -0.271 OA
HETATM    4  N           1     -28.239  -7.055 -17.807  0.00  0.00    -0.344 N 
ENDROOT
BRANCH   1   5
HETATM    5  C           1     -26.824  -7.381 -19.836  0.00  0.00     0.278 C 
BRANCH   5   6
HETATM    6  C           1     -25.960  -6.476 -20.705  0.00  0.00     0.081 C 
BRANCH   6   7
HETATM    7  C           1     -24.736  -7.221 -21.138  0.00  0.00    -0.056 A 
HETATM    8  C           1     -24.464  -7.386 -22.496  0.00  0.00     0.010 A 
HETATM    9  C           1     -23.323  -8.079 -22.899  0.00  0.00     0.037 A 
HETATM   10  C           1     -22.454  -8.608 -21.944  0.00  0.00     0.065 A 
HETATM   11  C           1     -22.726  -8.441 -20.587  0.00  0.00     0.037 A 
HETATM   12  C           1     -23.867  -7.748 -20.183  0.00  0.00     0.010 A 
BRANCH  10  13
HETATM   13  O           1     -21.345  -9.281 -22.337  0.00  0.00    -0.361 OA
HETATM   14  H           1     -21.124  -8.995 -23.238  0.00  0.00     0.217 HD
ENDBRANCH  10  13
ENDBRANCH   6   7
ENDBRANCH   5   6
BRANCH   5  15
HETATM   15  N           1     -27.665  -8.260 -20.712  0.00  0.00    -0.066 N 
HETATM   16  H           1     -27.109  -8.557 -21.545  0.00  0.00     0.275 HD
HETATM   17  H           1     -27.964  -9.105 -20.174  0.00  0.00     0.275 HD
HETATM   18  H           1     -28.510  -7.732 -21.027  0.00  0.00     0.275 HD
ENDBRANCH   5  15
ENDBRANCH   1   5
BRANCH   4  19
HETATM   19  C           1     -29.099  -6.243 -16.970  0.00  0.00     0.194 C 
BRANCH  19  20
HETATM   20  C           1     -30.547  -6.681 -17.153  0.00  0.00     0.138 C 
BRANCH  20  21
HETATM   21  C           1     -31.447  -5.471 -17.115  0.00  0.00     0.217 C 
HETATM   22  O           1     -30.989  -4.371 -17.315  0.00  0.00    -0.274 OA
HETATM   23  N           1     -32.783  -5.619 -16.854  0.00  0.00    -0.370 N 
HETATM   24  H           1     -33.386  -4.807 -16.829  0.00  0.00     0.159 HD
HETATM   25  H           1     -33.166  -6.540 -16.686  0.00  0.00     0.159 HD
ENDBRANCH  20  21
ENDBRANCH  19  20
BRANCH  19  26
HETATM   26  C           1     -28.701  -6.415 -15.525  0.00  0.00     0.197 C 
HETATM   27  O           1     -29.067  -5.578 -14.672  0.00  0.00    -0.646 OA
HETATM   28  O           1     -28.005  -7.395 -15.180  0.00  0.00    -0.646 OA
ENDBRANCH  19  26
ENDBRANCH   4  19
TORSDOF 9
ENDMDL
MODEL 7
REMARK VINA RESULT:      -6.3     15.240     19.185
REMARK  9 active torsions:
REMARK  status: ('A' for Active; 'I' for Inactive)
REMARK       I    between atoms: C_1  and  N_28 
REMARK    1  A    between atoms: C_1  and  C_4 
REMARK    2  A    between atoms: C_4  and  C_13 
REMARK    3  A    between atoms: C_4  and  N_24 
REMARK    4  A    between atoms: C_5  and  O_22 
REMARK    5  A    between atoms: C_6  and  C_11 
REMARK    6  A    between atoms: C_6  and  C_7 
REMARK    7  A    between atoms: C_6  and  N_28 
REMARK    8  A    between atoms: C_11  and  C_25 
REMARK    9  A    between atoms: C_13  and  C_20 
REMARK       I    between atoms: N_16  and  C_25 
ROOT
HETATM    1  C           1     -21.008  -7.713  -4.955  0.00  0.00     0.249 C 
HETATM    2  H           1     -20.286  -7.711  -3.015  0.00  0.00     0.163 HD
HETATM    3  O           1     -21.076  -8.340  -5.985  0.00  0.00    -0.271 OA
HETATM    4  N           1     -20.343  -8.236  -3.878  0.00  0.00    -0.344 N 
ENDROOT
BRANCH   1   5
HETATM    5  C           1     -21.655  -6.353  -4.855  0.00  0.00     0.278 C 
BRANCH   5   6
HETATM    6  C           1     -20.648  -5.281  -5.250  0.00  0.00     0.081 C 
BRANCH   6   7
HETATM    7  C           1     -20.872  -4.886  -6.676  0.00  0.00    -0.056 A 
HETATM    8  C           1     -22.156  -4.566  -7.118  0.00  0.00     0.010 A 
HETATM    9  C           1     -22.364  -4.198  -8.447  0.00  0.00     0.037 A 
HETATM   10  C           1     -21.289  -4.149  -9.335  0.00  0.00     0.065 A 
HETATM   11  C           1     -20.005  -4.468  -8.892  0.00  0.00     0.037 A 
HETATM   12  C           1     -19.796  -4.837  -7.563  0.00  0.00     0.010 A 
BRANCH  10  13
HETATM   13  O           1     -21.492  -3.791 -10.626  0.00  0.00    -0.361 OA
HETATM   14  H           1     -21.670  -2.836 -10.647  0.00  0.00     0.217 HD
ENDBRANCH  10  13
ENDBRANCH   6   7
ENDBRANCH   5   6
BRANCH   5  15
HETATM   15  N           1     -22.107  -6.117  -3.445  0.00  0.00    -0.066 N 
HETATM   16  H           1     -22.575  -6.978  -3.081  0.00  0.00     0.275 HD
HETATM   17  H           1     -21.282  -5.890  -2.846  0.00  0.00     0.275 HD
HETATM   18  H           1     -22.782  -5.320  -3.425  0.00  0.00     0.275 HD
ENDBRANCH   5  15
ENDBRANCH   1   5
BRANCH   4  19
HETATM   19  C           1     -19.722  -9.543  -3.974  0.00  0.00     0.194 C 
BRANCH  19  20
HETATM   20  C           1     -18.211  -9.398  -3.842  0.00  0.00     0.138 C 
BRANCH  20  21
HETATM   21  C           1     -17.552  -9.806  -5.136  0.00  0.00     0.217 C 
HETATM   22  O           1     -16.462 -10.327  -5.120  0.00  0.00    -0.274 OA
HETATM   23  N           1     -18.187  -9.584  -6.328  0.00  0.00    -0.370 N 
HETATM   24  H           1     -17.744  -9.857  -7.195  0.00  0.00     0.159 HD
HETATM   25  H           1     -19.099  -9.147  -6.341  0.00  0.00     0.159 HD
ENDBRANCH  20  21
ENDBRANCH  19  20
BRANCH  19  26
HETATM   26  C           1     -20.240 -10.427  -2.867  0.00  0.00     0.197 C 
HETATM   27  O           1     -19.917 -10.198  -1.681  0.00  0.00    -0.646 OA
HETATM   28  O           1     -20.992 -11.390  -3.135  0.00  0.00    -0.646 OA
ENDBRANCH  19  26
ENDBRANCH   4  19
TORSDOF 9
ENDMDL
MODEL 8
REMARK VINA RESULT:      -6.1     14.843     18.744
REMARK  9 active torsions:
REMARK  status: ('A' for Active; 'I' for Inactive)
REMARK       I    between atoms: C_1  and  N_28 
REMARK    1  A    between atoms: C_1  and  C_4 
REMARK    2  A    between atoms: C_4  and  C_13 
REMARK    3  A    between atoms: C_4  and  N_24 
REMARK    4  A    between atoms: C_5  and  O_22 
REMARK    5  A    between atoms: C_6  and  C_11 
REMARK    6  A    between atoms: C_6  and  C_7 
REMARK    7  A    between atoms: C_6  and  N_28 
REMARK    8  A    between atoms: C_11  and  C_25 
REMARK    9  A    between atoms: C_13  and  C_20 
REMARK       I    between atoms: N_16  and  C_25 
ROOT
HETATM    1  C           1     -20.715  -7.590  -4.853  0.00  0.00     0.249 C 
HETATM    2  H           1     -20.165  -8.709  -6.506  0.00  0.00     0.163 HD
HETATM    3  O           1     -20.606  -7.475  -3.656  0.00  0.00    -0.271 OA
HETATM    4  N           1     -20.074  -8.611  -5.503  0.00  0.00    -0.344 N 
ENDROOT
BRANCH   1   5
HETATM    5  C           1     -21.557  -6.611  -5.633  0.00  0.00     0.278 C 
BRANCH   5   6
HETATM    6  C           1     -20.760  -5.336  -5.878  0.00  0.00     0.081 C 
BRANCH   6   7
HETATM    7  C           1     -21.023  -4.842  -7.266  0.00  0.00    -0.056 A 
HETATM    8  C           1     -22.220  -4.188  -7.558  0.00  0.00     0.010 A 
HETATM    9  C           1     -22.464  -3.727  -8.852  0.00  0.00     0.037 A 
HETATM   10  C           1     -21.511  -3.919  -9.853  0.00  0.00     0.065 A 
HETATM   11  C           1     -20.314  -4.571  -9.559  0.00  0.00     0.037 A 
HETATM   12  C           1     -20.070  -5.033  -8.266  0.00  0.00     0.010 A 
BRANCH  10  13
HETATM   13  O           1     -21.749  -3.470 -11.110  0.00  0.00    -0.361 OA
HETATM   14  H           1     -20.944  -3.028 -11.427  0.00  0.00     0.217 HD
ENDBRANCH  10  13
ENDBRANCH   6   7
ENDBRANCH   5   6
BRANCH   5  15
HETATM   15  N           1     -22.794  -6.283  -4.852  0.00  0.00    -0.066 N 
HETATM   16  H           1     -22.570  -6.275  -3.831  0.00  0.00     0.275 HD
HETATM   17  H           1     -23.148  -5.341  -5.136  0.00  0.00     0.275 HD
HETATM   18  H           1     -23.527  -7.002  -5.042  0.00  0.00     0.275 HD
ENDBRANCH   5  15
ENDBRANCH   1   5
BRANCH   4  19
HETATM   19  C           1     -19.265  -9.553  -4.754  0.00  0.00     0.194 C 
BRANCH  19  20
HETATM   20  C           1     -20.005 -10.879  -4.637  0.00  0.00     0.138 C 
BRANCH  20  21
HETATM   21  C           1     -20.390 -11.363  -6.013  0.00  0.00     0.217 C 
HETATM   22  O           1     -21.333 -10.870  -6.585  0.00  0.00    -0.274 OA
HETATM   23  N           1     -19.672 -12.363  -6.613  0.00  0.00    -0.370 N 
HETATM   24  H           1     -19.931 -12.687  -7.536  0.00  0.00     0.159 HD
HETATM   25  H           1     -18.883 -12.776  -6.134  0.00  0.00     0.159 HD
ENDBRANCH  20  21
ENDBRANCH  19  20
BRANCH  19  26
HETATM   26  C           1     -17.955  -9.770  -5.470  0.00  0.00     0.197 C 
HETATM   27  O           1     -17.071 -10.487  -4.952  0.00  0.00    -0.646 OA
HETATM   28  O           1     -17.753  -9.233  -6.581  0.00  0.00    -0.646 OA
ENDBRANCH  19  26
ENDBRANCH   4  19
TORSDOF 9
ENDMDL
MODEL 9
REMARK VINA RESULT:      -6.0     14.528     18.462
REMARK  9 active torsions:
REMARK  status: ('A' for Active; 'I' for Inactive)
REMARK       I    between atoms: C_1  and  N_28 
REMARK    1  A    between atoms: C_1  and  C_4 
REMARK    2  A    between atoms: C_4  and  C_13 
REMARK    3  A    between atoms: C_4  and  N_24 
REMARK    4  A    between atoms: C_5  and  O_22 
REMARK    5  A    between atoms: C_6  and  C_11 
REMARK    6  A    between atoms: C_6  and  C_7 
REMARK    7  A    between atoms: C_6  and  N_28 
REMARK    8  A    between atoms: C_11  and  C_25 
REMARK    9  A    between atoms: C_13  and  C_20 
REMARK       I    between atoms: N_16  and  C_25 
ROOT
HETATM    1  C           1     -20.633  -6.806  -5.247  0.00  0.00     0.249 C 
HETATM    2  H           1     -19.645  -7.869  -6.723  0.00  0.00     0.163 HD
HETATM    3  O           1     -21.088  -6.855  -4.128  0.00  0.00    -0.271 OA
HETATM    4  N           1     -20.026  -7.909  -5.787  0.00  0.00    -0.344 N 
ENDROOT
BRANCH   1   5
HETATM    5  C           1     -20.735  -5.532  -6.048  0.00  0.00     0.278 C 
BRANCH   5   6
HETATM    6  C           1     -20.008  -5.706  -7.375  0.00  0.00     0.081 C 
BRANCH   6   7
HETATM    7  C           1     -20.744  -4.967  -8.449  0.00  0.00    -0.056 A 
HETATM    8  C           1     -20.094  -4.633  -9.636  0.00  0.00     0.010 A 
HETATM    9  C           1     -20.781  -3.944 -10.636  0.00  0.00     0.037 A 
HETATM   10  C           1     -22.117  -3.589 -10.449  0.00  0.00     0.065 A 
HETATM   11  C           1     -22.766  -3.925  -9.261  0.00  0.00     0.037 A 
HETATM   12  C           1     -22.080  -4.613  -8.261  0.00  0.00     0.010 A 
BRANCH  10  13
HETATM   13  O           1     -22.783  -2.920 -11.421  0.00  0.00    -0.361 OA
HETATM   14  H           1     -23.734  -3.077 -11.294  0.00  0.00     0.217 HD
ENDBRANCH  10  13
ENDBRANCH   6   7
ENDBRANCH   5   6
BRANCH   5  15
HETATM   15  N           1     -20.108  -4.408  -5.280  0.00  0.00    -0.066 N 
HETATM   16  H           1     -19.147  -4.227  -5.647  0.00  0.00     0.275 HD
HETATM   17  H           1     -20.689  -3.545  -5.387  0.00  0.00     0.275 HD
HETATM   18  H           1     -20.052  -4.665  -4.269  0.00  0.00     0.275 HD
ENDBRANCH   5  15
ENDBRANCH   1   5
BRANCH   4  19
HETATM   19  C           1     -19.929  -9.133  -5.016  0.00  0.00     0.194 C 
BRANCH  19  20
HETATM   20  C           1     -21.066 -10.070  -5.404  0.00  0.00     0.138 C 
BRANCH  20  21
HETATM   21  C           1     -21.741 -10.584  -4.157  0.00  0.00     0.217 C 
HETATM   22  O           1     -21.694  -9.941  -3.135  0.00  0.00    -0.274 OA
HETATM   23  N           1     -22.407 -11.781  -4.182  0.00  0.00    -0.370 N 
HETATM   24  H           1     -22.859 -12.125  -3.345  0.00  0.00     0.159 HD
HETATM   25  H           1     -22.446 -12.319  -5.037  0.00  0.00     0.159 HD
ENDBRANCH  20  21
ENDBRANCH  19  20
BRANCH  19  26
HETATM   26  C           1     -18.607  -9.803  -5.303  0.00  0.00     0.197 C 
HETATM   27  O           1     -18.453 -10.452  -6.360  0.00  0.00    -0.646 OA
HETATM   28  O           1     -17.668  -9.709  -4.484  0.00  0.00    -0.646 OA
ENDBRANCH  19  26
ENDBRANCH   4  19
TORSDOF 9
ENDMDL
