MODEL 1
REMARK VINA RESULT:      -6.0      0.000      0.000
REMARK  10 active torsions:
REMARK  status: ('A' for Active; 'I' for Inactive)
REMARK    1  A    between atoms: C_1  and  C_8 
REMARK    2  A    between atoms: C_1  and  C_13 
REMARK    3  A    between atoms: N_3  and  C_8 
REMARK    4  A    between atoms: C_6  and  C_12 
REMARK    5  A    between atoms: N_7  and  C_12 
REMARK       I    between atoms: N_7  and  C_9 
REMARK    6  A    between atoms: C_8  and  C_9 
REMARK    7  A    between atoms: C_10  and  N_20 
REMARK    8  A    between atoms: C_10  and  C_14 
REMARK    9  A    between atoms: C_11  and  C_14 
REMARK   10  A    between atoms: C_11  and  C_12 
ROOT
HETATM    1  N           1     -35.233  -0.900 -12.557  0.00  0.00    -0.345 N 
HETATM    2  C           1     -35.046  -1.365 -13.830  0.00  0.00     0.249 C 
HETATM    3  O           1     -34.901  -2.549 -14.027  0.00  0.00    -0.271 OA
HETATM    4  H           1     -35.355   0.091 -12.393  0.00  0.00     0.163 HD
ENDROOT
BRANCH   1   5
HETATM    5  C           1     -35.257  -1.828 -11.443  0.00  0.00     0.185 C 
BRANCH   5   6
HETATM    6  C           1     -36.252  -1.351 -10.413  0.00  0.00     0.196 C 
HETATM    7  O           1     -37.473  -1.561 -10.579  0.00  0.00    -0.646 OA
HETATM    8  O           1     -35.855  -0.746  -9.394  0.00  0.00    -0.646 OA
ENDBRANCH   5   6
BRANCH   5   9
HETATM    9  C           1     -33.872  -1.903 -10.815  0.00  0.00     0.038 C 
BRANCH   9  10
HETATM   10  C           1     -33.231  -3.243 -11.155  0.00  0.00     0.030 C 
BRANCH  10  11
HETATM   11  C           1     -34.274  -4.348 -11.039  0.00  0.00     0.230 C 
BRANCH  11  12
HETATM   12  N           1     -34.340  -5.112 -12.328  0.00  0.00    -0.079 N 
HETATM   13  H           1     -34.394  -4.442 -13.127  0.00  0.00     0.274 HD
HETATM   14  H           1     -35.187  -5.723 -12.326  0.00  0.00     0.274 HD
HETATM   15  H           1     -33.484  -5.703 -12.426  0.00  0.00     0.274 HD
ENDBRANCH  11  12
ENDBRANCH  10  11
ENDBRANCH   9  10
ENDBRANCH   5   9
ENDBRANCH   1   5
BRANCH   2  16
HETATM   16  C           1     -35.021  -0.401 -14.990  0.00  0.00     0.284 C 
BRANCH  16  17
HETATM   17  C           1     -36.106   0.651 -14.801  0.00  0.00     0.155 C 
BRANCH  17  18
HETATM   18  C           1     -37.448   0.059 -15.156  0.00  0.00     0.175 C 
HETATM   19  O           1     -38.008   0.377 -16.228  0.00  0.00    -0.648 OA
HETATM   20  O           1     -38.000  -0.751 -14.380  0.00  0.00    -0.648 OA
ENDBRANCH  17  18
ENDBRANCH  16  17
BRANCH  16  21
HETATM   21  N           1     -35.268  -1.148 -16.267  0.00  0.00    -0.066 N 
HETATM   22  H           1     -35.239  -0.484 -17.073  0.00  0.00     0.275 HD
HETATM   23  H           1     -34.528  -1.878 -16.391  0.00  0.00     0.275 HD
HETATM   24  H           1     -36.207  -1.606 -16.227  0.00  0.00     0.275 HD
ENDBRANCH  16  21
ENDBRANCH   2  16
TORSDOF 10
ENDMDL
MODEL 2
REMARK VINA RESULT:      -5.8     12.797     15.501
REMARK  10 active torsions:
REMARK  status: ('A' for Active; 'I' for Inactive)
REMARK    1  A    between atoms: C_1  and  C_8 
REMARK    2  A    between atoms: C_1  and  C_13 
REMARK    3  A    between atoms: N_3  and  C_8 
REMARK    4  A    between atoms: C_6  and  C_12 
REMARK    5  A    between atoms: N_7  and  C_12 
REMARK       I    between atoms: N_7  and  C_9 
REMARK    6  A    between atoms: C_8  and  C_9 
REMARK    7  A    between atoms: C_10  and  N_20 
REMARK    8  A    between atoms: C_10  and  C_14 
REMARK    9  A    between atoms: C_11  and  C_14 
REMARK   10  A    between atoms: C_11  and  C_12 
ROOT
HETATM    1  N           1     -22.091  -4.699  -8.736  0.00  0.00    -0.345 N 
HETATM    2  C           1     -21.559  -4.364  -7.520  0.00  0.00     0.249 C 
HETATM    3  O           1     -21.520  -3.206  -7.176  0.00  0.00    -0.271 OA
HETATM    4  H           1     -22.124  -5.669  -9.024  0.00  0.00     0.163 HD
ENDROOT
BRANCH   1   5
HETATM    5  C           1     -22.608  -3.665  -9.611  0.00  0.00     0.185 C 
BRANCH   5   6
HETATM    6  C           1     -24.104  -3.815  -9.737  0.00  0.00     0.196 C 
HETATM    7  O           1     -24.593  -4.891 -10.146  0.00  0.00    -0.646 OA
HETATM    8  O           1     -24.855  -2.864  -9.431  0.00  0.00    -0.646 OA
ENDBRANCH   5   6
BRANCH   5   9
HETATM    9  C           1     -21.966  -3.796 -10.986  0.00  0.00     0.038 C 
BRANCH   9  10
HETATM   10  C           1     -22.393  -2.625 -11.861  0.00  0.00     0.030 C 
BRANCH  10  11
HETATM   11  C           1     -22.720  -3.131 -13.260  0.00  0.00     0.230 C 
BRANCH  11  12
HETATM   12  N           1     -23.860  -4.103 -13.189  0.00  0.00    -0.079 N 
HETATM   13  H           1     -24.020  -4.379 -12.194  0.00  0.00     0.274 HD
HETATM   14  H           1     -23.629  -4.951 -13.754  0.00  0.00     0.274 HD
HETATM   15  H           1     -24.724  -3.655 -13.569  0.00  0.00     0.274 HD
ENDBRANCH  11  12
ENDBRANCH  10  11
ENDBRANCH   9  10
ENDBRANCH   5   9
ENDBRANCH   1   5
BRANCH   2  16
HETATM   16  C           1     -21.022  -5.440  -6.609  0.00  0.00     0.284 C 
BRANCH  16  17
HETATM   17  C           1     -22.149  -5.982  -5.741  0.00  0.00     0.155 C 
BRANCH  17  18
HETATM   18  C           1     -21.579  -6.512  -4.448  0.00  0.00     0.175 C 
HETATM   19  O           1     -21.861  -5.955  -3.365  0.00  0.00    -0.648 OA
HETATM   20  O           1     -20.824  -7.509  -4.459  0.00  0.00    -0.648 OA
ENDBRANCH  17  18
ENDBRANCH  16  17
BRANCH  16  21
HETATM   21  N           1     -19.950  -4.862  -5.732  0.00  0.00    -0.066 N 
HETATM   22  H           1     -19.312  -4.267  -6.306  0.00  0.00     0.275 HD
HETATM   23  H           1     -20.390  -4.279  -4.984  0.00  0.00     0.275 HD
HETATM   24  H           1     -19.403  -5.638  -5.295  0.00  0.00     0.275 HD
ENDBRANCH  16  21
ENDBRANCH   2  16
TORSDOF 10
ENDMDL
MODEL 3
REMARK VINA RESULT:      -5.4      9.041     10.483
REMARK  10 active torsions:
REMARK  status: ('A' for Active; 'I' for Inactive)
REMARK    1  A    between atoms: C_1  and  C_8 
REMARK    2  A    between atoms: C_1  and  C_13 
REMARK    3  A    between atoms: N_3  and  C_8 
REMARK    4  A    between atoms: C_6  and  C_12 
REMARK    5  A    between atoms: N_7  and  C_12 
REMARK       I    between atoms: N_7  and  C_9 
REMARK    6  A    between atoms: C_8  and  C_9 
REMARK    7  A    between atoms: C_10  and  N_20 
REMARK    8  A    between atoms: C_10  and  C_14 
REMARK    9  A    between atoms: C_11  and  C_14 
REMARK   10  A    between atoms: C_11  and  C_12 
ROOT
HETATM    1  N           1     -28.838  -6.058 -18.362  0.00  0.00    -0.345 N 
HETATM    2  C           1     -29.927  -6.766 -17.930  0.00  0.00     0.249 C 
HETATM    3  O           1     -29.824  -7.945 -17.686  0.00  0.00    -0.271 OA
HETATM    4  H           1     -28.924  -5.071 -18.566  0.00  0.00     0.163 HD
ENDROOT
BRANCH   1   5
HETATM    5  C           1     -27.560  -6.724 -18.527  0.00  0.00     0.185 C 
BRANCH   5   6
HETATM    6  C           1     -26.624  -6.295 -17.424  0.00  0.00     0.196 C 
HETATM    7  O           1     -25.388  -6.325 -17.606  0.00  0.00    -0.646 OA
HETATM    8  O           1     -27.085  -5.908 -16.328  0.00  0.00    -0.646 OA
ENDBRANCH   5   6
BRANCH   5   9
HETATM    9  C           1     -26.963  -6.348 -19.876  0.00  0.00     0.038 C 
BRANCH   9  10
HETATM   10  C           1     -26.661  -7.613 -20.669  0.00  0.00     0.030 C 
BRANCH  10  11
HETATM   11  C           1     -25.185  -7.635 -21.047  0.00  0.00     0.230 C 
BRANCH  11  12
HETATM   12  N           1     -24.359  -7.891 -19.821  0.00  0.00    -0.079 N 
HETATM   13  H           1     -24.670  -8.781 -19.371  0.00  0.00     0.274 HD
HETATM   14  H           1     -24.479  -7.099 -19.150  0.00  0.00     0.274 HD
HETATM   15  H           1     -23.352  -7.969 -20.091  0.00  0.00     0.274 HD
ENDBRANCH  11  12
ENDBRANCH  10  11
ENDBRANCH   9  10
ENDBRANCH   5   9
ENDBRANCH   1   5
BRANCH   2  16
HETATM   16  C           1     -31.257  -6.074 -17.758  0.00  0.00     0.284 C 
BRANCH  16  17
HETATM   17  C           1     -31.111  -4.931 -16.762  0.00  0.00     0.155 C 
BRANCH  17  18
HETATM   18  C           1     -32.275  -3.982 -16.911  0.00  0.00     0.175 C 
HETATM   19  O           1     -33.304  -4.142 -16.219  0.00  0.00    -0.648 OA
HETATM   20  O           1     -32.210  -3.035 -17.724  0.00  0.00    -0.648 OA
ENDBRANCH  17  18
ENDBRANCH  16  17
BRANCH  16  21
HETATM   21  N           1     -32.269  -7.056 -17.246  0.00  0.00    -0.066 N 
HETATM   22  H           1     -32.985  -7.237 -17.985  0.00  0.00     0.275 HD
HETATM   23  H           1     -31.789  -7.952 -16.999  0.00  0.00     0.275 HD
HETATM   24  H           1     -32.736  -6.664 -16.397  0.00  0.00     0.275 HD
ENDBRANCH  16  21
ENDBRANCH   2  16
TORSDOF 10
ENDMDL
MODEL 4
REMARK VINA RESULT:      -5.3     12.493     14.296
REMARK  10 active torsions:
REMARK  status: ('A' for Active; 'I' for Inactive)
REMARK    1  A    between atoms: C_1  and  C_8 
REMARK    2  A    between atoms: C_1  and  C_13 
REMARK    3  A    between atoms: N_3  and  C_8 
REMARK    4  A    between atoms: C_6  and  C_12 
REMARK    5  A    between atoms: N_7  and  C_12 
REMARK       I    between atoms: N_7  and  C_9 
REMARK    6  A    between atoms: C_8  and  C_9 
REMARK    7  A    between atoms: C_10  and  N_20 
REMARK    8  A    between atoms: C_10  and  C_14 
REMARK    9  A    between atoms: C_11  and  C_14 
REMARK   10  A    between atoms: C_11  and  C_12 
ROOT
HETATM    1  N           1     -22.261  -4.311  -9.352  0.00  0.00    -0.345 N 
HETATM    2  C           1     -21.504  -4.419 -10.487  0.00  0.00     0.249 C 
HETATM    3  O           1     -20.383  -4.866 -10.426  0.00  0.00    -0.271 OA
HETATM    4  H           1     -23.200  -3.937  -9.404  0.00  0.00     0.163 HD
ENDROOT
BRANCH   1   5
HETATM    5  C           1     -21.718  -4.731  -8.075  0.00  0.00     0.185 C 
BRANCH   5   6
HETATM    6  C           1     -22.822  -4.770  -7.047  0.00  0.00     0.196 C 
HETATM    7  O           1     -22.643  -5.359  -5.959  0.00  0.00    -0.646 OA
HETATM    8  O           1     -23.915  -4.212  -7.284  0.00  0.00    -0.646 OA
ENDBRANCH   5   6
BRANCH   5   9
HETATM    9  C           1     -20.644  -3.747  -7.632  0.00  0.00     0.038 C 
BRANCH   9  10
HETATM   10  C           1     -19.508  -4.504  -6.955  0.00  0.00     0.030 C 
BRANCH  10  11
HETATM   11  C           1     -19.585  -5.978  -7.332  0.00  0.00     0.230 C 
BRANCH  11  12
HETATM   12  N           1     -19.911  -6.790  -6.114  0.00  0.00    -0.079 N 
HETATM   13  H           1     -20.497  -7.611  -6.390  0.00  0.00     0.274 HD
HETATM   14  H           1     -20.438  -6.198  -5.433  0.00  0.00     0.274 HD
HETATM   15  H           1     -19.026  -7.126  -5.673  0.00  0.00     0.274 HD
ENDBRANCH  11  12
ENDBRANCH  10  11
ENDBRANCH   9  10
ENDBRANCH   5   9
ENDBRANCH   1   5
BRANCH   2  16
HETATM   16  C           1     -22.070  -3.982 -11.816  0.00  0.00     0.284 C 
BRANCH  16  17
HETATM   17  C           1     -22.827  -2.673 -11.641  0.00  0.00     0.155 C 
BRANCH  17  18
HETATM   18  C           1     -24.304  -2.915 -11.836  0.00  0.00     0.175 C 
HETATM   19  O           1     -25.022  -3.221 -10.859  0.00  0.00    -0.648 OA
HETATM   20  O           1     -24.811  -2.809 -12.974  0.00  0.00    -0.648 OA
ENDBRANCH  17  18
ENDBRANCH  16  17
BRANCH  16  21
HETATM   21  N           1     -23.005  -5.035 -12.332  0.00  0.00    -0.066 N 
HETATM   22  H           1     -22.541  -5.970 -12.282  0.00  0.00     0.275 HD
HETATM   23  H           1     -23.873  -5.045 -11.748  0.00  0.00     0.275 HD
HETATM   24  H           1     -23.255  -4.823 -13.324  0.00  0.00     0.275 HD
ENDBRANCH  16  21
ENDBRANCH   2  16
TORSDOF 10
ENDMDL
MODEL 5
REMARK VINA RESULT:      -5.2     13.087     15.739
REMARK  10 active torsions:
REMARK  status: ('A' for Active; 'I' for Inactive)
REMARK    1  A    between atoms: C_1  and  C_8 
REMARK    2  A    between atoms: C_1  and  C_13 
REMARK    3  A    between atoms: N_3  and  C_8 
REMARK    4  A    between atoms: C_6  and  C_12 
REMARK    5  A    between atoms: N_7  and  C_12 
REMARK       I    between atoms: N_7  and  C_9 
REMARK    6  A    between atoms: C_8  and  C_9 
REMARK    7  A    between atoms: C_10  and  N_20 
REMARK    8  A    between atoms: C_10  and  C_14 
REMARK    9  A    between atoms: C_11  and  C_14 
REMARK   10  A    between atoms: C_11  and  C_12 
ROOT
HETATM    1  N           1     -21.880  -4.088  -9.324  0.00  0.00    -0.345 N 
HETATM    2  C           1     -20.918  -4.494  -8.439  0.00  0.00     0.249 C 
HETATM    3  O           1     -19.920  -5.044  -8.842  0.00  0.00    -0.271 OA
HETATM    4  H           1     -22.716  -3.628  -8.987  0.00  0.00     0.163 HD
ENDROOT
BRANCH   1   5
HETATM    5  C           1     -21.701  -4.318 -10.744  0.00  0.00     0.185 C 
BRANCH   5   6
HETATM    6  C           1     -21.333  -3.019 -11.420  0.00  0.00     0.196 C 
HETATM    7  O           1     -20.175  -2.563 -11.308  0.00  0.00    -0.646 OA
HETATM    8  O           1     -22.187  -2.402 -12.094  0.00  0.00    -0.646 OA
ENDBRANCH   5   6
BRANCH   5   9
HETATM    9  C           1     -22.998  -4.851 -11.339  0.00  0.00     0.038 C 
BRANCH   9  10
HETATM   10  C           1     -24.082  -4.862 -10.269  0.00  0.00     0.030 C 
BRANCH  10  11
HETATM   11  C           1     -24.900  -3.580 -10.361  0.00  0.00     0.230 C 
BRANCH  11  12
HETATM   12  N           1     -25.014  -2.959  -9.001  0.00  0.00    -0.079 N 
HETATM   13  H           1     -24.949  -3.705  -8.271  0.00  0.00     0.274 HD
HETATM   14  H           1     -25.934  -2.470  -8.919  0.00  0.00     0.274 HD
HETATM   15  H           1     -24.240  -2.271  -8.866  0.00  0.00     0.274 HD
ENDBRANCH  11  12
ENDBRANCH  10  11
ENDBRANCH   9  10
ENDBRANCH   5   9
ENDBRANCH   1   5
BRANCH   2  16
HETATM   16  C           1     -21.103  -4.256  -6.961  0.00  0.00     0.284 C 
BRANCH  16  17
HETATM   17  C           1     -20.040  -5.021  -6.185  0.00  0.00     0.155 C 
BRANCH  17  18
HETATM   18  C           1     -20.659  -6.244  -5.553  0.00  0.00     0.175 C 
HETATM   19  O           1     -20.790  -7.293  -6.220  0.00  0.00    -0.648 OA
HETATM   20  O           1     -21.040  -6.209  -4.363  0.00  0.00    -0.648 OA
ENDBRANCH  17  18
ENDBRANCH  16  17
BRANCH  16  21
HETATM   21  N           1     -22.463  -4.731  -6.544  0.00  0.00    -0.066 N 
HETATM   22  H           1     -23.151  -4.535  -7.306  0.00  0.00     0.275 HD
HETATM   23  H           1     -22.431  -5.760  -6.361  0.00  0.00     0.275 HD
HETATM   24  H           1     -22.755  -4.230  -5.675  0.00  0.00     0.275 HD
ENDBRANCH  16  21
ENDBRANCH   2  16
TORSDOF 10
ENDMDL
MODEL 6
REMARK VINA RESULT:      -5.1     14.495     16.827
REMARK  10 active torsions:
REMARK  status: ('A' for Active; 'I' for Inactive)
REMARK    1  A    between atoms: C_1  and  C_8 
REMARK    2  A    between atoms: C_1  and  C_13 
REMARK    3  A    between atoms: N_3  and  C_8 
REMARK    4  A    between atoms: C_6  and  C_12 
REMARK    5  A    between atoms: N_7  and  C_12 
REMARK       I    between atoms: N_7  and  C_9 
REMARK    6  A    between atoms: C_8  and  C_9 
REMARK    7  A    between atoms: C_10  and  N_20 
REMARK    8  A    between atoms: C_10  and  C_14 
REMARK    9  A    between atoms: C_11  and  C_14 
REMARK   10  A    between atoms: C_11  and  C_12 
ROOT
HETATM    1  N           1     -21.836  -4.789  -7.266  0.00  0.00    -0.345 N 
HETATM    2  C           1     -21.365  -5.879  -6.586  0.00  0.00     0.249 C 
HETATM    3  O           1     -20.871  -6.801  -7.190  0.00  0.00    -0.271 OA
HETATM    4  H           1     -22.249  -4.016  -6.760  0.00  0.00     0.163 HD
ENDROOT
BRANCH   1   5
HETATM    5  C           1     -21.745  -4.742  -8.713  0.00  0.00     0.185 C 
BRANCH   5   6
HETATM    6  C           1     -20.342  -4.355  -9.115  0.00  0.00     0.196 C 
HETATM    7  O           1     -19.652  -3.636  -8.361  0.00  0.00    -0.646 OA
HETATM    8  O           1     -19.871  -4.755 -10.202  0.00  0.00    -0.646 OA
ENDBRANCH   5   6
BRANCH   5   9
HETATM    9  C           1     -22.730  -3.713  -9.250  0.00  0.00     0.038 C 
BRANCH   9  10
HETATM   10  C           1     -23.239  -4.161 -10.614  0.00  0.00     0.030 C 
BRANCH  10  11
HETATM   11  C           1     -22.791  -3.164 -11.676  0.00  0.00     0.230 C 
BRANCH  11  12
HETATM   12  N           1     -21.700  -3.772 -12.505  0.00  0.00    -0.079 N 
HETATM   13  H           1     -22.021  -4.692 -12.884  0.00  0.00     0.274 HD
HETATM   14  H           1     -20.852  -3.916 -11.912  0.00  0.00     0.274 HD
HETATM   15  H           1     -21.466  -3.132 -13.297  0.00  0.00     0.274 HD
ENDBRANCH  11  12
ENDBRANCH  10  11
ENDBRANCH   9  10
ENDBRANCH   5   9
ENDBRANCH   1   5
BRANCH   2  16
HETATM   16  C           1     -21.459  -5.928  -5.081  0.00  0.00     0.284 C 
BRANCH  16  17
HETATM   17  C           1     -20.557  -7.033  -4.550  0.00  0.00     0.155 C 
BRANCH  17  18
HETATM   18  C           1     -21.175  -7.636  -3.311  0.00  0.00     0.175 C 
HETATM   19  O           1     -21.196  -6.986  -2.244  0.00  0.00    -0.648 OA
HETATM   20  O           1     -21.665  -8.785  -3.352  0.00  0.00    -0.648 OA
ENDBRANCH  17  18
ENDBRANCH  16  17
BRANCH  16  21
HETATM   21  N           1     -22.878  -6.205  -4.679  0.00  0.00    -0.066 N 
HETATM   22  H           1     -23.056  -7.234  -4.710  0.00  0.00     0.275 HD
HETATM   23  H           1     -23.039  -5.853  -3.707  0.00  0.00     0.275 HD
HETATM   24  H           1     -23.527  -5.719  -5.338  0.00  0.00     0.275 HD
ENDBRANCH  16  21
ENDBRANCH   2  16
TORSDOF 10
ENDMDL
MODEL 7
REMARK VINA RESULT:      -5.1     14.307     17.152
REMARK  10 active torsions:
REMARK  status: ('A' for Active; 'I' for Inactive)
REMARK    1  A    between atoms: C_1  and  C_8 
REMARK    2  A    between atoms: C_1  and  C_13 
REMARK    3  A    between atoms: N_3  and  C_8 
REMARK    4  A    between atoms: C_6  and  C_12 
REMARK    5  A    between atoms: N_7  and  C_12 
REMARK       I    between atoms: N_7  and  C_9 
REMARK    6  A    between atoms: C_8  and  C_9 
REMARK    7  A    between atoms: C_10  and  N_20 
REMARK    8  A    between atoms: C_10  and  C_14 
REMARK    9  A    between atoms: C_11  and  C_14 
REMARK   10  A    between atoms: C_11  and  C_12 
ROOT
HETATM    1  N           1     -21.800  -5.522  -6.158  0.00  0.00    -0.345 N 
HETATM    2  C           1     -21.594  -6.800  -5.714  0.00  0.00     0.249 C 
HETATM    3  O           1     -21.042  -7.605  -6.426  0.00  0.00    -0.271 OA
HETATM    4  H           1     -22.262  -4.847  -5.561  0.00  0.00     0.163 HD
ENDROOT
BRANCH   1   5
HETATM    5  C           1     -21.358  -5.134  -7.483  0.00  0.00     0.185 C 
BRANCH   5   6
HETATM    6  C           1     -20.035  -4.415  -7.380  0.00  0.00     0.196 C 
HETATM    7  O           1     -19.331  -4.544  -6.355  0.00  0.00    -0.646 OA
HETATM    8  O           1     -19.643  -3.691  -8.321  0.00  0.00    -0.646 OA
ENDBRANCH   5   6
BRANCH   5   9
HETATM    9  C           1     -22.391  -4.210  -8.113  0.00  0.00     0.038 C 
BRANCH   9  10
HETATM   10  C           1     -22.692  -4.676  -9.532  0.00  0.00     0.030 C 
BRANCH  10  11
HETATM   11  C           1     -24.160  -4.419  -9.850  0.00  0.00     0.230 C 
BRANCH  11  12
HETATM   12  N           1     -24.643  -3.235  -9.066  0.00  0.00    -0.079 N 
HETATM   13  H           1     -24.856  -3.530  -8.086  0.00  0.00     0.274 HD
HETATM   14  H           1     -25.507  -2.853  -9.511  0.00  0.00     0.274 HD
HETATM   15  H           1     -23.902  -2.499  -9.055  0.00  0.00     0.274 HD
ENDBRANCH  11  12
ENDBRANCH  10  11
ENDBRANCH   9  10
ENDBRANCH   5   9
ENDBRANCH   1   5
BRANCH   2  16
HETATM   16  C           1     -22.054  -7.204  -4.335  0.00  0.00     0.284 C 
BRANCH  16  17
HETATM   17  C           1     -21.428  -6.280  -3.299  0.00  0.00     0.155 C 
BRANCH  17  18
HETATM   18  C           1     -21.647  -6.851  -1.918  0.00  0.00     0.175 C 
HETATM   19  O           1     -22.640  -6.499  -1.247  0.00  0.00    -0.648 OA
HETATM   20  O           1     -20.835  -7.676  -1.447  0.00  0.00    -0.648 OA
ENDBRANCH  17  18
ENDBRANCH  16  17
BRANCH  16  21
HETATM   21  N           1     -21.634  -8.618  -4.063  0.00  0.00    -0.066 N 
HETATM   22  H           1     -22.478  -9.231  -4.018  0.00  0.00     0.275 HD
HETATM   23  H           1     -21.004  -8.947  -4.830  0.00  0.00     0.275 HD
HETATM   24  H           1     -21.125  -8.659  -3.150  0.00  0.00     0.275 HD
ENDBRANCH  16  21
ENDBRANCH   2  16
TORSDOF 10
ENDMDL
MODEL 8
REMARK VINA RESULT:      -5.0     15.087     17.040
REMARK  10 active torsions:
REMARK  status: ('A' for Active; 'I' for Inactive)
REMARK    1  A    between atoms: C_1  and  C_8 
REMARK    2  A    between atoms: C_1  and  C_13 
REMARK    3  A    between atoms: N_3  and  C_8 
REMARK    4  A    between atoms: C_6  and  C_12 
REMARK    5  A    between atoms: N_7  and  C_12 
REMARK       I    between atoms: N_7  and  C_9 
REMARK    6  A    between atoms: C_8  and  C_9 
REMARK    7  A    between atoms: C_10  and  N_20 
REMARK    8  A    between atoms: C_10  and  C_14 
REMARK    9  A    between atoms: C_11  and  C_14 
REMARK   10  A    between atoms: C_11  and  C_12 
ROOT
HETATM    1  N           1     -21.538  -6.210  -5.835  0.00  0.00    -0.345 N 
HETATM    2  C           1     -20.959  -5.157  -6.489  0.00  0.00     0.249 C 
HETATM    3  O           1     -20.034  -4.566  -5.984  0.00  0.00    -0.271 OA
HETATM    4  H           1     -22.313  -6.705  -6.257  0.00  0.00     0.163 HD
ENDROOT
BRANCH   1   5
HETATM    5  C           1     -21.041  -6.617  -4.534  0.00  0.00     0.185 C 
BRANCH   5   6
HETATM    6  C           1     -20.327  -7.940  -4.661  0.00  0.00     0.196 C 
HETATM    7  O           1     -20.279  -8.521  -5.767  0.00  0.00    -0.646 OA
HETATM    8  O           1     -19.783  -8.455  -3.660  0.00  0.00    -0.646 OA
ENDBRANCH   5   6
BRANCH   5   9
HETATM    9  C           1     -22.209  -6.759  -3.567  0.00  0.00     0.038 C 
BRANCH   9  10
HETATM   10  C           1     -21.861  -6.083  -2.247  0.00  0.00     0.030 C 
BRANCH  10  11
HETATM   11  C           1     -22.194  -7.021  -1.093  0.00  0.00     0.230 C 
BRANCH  11  12
HETATM   12  N           1     -21.062  -7.983  -0.886  0.00  0.00    -0.079 N 
HETATM   13  H           1     -21.022  -8.261   0.120  0.00  0.00     0.274 HD
HETATM   14  H           1     -20.163  -7.524  -1.159  0.00  0.00     0.274 HD
HETATM   15  H           1     -21.214  -8.831  -1.477  0.00  0.00     0.274 HD
ENDBRANCH  11  12
ENDBRANCH  10  11
ENDBRANCH   9  10
ENDBRANCH   5   9
ENDBRANCH   1   5
BRANCH   2  16
HETATM   16  C           1     -21.475  -4.734  -7.842  0.00  0.00     0.284 C 
BRANCH  16  17
HETATM   17  C           1     -20.311  -4.284  -8.714  0.00  0.00     0.155 C 
BRANCH  17  18
HETATM   18  C           1     -20.712  -4.356 -10.167  0.00  0.00     0.175 C 
HETATM   19  O           1     -21.917  -4.278 -10.487  0.00  0.00    -0.648 OA
HETATM   20  O           1     -19.838  -4.492 -11.051  0.00  0.00    -0.648 OA
ENDBRANCH  17  18
ENDBRANCH  16  17
BRANCH  16  21
HETATM   21  N           1     -22.441  -3.598  -7.675  0.00  0.00    -0.066 N 
HETATM   22  H           1     -22.743  -3.539  -6.677  0.00  0.00     0.275 HD
HETATM   23  H           1     -21.976  -2.703  -7.952  0.00  0.00     0.275 HD
HETATM   24  H           1     -23.276  -3.759  -8.282  0.00  0.00     0.275 HD
ENDBRANCH  16  21
ENDBRANCH   2  16
TORSDOF 10
ENDMDL
MODEL 9
REMARK VINA RESULT:      -4.9     16.088     17.996
REMARK  10 active torsions:
REMARK  status: ('A' for Active; 'I' for Inactive)
REMARK    1  A    between atoms: C_1  and  C_8 
REMARK    2  A    between atoms: C_1  and  C_13 
REMARK    3  A    between atoms: N_3  and  C_8 
REMARK    4  A    between atoms: C_6  and  C_12 
REMARK    5  A    between atoms: N_7  and  C_12 
REMARK       I    between atoms: N_7  and  C_9 
REMARK    6  A    between atoms: C_8  and  C_9 
REMARK    7  A    between atoms: C_10  and  N_20 
REMARK    8  A    between atoms: C_10  and  C_14 
REMARK    9  A    between atoms: C_11  and  C_14 
REMARK   10  A    between atoms: C_11  and  C_12 
ROOT
HETATM    1  N           1     -20.671  -7.094  -3.422  0.00  0.00    -0.345 N 
HETATM    2  C           1     -21.146  -6.950  -4.697  0.00  0.00     0.249 C 
HETATM    3  O           1     -22.247  -7.356  -4.981  0.00  0.00    -0.271 OA
HETATM    4  H           1     -19.748  -6.753  -3.184  0.00  0.00     0.163 HD
ENDROOT
BRANCH   1   5
HETATM    5  C           1     -21.489  -7.736  -2.412  0.00  0.00     0.185 C 
BRANCH   5   6
HETATM    6  C           1     -22.189  -6.683  -1.588  0.00  0.00     0.196 C 
HETATM    7  O           1     -22.132  -5.482  -1.931  0.00  0.00    -0.646 OA
HETATM    8  O           1     -22.826  -7.011  -0.564  0.00  0.00    -0.646 OA
ENDBRANCH   5   6
BRANCH   5   9
HETATM    9  C           1     -20.606  -8.585  -1.508  0.00  0.00     0.038 C 
BRANCH   9  10
HETATM   10  C           1     -21.152 -10.006  -1.451  0.00  0.00     0.030 C 
BRANCH  10  11
HETATM   11  C           1     -21.716 -10.278  -0.062  0.00  0.00     0.230 C 
BRANCH  11  12
HETATM   12  N           1     -21.188  -9.256   0.902  0.00  0.00    -0.079 N 
HETATM   13  H           1     -21.879  -8.478   0.996  0.00  0.00     0.274 HD
HETATM   14  H           1     -20.282  -8.878   0.545  0.00  0.00     0.274 HD
HETATM   15  H           1     -21.036  -9.703   1.834  0.00  0.00     0.274 HD
ENDBRANCH  11  12
ENDBRANCH  10  11
ENDBRANCH   9  10
ENDBRANCH   5   9
ENDBRANCH   1   5
BRANCH   2  16
HETATM   16  C           1     -20.295  -6.281  -5.749  0.00  0.00     0.284 C 
BRANCH  16  17
HETATM   17  C           1     -20.399  -4.770  -5.603  0.00  0.00     0.155 C 
BRANCH  17  18
HETATM   18  C           1     -20.932  -4.176  -6.885  0.00  0.00     0.175 C 
HETATM   19  O           1     -20.140  -3.777  -7.765  0.00  0.00    -0.648 OA
HETATM   20  O           1     -22.166  -4.083  -7.066  0.00  0.00    -0.648 OA
ENDBRANCH  17  18
ENDBRANCH  16  17
BRANCH  16  21
HETATM   21  N           1     -20.775  -6.686  -7.111  0.00  0.00    -0.066 N 
HETATM   22  H           1     -20.791  -5.851  -7.739  0.00  0.00     0.275 HD
HETATM   23  H           1     -20.129  -7.407  -7.507  0.00  0.00     0.275 HD
HETATM   24  H           1     -21.739  -7.084  -7.036  0.00  0.00     0.275 HD
ENDBRANCH  16  21
ENDBRANCH   2  16
TORSDOF 10
ENDMDL
