MODEL 1
REMARK VINA RESULT:      -6.4      0.000      0.000
REMARK  10 active torsions:
REMARK  status: ('A' for Active; 'I' for Inactive)
REMARK    1  A    between atoms: C_2  and  C_14 
REMARK    2  A    between atoms: C_2  and  C_3 
REMARK    3  A    between atoms: C_3  and  C_13 
REMARK    4  A    between atoms: C_5  and  C_20 
REMARK    5  A    between atoms: C_5  and  C_6 
REMARK    6  A    between atoms: C_5  and  N_9 
REMARK    7  A    between atoms: C_6  and  C_7 
REMARK    8  A    between atoms: C_7  and  S_15 
REMARK    9  A    between atoms: N_11  and  C_13 
REMARK       I    between atoms: N_11  and  C_20 
REMARK   10  A    between atoms: C_13  and  C_19 
ROOT
HETATM    1  O           1     -21.842  -3.572  -7.510  0.00  0.00    -0.271 OA
HETATM    2  H           1     -22.131  -5.817  -9.683  0.00  0.00     0.163 HD
HETATM    3  N           1     -22.207  -4.895  -9.273  0.00  0.00    -0.345 N 
HETATM    4  C           1     -21.752  -4.673  -8.001  0.00  0.00     0.249 C 
ENDROOT
BRANCH   3   5
HETATM    5  C           1     -22.797  -3.811 -10.031  0.00  0.00     0.186 C 
BRANCH   5   6
HETATM    6  C           1     -22.495  -4.003 -11.511  0.00  0.00     0.046 C 
BRANCH   6   7
HETATM    7  C           1     -22.739  -2.697 -12.255  0.00  0.00     0.116 C 
BRANCH   7   8
HETATM    8  C           1     -23.780  -2.913 -13.325  0.00  0.00     0.172 C 
HETATM    9  O           1     -24.991  -2.949 -13.020  0.00  0.00    -0.648 OA
HETATM   10  O           1     -23.431  -3.056 -14.517  0.00  0.00    -0.648 OA
ENDBRANCH   7   8
ENDBRANCH   6   7
ENDBRANCH   5   6
BRANCH   5  11
HETATM   11  C           1     -24.292  -3.803  -9.819  0.00  0.00     0.196 C 
HETATM   12  O           1     -24.945  -4.861  -9.942  0.00  0.00    -0.646 OA
HETATM   13  O           1     -24.875  -2.739  -9.519  0.00  0.00    -0.646 OA
ENDBRANCH   5  11
ENDBRANCH   3   5
BRANCH   4  14
HETATM   14  C           1     -21.138  -5.802  -7.210  0.00  0.00     0.275 C 
BRANCH  14  15
HETATM   15  C           1     -21.213  -5.483  -5.724  0.00  0.00     0.053 C 
BRANCH  15  16
HETATM   16  C           1     -22.193  -6.434  -5.049  0.00  0.00     0.076 C 
BRANCH  16  17
HETATM   17  S           1     -21.351  -7.318  -3.706  0.00  0.00    -0.173 SA
HETATM   18  C           1     -21.897  -6.218  -2.370  0.00  0.00     0.089 C 
ENDBRANCH  16  17
ENDBRANCH  15  16
ENDBRANCH  14  15
BRANCH  14  19
HETATM   19  N           1     -19.702  -5.970  -7.612  0.00  0.00    -0.066 N 
HETATM   20  H           1     -19.136  -5.186  -7.217  0.00  0.00     0.275 HD
HETATM   21  H           1     -19.628  -5.961  -8.654  0.00  0.00     0.275 HD
HETATM   22  H           1     -19.342  -6.880  -7.245  0.00  0.00     0.275 HD
ENDBRANCH  14  19
ENDBRANCH   4  14
TORSDOF 10
ENDMDL
MODEL 2
REMARK VINA RESULT:      -5.7      2.155      3.357
REMARK  10 active torsions:
REMARK  status: ('A' for Active; 'I' for Inactive)
REMARK    1  A    between atoms: C_2  and  C_14 
REMARK    2  A    between atoms: C_2  and  C_3 
REMARK    3  A    between atoms: C_3  and  C_13 
REMARK    4  A    between atoms: C_5  and  C_20 
REMARK    5  A    between atoms: C_5  and  C_6 
REMARK    6  A    between atoms: C_5  and  N_9 
REMARK    7  A    between atoms: C_6  and  C_7 
REMARK    8  A    between atoms: C_7  and  S_15 
REMARK    9  A    between atoms: N_11  and  C_13 
REMARK       I    between atoms: N_11  and  C_20 
REMARK   10  A    between atoms: C_13  and  C_19 
ROOT
HETATM    1  O           1     -20.982  -6.976  -6.985  0.00  0.00    -0.271 OA
HETATM    2  H           1     -21.903  -4.052  -6.313  0.00  0.00     0.163 HD
HETATM    3  N           1     -21.660  -4.849  -6.888  0.00  0.00    -0.345 N 
HETATM    4  C           1     -21.271  -6.023  -6.300  0.00  0.00     0.249 C 
ENDROOT
BRANCH   3   5
HETATM    5  C           1     -21.726  -4.749  -8.332  0.00  0.00     0.186 C 
BRANCH   5   6
HETATM    6  C           1     -22.865  -3.818  -8.725  0.00  0.00     0.046 C 
BRANCH   6   7
HETATM    7  C           1     -23.726  -4.488  -9.788  0.00  0.00     0.116 C 
BRANCH   7   8
HETATM    8  C           1     -24.636  -3.463 -10.418  0.00  0.00     0.172 C 
HETATM    9  O           1     -24.272  -2.851 -11.445  0.00  0.00    -0.648 OA
HETATM   10  O           1     -25.755  -3.227  -9.913  0.00  0.00    -0.648 OA
ENDBRANCH   7   8
ENDBRANCH   6   7
ENDBRANCH   5   6
BRANCH   5  11
HETATM   11  C           1     -20.422  -4.199  -8.858  0.00  0.00     0.196 C 
HETATM   12  O           1     -20.193  -4.203 -10.086  0.00  0.00    -0.646 OA
HETATM   13  O           1     -19.573  -3.739  -8.064  0.00  0.00    -0.646 OA
ENDBRANCH   5  11
ENDBRANCH   3   5
BRANCH   4  14
HETATM   14  C           1     -21.203  -6.128  -4.796  0.00  0.00     0.275 C 
BRANCH  14  15
HETATM   15  C           1     -20.504  -7.423  -4.407  0.00  0.00     0.053 C 
BRANCH  15  16
HETATM   16  C           1     -21.405  -8.230  -3.483  0.00  0.00     0.076 C 
BRANCH  16  17
HETATM   17  S           1     -20.631  -8.365  -1.847  0.00  0.00    -0.173 SA
HETATM   18  C           1     -21.917  -7.460  -0.941  0.00  0.00     0.089 C 
ENDBRANCH  16  17
ENDBRANCH  15  16
ENDBRANCH  14  15
BRANCH  14  19
HETATM   19  N           1     -22.592  -6.122  -4.231  0.00  0.00    -0.066 N 
HETATM   20  H           1     -22.694  -5.325  -3.564  0.00  0.00     0.275 HD
HETATM   21  H           1     -22.769  -7.021  -3.729  0.00  0.00     0.275 HD
HETATM   22  H           1     -23.284  -6.016  -5.009  0.00  0.00     0.275 HD
ENDBRANCH  14  19
ENDBRANCH   4  14
TORSDOF 10
ENDMDL
MODEL 3
REMARK VINA RESULT:      -5.7      3.513      7.249
REMARK  10 active torsions:
REMARK  status: ('A' for Active; 'I' for Inactive)
REMARK    1  A    between atoms: C_2  and  C_14 
REMARK    2  A    between atoms: C_2  and  C_3 
REMARK    3  A    between atoms: C_3  and  C_13 
REMARK    4  A    between atoms: C_5  and  C_20 
REMARK    5  A    between atoms: C_5  and  C_6 
REMARK    6  A    between atoms: C_5  and  N_9 
REMARK    7  A    between atoms: C_6  and  C_7 
REMARK    8  A    between atoms: C_7  and  S_15 
REMARK    9  A    between atoms: N_11  and  C_13 
REMARK       I    between atoms: N_11  and  C_20 
REMARK   10  A    between atoms: C_13  and  C_19 
ROOT
HETATM    1  O           1     -21.884  -3.112  -8.204  0.00  0.00    -0.271 OA
HETATM    2  H           1     -22.544  -5.942  -7.024  0.00  0.00     0.163 HD
HETATM    3  N           1     -22.045  -5.070  -7.142  0.00  0.00    -0.345 N 
HETATM    4  C           1     -22.480  -4.154  -8.062  0.00  0.00     0.249 C 
ENDROOT
BRANCH   3   5
HETATM    5  C           1     -20.871  -4.792  -6.340  0.00  0.00     0.186 C 
BRANCH   5   6
HETATM    6  C           1     -20.973  -5.537  -5.016  0.00  0.00     0.046 C 
BRANCH   6   7
HETATM    7  C           1     -22.124  -6.532  -5.080  0.00  0.00     0.116 C 
BRANCH   7   8
HETATM    8  C           1     -21.597  -7.928  -4.850  0.00  0.00     0.172 C 
HETATM    9  O           1     -21.433  -8.350  -3.686  0.00  0.00    -0.648 OA
HETATM   10  O           1     -21.325  -8.661  -5.825  0.00  0.00    -0.648 OA
ENDBRANCH   7   8
ENDBRANCH   6   7
ENDBRANCH   5   6
BRANCH   5  11
HETATM   11  C           1     -19.636  -5.246  -7.079  0.00  0.00     0.196 C 
HETATM   12  O           1     -19.442  -6.463  -7.282  0.00  0.00    -0.646 OA
HETATM   13  O           1     -18.809  -4.403  -7.490  0.00  0.00    -0.646 OA
ENDBRANCH   5  11
ENDBRANCH   3   5
BRANCH   4  14
HETATM   14  C           1     -23.702  -4.443  -8.898  0.00  0.00     0.275 C 
BRANCH  14  15
HETATM   15  C           1     -23.275  -4.820 -10.310  0.00  0.00     0.053 C 
BRANCH  15  16
HETATM   16  C           1     -23.828  -3.801 -11.297  0.00  0.00     0.076 C 
BRANCH  16  17
HETATM   17  S           1     -22.458  -2.874 -12.043  0.00  0.00    -0.173 SA
HETATM   18  C           1     -23.139  -2.827 -13.724  0.00  0.00     0.089 C 
ENDBRANCH  16  17
ENDBRANCH  15  16
ENDBRANCH  14  15
BRANCH  14  19
HETATM   19  N           1     -24.572  -3.222  -8.949  0.00  0.00    -0.066 N 
HETATM   20  H           1     -23.980  -2.368  -8.847  0.00  0.00     0.275 HD
HETATM   21  H           1     -25.268  -3.257  -8.171  0.00  0.00     0.275 HD
HETATM   22  H           1     -25.075  -3.192  -9.865  0.00  0.00     0.275 HD
ENDBRANCH  14  19
ENDBRANCH   4  14
TORSDOF 10
ENDMDL
MODEL 4
REMARK VINA RESULT:      -5.5      4.132      8.089
REMARK  10 active torsions:
REMARK  status: ('A' for Active; 'I' for Inactive)
REMARK    1  A    between atoms: C_2  and  C_14 
REMARK    2  A    between atoms: C_2  and  C_3 
REMARK    3  A    between atoms: C_3  and  C_13 
REMARK    4  A    between atoms: C_5  and  C_20 
REMARK    5  A    between atoms: C_5  and  C_6 
REMARK    6  A    between atoms: C_5  and  N_9 
REMARK    7  A    between atoms: C_6  and  C_7 
REMARK    8  A    between atoms: C_7  and  S_15 
REMARK    9  A    between atoms: N_11  and  C_13 
REMARK       I    between atoms: N_11  and  C_20 
REMARK   10  A    between atoms: C_13  and  C_19 
ROOT
HETATM    1  O           1     -20.595  -4.304  -6.559  0.00  0.00    -0.271 OA
HETATM    2  H           1     -22.291  -6.919  -6.917  0.00  0.00     0.163 HD
HETATM    3  N           1     -21.649  -6.272  -6.478  0.00  0.00    -0.345 N 
HETATM    4  C           1     -21.361  -5.078  -7.083  0.00  0.00     0.249 C 
ENDROOT
BRANCH   3   5
HETATM    5  C           1     -21.035  -6.608  -5.209  0.00  0.00     0.186 C 
BRANCH   5   6
HETATM    6  C           1     -22.075  -6.512  -4.101  0.00  0.00     0.046 C 
BRANCH   6   7
HETATM    7  C           1     -21.392  -6.136  -2.793  0.00  0.00     0.116 C 
BRANCH   7   8
HETATM    8  C           1     -21.836  -7.080  -1.702  0.00  0.00     0.172 C 
HETATM    9  O           1     -21.398  -8.250  -1.673  0.00  0.00    -0.648 OA
HETATM   10  O           1     -22.641  -6.691  -0.829  0.00  0.00    -0.648 OA
ENDBRANCH   7   8
ENDBRANCH   6   7
ENDBRANCH   5   6
BRANCH   5  11
HETATM   11  C           1     -20.492  -8.015  -5.269  0.00  0.00     0.196 C 
HETATM   12  O           1     -21.104  -8.893  -5.913  0.00  0.00    -0.646 OA
HETATM   13  O           1     -19.429  -8.300  -4.677  0.00  0.00    -0.646 OA
ENDBRANCH   5  11
ENDBRANCH   3   5
BRANCH   4  14
HETATM   14  C           1     -22.000  -4.728  -8.404  0.00  0.00     0.275 C 
BRANCH  14  15
HETATM   15  C           1     -20.972  -4.058  -9.306  0.00  0.00     0.053 C 
BRANCH  15  16
HETATM   16  C           1     -21.260  -4.415 -10.757  0.00  0.00     0.076 C 
BRANCH  16  17
HETATM   17  S           1     -21.795  -2.929 -11.652  0.00  0.00    -0.173 SA
HETATM   18  C           1     -23.558  -3.356 -11.711  0.00  0.00     0.089 C 
ENDBRANCH  16  17
ENDBRANCH  15  16
ENDBRANCH  14  15
BRANCH  14  19
HETATM   19  N           1     -23.146  -3.788  -8.171  0.00  0.00    -0.066 N 
HETATM   20  H           1     -23.946  -4.053  -8.789  0.00  0.00     0.275 HD
HETATM   21  H           1     -22.847  -2.811  -8.390  0.00  0.00     0.275 HD
HETATM   22  H           1     -23.445  -3.845  -7.170  0.00  0.00     0.275 HD
ENDBRANCH  14  19
ENDBRANCH   4  14
TORSDOF 10
ENDMDL
MODEL 5
REMARK VINA RESULT:      -5.4      1.754      2.321
REMARK  10 active torsions:
REMARK  status: ('A' for Active; 'I' for Inactive)
REMARK    1  A    between atoms: C_2  and  C_14 
REMARK    2  A    between atoms: C_2  and  C_3 
REMARK    3  A    between atoms: C_3  and  C_13 
REMARK    4  A    between atoms: C_5  and  C_20 
REMARK    5  A    between atoms: C_5  and  C_6 
REMARK    6  A    between atoms: C_5  and  N_9 
REMARK    7  A    between atoms: C_6  and  C_7 
REMARK    8  A    between atoms: C_7  and  S_15 
REMARK    9  A    between atoms: N_11  and  C_13 
REMARK       I    between atoms: N_11  and  C_20 
REMARK   10  A    between atoms: C_13  and  C_19 
ROOT
HETATM    1  O           1     -21.991  -3.510  -7.375  0.00  0.00    -0.271 OA
HETATM    2  H           1     -22.511  -5.546  -9.705  0.00  0.00     0.163 HD
HETATM    3  N           1     -22.557  -4.672  -9.197  0.00  0.00    -0.345 N 
HETATM    4  C           1     -21.936  -4.553  -7.982  0.00  0.00     0.249 C 
ENDROOT
BRANCH   3   5
HETATM    5  C           1     -23.280  -3.547  -9.754  0.00  0.00     0.186 C 
BRANCH   5   6
HETATM    6  C           1     -22.824  -3.310 -11.187  0.00  0.00     0.046 C 
BRANCH   6   7
HETATM    7  C           1     -21.830  -4.392 -11.590  0.00  0.00     0.116 C 
BRANCH   7   8
HETATM    8  C           1     -20.446  -3.998 -11.136  0.00  0.00     0.172 C 
HETATM    9  O           1     -20.056  -2.819 -11.272  0.00  0.00    -0.648 OA
HETATM   10  O           1     -19.690  -4.852 -10.625  0.00  0.00    -0.648 OA
ENDBRANCH   7   8
ENDBRANCH   6   7
ENDBRANCH   5   6
BRANCH   5  11
HETATM   11  C           1     -24.761  -3.842  -9.738  0.00  0.00     0.196 C 
HETATM   12  O           1     -25.161  -5.025  -9.684  0.00  0.00    -0.646 OA
HETATM   13  O           1     -25.586  -2.904  -9.778  0.00  0.00    -0.646 OA
ENDBRANCH   5  11
ENDBRANCH   3   5
BRANCH   4  14
HETATM   14  C           1     -21.183  -5.724  -7.401  0.00  0.00     0.275 C 
BRANCH  14  15
HETATM   15  C           1     -21.554  -5.892  -5.934  0.00  0.00     0.053 C 
BRANCH  15  16
HETATM   16  C           1     -21.142  -7.279  -5.461  0.00  0.00     0.076 C 
BRANCH  16  17
HETATM   17  S           1     -21.192  -7.341  -3.648  0.00  0.00    -0.173 SA
HETATM   18  C           1     -20.211  -8.857  -3.472  0.00  0.00     0.089 C 
ENDBRANCH  16  17
ENDBRANCH  15  16
ENDBRANCH  14  15
BRANCH  14  19
HETATM   19  N           1     -19.708  -5.477  -7.517  0.00  0.00    -0.066 N 
HETATM   20  H           1     -19.508  -4.975  -8.412  0.00  0.00     0.275 HD
HETATM   21  H           1     -19.199  -6.389  -7.510  0.00  0.00     0.275 HD
HETATM   22  H           1     -19.389  -4.893  -6.711  0.00  0.00     0.275 HD
ENDBRANCH  14  19
ENDBRANCH   4  14
TORSDOF 10
ENDMDL
MODEL 6
REMARK VINA RESULT:      -5.2      5.037      8.186
REMARK  10 active torsions:
REMARK  status: ('A' for Active; 'I' for Inactive)
REMARK    1  A    between atoms: C_2  and  C_14 
REMARK    2  A    between atoms: C_2  and  C_3 
REMARK    3  A    between atoms: C_3  and  C_13 
REMARK    4  A    between atoms: C_5  and  C_20 
REMARK    5  A    between atoms: C_5  and  C_6 
REMARK    6  A    between atoms: C_5  and  N_9 
REMARK    7  A    between atoms: C_6  and  C_7 
REMARK    8  A    between atoms: C_7  and  S_15 
REMARK    9  A    between atoms: N_11  and  C_13 
REMARK       I    between atoms: N_11  and  C_20 
REMARK   10  A    between atoms: C_13  and  C_19 
ROOT
HETATM    1  O           1     -19.880  -7.271  -6.099  0.00  0.00    -0.271 OA
HETATM    2  H           1     -22.672  -7.705  -4.736  0.00  0.00     0.163 HD
HETATM    3  N           1     -21.692  -7.860  -4.933  0.00  0.00    -0.345 N 
HETATM    4  C           1     -21.051  -7.087  -5.863  0.00  0.00     0.249 C 
ENDROOT
BRANCH   3   5
HETATM    5  C           1     -20.967  -8.899  -4.230  0.00  0.00     0.186 C 
BRANCH   5   6
HETATM    6  C           1     -21.358  -8.884  -2.759  0.00  0.00     0.046 C 
BRANCH   6   7
HETATM    7  C           1     -20.890  -7.583  -2.122  0.00  0.00     0.116 C 
BRANCH   7   8
HETATM    8  C           1     -22.086  -6.716  -1.812  0.00  0.00     0.172 C 
HETATM    9  O           1     -22.697  -6.856  -0.731  0.00  0.00    -0.648 OA
HETATM   10  O           1     -22.465  -5.856  -2.637  0.00  0.00    -0.648 OA
ENDBRANCH   7   8
ENDBRANCH   6   7
ENDBRANCH   5   6
BRANCH   5  11
HETATM   11  C           1     -21.307 -10.243  -4.828  0.00  0.00     0.196 C 
HETATM   12  O           1     -20.833 -10.572  -5.936  0.00  0.00    -0.646 OA
HETATM   13  O           1     -22.063 -11.027  -4.214  0.00  0.00    -0.646 OA
ENDBRANCH   5  11
ENDBRANCH   3   5
BRANCH   4  14
HETATM   14  C           1     -21.805  -6.005  -6.596  0.00  0.00     0.275 C 
BRANCH  14  15
HETATM   15  C           1     -20.838  -4.909  -7.022  0.00  0.00     0.053 C 
BRANCH  15  16
HETATM   16  C           1     -21.624  -3.707  -7.530  0.00  0.00     0.076 C 
BRANCH  16  17
HETATM   17  S           1     -22.090  -3.975  -9.263  0.00  0.00    -0.173 SA
HETATM   18  C           1     -20.401  -4.185  -9.893  0.00  0.00     0.089 C 
ENDBRANCH  16  17
ENDBRANCH  15  16
ENDBRANCH  14  15
BRANCH  14  19
HETATM   19  N           1     -22.850  -5.423  -5.689  0.00  0.00    -0.066 N 
HETATM   20  H           1     -22.906  -5.991  -4.814  0.00  0.00     0.275 HD
HETATM   21  H           1     -23.776  -5.435  -6.171  0.00  0.00     0.275 HD
HETATM   22  H           1     -22.593  -4.438  -5.450  0.00  0.00     0.275 HD
ENDBRANCH  14  19
ENDBRANCH   4  14
TORSDOF 10
ENDMDL
MODEL 7
REMARK VINA RESULT:      -5.1      4.227      7.920
REMARK  10 active torsions:
REMARK  status: ('A' for Active; 'I' for Inactive)
REMARK    1  A    between atoms: C_2  and  C_14 
REMARK    2  A    between atoms: C_2  and  C_3 
REMARK    3  A    between atoms: C_3  and  C_13 
REMARK    4  A    between atoms: C_5  and  C_20 
REMARK    5  A    between atoms: C_5  and  C_6 
REMARK    6  A    between atoms: C_5  and  N_9 
REMARK    7  A    between atoms: C_6  and  C_7 
REMARK    8  A    between atoms: C_7  and  S_15 
REMARK    9  A    between atoms: N_11  and  C_13 
REMARK       I    between atoms: N_11  and  C_20 
REMARK   10  A    between atoms: C_13  and  C_19 
ROOT
HETATM    1  O           1     -22.663  -5.902  -5.415  0.00  0.00    -0.271 OA
HETATM    2  H           1     -19.883  -6.946  -4.401  0.00  0.00     0.163 HD
HETATM    3  N           1     -20.890  -6.853  -4.444  0.00  0.00    -0.345 N 
HETATM    4  C           1     -21.460  -6.014  -5.363  0.00  0.00     0.249 C 
ENDROOT
BRANCH   3   5
HETATM    5  C           1     -21.728  -7.607  -3.532  0.00  0.00     0.186 C 
BRANCH   5   6
HETATM    6  C           1     -21.187  -9.024  -3.401  0.00  0.00     0.046 C 
BRANCH   6   7
HETATM    7  C           1     -21.205  -9.704  -4.763  0.00  0.00     0.116 C 
BRANCH   7   8
HETATM    8  C           1     -19.790  -9.897  -5.249  0.00  0.00     0.172 C 
HETATM    9  O           1     -19.237 -11.012  -5.136  0.00  0.00    -0.648 OA
HETATM   10  O           1     -19.171  -8.942  -5.765  0.00  0.00    -0.648 OA
ENDBRANCH   7   8
ENDBRANCH   6   7
ENDBRANCH   5   6
BRANCH   5  11
HETATM   11  C           1     -21.726  -6.939  -2.179  0.00  0.00     0.196 C 
HETATM   12  O           1     -22.312  -5.847  -2.020  0.00  0.00    -0.646 OA
HETATM   13  O           1     -21.140  -7.480  -1.216  0.00  0.00    -0.646 OA
ENDBRANCH   5  11
ENDBRANCH   3   5
BRANCH   4  14
HETATM   14  C           1     -20.589  -5.229  -6.312  0.00  0.00     0.275 C 
BRANCH  14  15
HETATM   15  C           1     -21.460  -4.327  -7.176  0.00  0.00     0.053 C 
BRANCH  15  16
HETATM   16  C           1     -21.223  -4.647  -8.645  0.00  0.00     0.076 C 
BRANCH  16  17
HETATM   17  S           1     -22.622  -4.042  -9.631  0.00  0.00    -0.173 SA
HETATM   18  C           1     -21.835  -4.262 -11.251  0.00  0.00     0.089 C 
ENDBRANCH  16  17
ENDBRANCH  15  16
ENDBRANCH  14  15
BRANCH  14  19
HETATM   19  N           1     -19.827  -6.177  -7.191  0.00  0.00    -0.066 N 
HETATM   20  H           1     -19.775  -5.788  -8.159  0.00  0.00     0.275 HD
HETATM   21  H           1     -20.315  -7.101  -7.213  0.00  0.00     0.275 HD
HETATM   22  H           1     -18.861  -6.301  -6.812  0.00  0.00     0.275 HD
ENDBRANCH  14  19
ENDBRANCH   4  14
TORSDOF 10
ENDMDL
MODEL 8
REMARK VINA RESULT:      -5.0      5.315      9.216
REMARK  10 active torsions:
REMARK  status: ('A' for Active; 'I' for Inactive)
REMARK    1  A    between atoms: C_2  and  C_14 
REMARK    2  A    between atoms: C_2  and  C_3 
REMARK    3  A    between atoms: C_3  and  C_13 
REMARK    4  A    between atoms: C_5  and  C_20 
REMARK    5  A    between atoms: C_5  and  C_6 
REMARK    6  A    between atoms: C_5  and  N_9 
REMARK    7  A    between atoms: C_6  and  C_7 
REMARK    8  A    between atoms: C_7  and  S_15 
REMARK    9  A    between atoms: N_11  and  C_13 
REMARK       I    between atoms: N_11  and  C_20 
REMARK   10  A    between atoms: C_13  and  C_19 
ROOT
HETATM    1  O           1     -19.661  -8.027  -5.520  0.00  0.00    -0.271 OA
HETATM    2  H           1     -21.873  -7.070  -3.511  0.00  0.00     0.163 HD
HETATM    3  N           1     -21.086  -7.607  -3.851  0.00  0.00    -0.345 N 
HETATM    4  C           1     -20.602  -7.386  -5.113  0.00  0.00     0.249 C 
ENDROOT
BRANCH   3   5
HETATM    5  C           1     -20.471  -8.609  -3.004  0.00  0.00     0.186 C 
BRANCH   5   6
HETATM    6  C           1     -20.399  -8.090  -1.575  0.00  0.00     0.046 C 
BRANCH   6   7
HETATM    7  C           1     -21.745  -7.495  -1.181  0.00  0.00     0.116 C 
BRANCH   7   8
HETATM    8  C           1     -22.140  -8.003   0.184  0.00  0.00     0.172 C 
HETATM    9  O           1     -21.261  -8.367   0.994  0.00  0.00    -0.648 OA
HETATM   10  O           1     -23.347  -8.059   0.504  0.00  0.00    -0.648 OA
ENDBRANCH   7   8
ENDBRANCH   6   7
ENDBRANCH   5   6
BRANCH   5  11
HETATM   11  C           1     -21.296  -9.873  -3.040  0.00  0.00     0.196 C 
HETATM   12  O           1     -22.242  -9.979  -3.849  0.00  0.00    -0.646 OA
HETATM   13  O           1     -21.031 -10.814  -2.261  0.00  0.00    -0.646 OA
ENDBRANCH   5  11
ENDBRANCH   3   5
BRANCH   4  14
HETATM   14  C           1     -21.241  -6.344  -5.996  0.00  0.00     0.275 C 
BRANCH  14  15
HETATM   15  C           1     -20.301  -5.155  -6.144  0.00  0.00     0.053 C 
BRANCH  15  16
HETATM   16  C           1     -21.006  -4.042  -6.907  0.00  0.00     0.076 C 
BRANCH  16  17
HETATM   17  S           1     -21.269  -4.559  -8.627  0.00  0.00    -0.173 SA
HETATM   18  C           1     -23.011  -4.060  -8.721  0.00  0.00     0.089 C 
ENDBRANCH  16  17
ENDBRANCH  15  16
ENDBRANCH  14  15
BRANCH  14  19
HETATM   19  N           1     -22.529  -5.887  -5.377  0.00  0.00    -0.066 N 
HETATM   20  H           1     -22.331  -5.426  -4.461  0.00  0.00     0.275 HD
HETATM   21  H           1     -23.154  -6.710  -5.224  0.00  0.00     0.275 HD
HETATM   22  H           1     -23.000  -5.206  -6.016  0.00  0.00     0.275 HD
ENDBRANCH  14  19
ENDBRANCH   4  14
TORSDOF 10
ENDMDL
MODEL 9
REMARK VINA RESULT:      -4.7      5.012      9.266
REMARK  10 active torsions:
REMARK  status: ('A' for Active; 'I' for Inactive)
REMARK    1  A    between atoms: C_2  and  C_14 
REMARK    2  A    between atoms: C_2  and  C_3 
REMARK    3  A    between atoms: C_3  and  C_13 
REMARK    4  A    between atoms: C_5  and  C_20 
REMARK    5  A    between atoms: C_5  and  C_6 
REMARK    6  A    between atoms: C_5  and  N_9 
REMARK    7  A    between atoms: C_6  and  C_7 
REMARK    8  A    between atoms: C_7  and  S_15 
REMARK    9  A    between atoms: N_11  and  C_13 
REMARK       I    between atoms: N_11  and  C_20 
REMARK   10  A    between atoms: C_13  and  C_19 
ROOT
HETATM    1  O           1     -21.620  -7.871  -5.325  0.00  0.00    -0.271 OA
HETATM    2  H           1     -20.394  -5.815  -3.298  0.00  0.00     0.163 HD
HETATM    3  N           1     -20.871  -6.650  -3.611  0.00  0.00    -0.345 N 
HETATM    4  C           1     -21.050  -6.873  -4.950  0.00  0.00     0.249 C 
ENDROOT
BRANCH   3   5
HETATM    5  C           1     -21.365  -7.609  -2.644  0.00  0.00     0.186 C 
BRANCH   5   6
HETATM    6  C           1     -20.192  -8.359  -2.029  0.00  0.00     0.046 C 
BRANCH   6   7
HETATM    7  C           1     -20.321  -9.845  -2.335  0.00  0.00     0.116 C 
BRANCH   7   8
HETATM    8  C           1     -20.332 -10.627  -1.044  0.00  0.00     0.172 C 
HETATM    9  O           1     -19.313 -11.254  -0.684  0.00  0.00    -0.648 OA
HETATM   10  O           1     -21.361 -10.646  -0.334  0.00  0.00    -0.648 OA
ENDBRANCH   7   8
ENDBRANCH   6   7
ENDBRANCH   5   6
BRANCH   5  11
HETATM   11  C           1     -22.124  -6.884  -1.559  0.00  0.00     0.196 C 
HETATM   12  O           1     -22.474  -5.697  -1.728  0.00  0.00    -0.646 OA
HETATM   13  O           1     -22.403  -7.472  -0.492  0.00  0.00    -0.646 OA
ENDBRANCH   5  11
ENDBRANCH   3   5
BRANCH   4  14
HETATM   14  C           1     -20.536  -5.875  -5.958  0.00  0.00     0.275 C 
BRANCH  14  15
HETATM   15  C           1     -21.708  -5.121  -6.571  0.00  0.00     0.053 C 
BRANCH  15  16
HETATM   16  C           1     -21.525  -5.038  -8.081  0.00  0.00     0.076 C 
BRANCH  16  17
HETATM   17  S           1     -22.886  -4.080  -8.805  0.00  0.00    -0.173 SA
HETATM   18  C           1     -22.466  -4.415 -10.538  0.00  0.00     0.089 C 
ENDBRANCH  16  17
ENDBRANCH  15  16
ENDBRANCH  14  15
BRANCH  14  19
HETATM   19  N           1     -19.787  -6.597  -7.039  0.00  0.00    -0.066 N 
HETATM   20  H           1     -19.529  -7.553  -6.704  0.00  0.00     0.275 HD
HETATM   21  H           1     -18.920  -6.066  -7.277  0.00  0.00     0.275 HD
HETATM   22  H           1     -20.392  -6.676  -7.888  0.00  0.00     0.275 HD
ENDBRANCH  14  19
ENDBRANCH   4  14
TORSDOF 10
ENDMDL
