MODEL 1
REMARK VINA RESULT:      -6.4      0.000      0.000
REMARK  9 active torsions:
REMARK  status: ('A' for Active; 'I' for Inactive)
REMARK    1  A    between atoms: N_6  and  C_20 
REMARK       I    between atoms: N_6  and  C_7 
REMARK    2  A    between atoms: C_7  and  C_24 
REMARK    3  A    between atoms: N_8  and  C_24 
REMARK    4  A    between atoms: C_11  and  C_24 
REMARK    5  A    between atoms: C_11  and  C_12 
REMARK    6  A    between atoms: C_12  and  C_13 
REMARK       I    between atoms: C_13  and  N_22 
REMARK    7  A    between atoms: C_19  and  C_20 
REMARK    8  A    between atoms: C_20  and  C_21 
REMARK    9  A    between atoms: C_21  and  C_23 
ROOT
HETATM    1  N           1     -21.862  -4.879  -8.766  0.00  0.00    -0.345 N 
HETATM    2  C           1     -23.180  -4.522  -8.681  0.00  0.00     0.249 C 
HETATM    3  O           1     -23.647  -4.179  -7.620  0.00  0.00    -0.271 OA
HETATM    4  H           1     -21.471  -5.166  -9.654  0.00  0.00     0.163 HD
ENDROOT
BRANCH   2   5
HETATM    5  C           1     -24.052  -4.554  -9.912  0.00  0.00     0.275 C 
BRANCH   5   6
HETATM    6  N           1     -25.272  -3.711  -9.682  0.00  0.00    -0.066 N 
HETATM    7  H           1     -25.903  -3.775 -10.513  0.00  0.00     0.275 HD
HETATM    8  H           1     -25.777  -4.054  -8.835  0.00  0.00     0.275 HD
HETATM    9  H           1     -24.985  -2.716  -9.538  0.00  0.00     0.275 HD
ENDBRANCH   5   6
BRANCH   5  10
HETATM   10  C           1     -23.274  -4.005 -11.101  0.00  0.00     0.052 C 
BRANCH  10  11
HETATM   11  C           1     -24.176  -3.092 -11.921  0.00  0.00     0.105 C 
BRANCH  11  12
HETATM   12  C           1     -23.513  -2.782 -13.241  0.00  0.00     0.215 C 
HETATM   13  N           1     -22.272  -3.287 -13.518  0.00  0.00    -0.370 N 
HETATM   14  H           1     -21.828  -3.079 -14.404  0.00  0.00     0.159 HD
HETATM   15  H           1     -21.798  -3.867 -12.838  0.00  0.00     0.159 HD
HETATM   16  O           1     -24.080  -2.089 -14.052  0.00  0.00    -0.274 OA
ENDBRANCH  11  12
ENDBRANCH  10  11
ENDBRANCH   5  10
ENDBRANCH   2   5
BRANCH   1  17
HETATM   17  C           1     -21.024  -4.847  -7.582  0.00  0.00     0.185 C 
BRANCH  17  18
HETATM   18  C           1     -19.696  -4.219  -7.923  0.00  0.00     0.196 C 
HETATM   19  O           1     -18.679  -4.507  -7.255  0.00  0.00    -0.646 OA
HETATM   20  O           1     -19.611  -3.413  -8.874  0.00  0.00    -0.646 OA
ENDBRANCH  17  18
BRANCH  17  21
HETATM   21  C           1     -20.802  -6.267  -7.080  0.00  0.00     0.040 C 
BRANCH  21  22
HETATM   22  C           1     -21.552  -6.466  -5.770  0.00  0.00    -0.020 C 
HETATM   23  C           1     -21.455  -7.925  -5.346  0.00  0.00     0.009 C 
HETATM   24  C           1     -20.936  -5.582  -4.693  0.00  0.00     0.009 C 
ENDBRANCH  21  22
ENDBRANCH  17  21
ENDBRANCH   1  17
TORSDOF 9
ENDMDL
MODEL 2
REMARK VINA RESULT:      -6.3      1.622      2.157
REMARK  9 active torsions:
REMARK  status: ('A' for Active; 'I' for Inactive)
REMARK    1  A    between atoms: N_6  and  C_20 
REMARK       I    between atoms: N_6  and  C_7 
REMARK    2  A    between atoms: C_7  and  C_24 
REMARK    3  A    between atoms: N_8  and  C_24 
REMARK    4  A    between atoms: C_11  and  C_24 
REMARK    5  A    between atoms: C_11  and  C_12 
REMARK    6  A    between atoms: C_12  and  C_13 
REMARK       I    between atoms: C_13  and  N_22 
REMARK    7  A    between atoms: C_19  and  C_20 
REMARK    8  A    between atoms: C_20  and  C_21 
REMARK    9  A    between atoms: C_21  and  C_23 
ROOT
HETATM    1  N           1     -22.280  -5.419  -7.063  0.00  0.00    -0.345 N 
HETATM    2  C           1     -22.386  -4.253  -7.771  0.00  0.00     0.249 C 
HETATM    3  O           1     -21.791  -3.266  -7.403  0.00  0.00    -0.271 OA
HETATM    4  H           1     -22.777  -6.245  -7.371  0.00  0.00     0.163 HD
ENDROOT
BRANCH   2   5
HETATM    5  C           1     -23.243  -4.197  -9.011  0.00  0.00     0.275 C 
BRANCH   5   6
HETATM    6  N           1     -24.459  -3.361  -8.738  0.00  0.00    -0.066 N 
HETATM    7  H           1     -24.418  -2.488  -9.312  0.00  0.00     0.275 HD
HETATM    8  H           1     -25.317  -3.902  -8.991  0.00  0.00     0.275 HD
HETATM    9  H           1     -24.490  -3.111  -7.724  0.00  0.00     0.275 HD
ENDBRANCH   5   6
BRANCH   5  10
HETATM   10  C           1     -22.448  -3.577 -10.152  0.00  0.00     0.052 C 
BRANCH  10  11
HETATM   11  C           1     -22.976  -4.099 -11.482  0.00  0.00     0.105 C 
BRANCH  11  12
HETATM   12  C           1     -23.936  -3.095 -12.071  0.00  0.00     0.215 C 
HETATM   13  N           1     -23.496  -2.190 -12.999  0.00  0.00    -0.370 N 
HETATM   14  H           1     -24.140  -1.517 -13.395  0.00  0.00     0.159 HD
HETATM   15  H           1     -22.526  -2.193 -13.289  0.00  0.00     0.159 HD
HETATM   16  O           1     -25.093  -3.092 -11.725  0.00  0.00    -0.274 OA
ENDBRANCH  11  12
ENDBRANCH  10  11
ENDBRANCH   5  10
ENDBRANCH   2   5
BRANCH   1  17
HETATM   17  C           1     -21.454  -5.472  -5.872  0.00  0.00     0.185 C 
BRANCH  17  18
HETATM   18  C           1     -20.013  -5.676  -6.267  0.00  0.00     0.196 C 
HETATM   19  O           1     -19.179  -4.764  -6.079  0.00  0.00    -0.646 OA
HETATM   20  O           1     -19.653  -6.757  -6.781  0.00  0.00    -0.646 OA
ENDBRANCH  17  18
BRANCH  17  21
HETATM   21  C           1     -21.909  -6.630  -4.992  0.00  0.00     0.040 C 
BRANCH  21  22
HETATM   22  C           1     -21.071  -6.660  -3.721  0.00  0.00    -0.020 C 
HETATM   23  C           1     -21.922  -6.208  -2.541  0.00  0.00     0.009 C 
HETATM   24  C           1     -20.576  -8.079  -3.474  0.00  0.00     0.009 C 
ENDBRANCH  21  22
ENDBRANCH  17  21
ENDBRANCH   1  17
TORSDOF 9
ENDMDL
MODEL 3
REMARK VINA RESULT:      -6.0      2.662      4.227
REMARK  9 active torsions:
REMARK  status: ('A' for Active; 'I' for Inactive)
REMARK    1  A    between atoms: N_6  and  C_20 
REMARK       I    between atoms: N_6  and  C_7 
REMARK    2  A    between atoms: C_7  and  C_24 
REMARK    3  A    between atoms: N_8  and  C_24 
REMARK    4  A    between atoms: C_11  and  C_24 
REMARK    5  A    between atoms: C_11  and  C_12 
REMARK    6  A    between atoms: C_12  and  C_13 
REMARK       I    between atoms: C_13  and  N_22 
REMARK    7  A    between atoms: C_19  and  C_20 
REMARK    8  A    between atoms: C_20  and  C_21 
REMARK    9  A    between atoms: C_21  and  C_23 
ROOT
HETATM    1  N           1     -20.917  -6.200  -6.098  0.00  0.00    -0.345 N 
HETATM    2  C           1     -20.580  -4.874  -6.085  0.00  0.00     0.249 C 
HETATM    3  O           1     -19.959  -4.417  -5.154  0.00  0.00    -0.271 OA
HETATM    4  H           1     -21.436  -6.583  -6.878  0.00  0.00     0.163 HD
ENDROOT
BRANCH   2   5
HETATM    5  C           1     -20.983  -3.981  -7.233  0.00  0.00     0.275 C 
BRANCH   5   6
HETATM    6  N           1     -19.867  -3.921  -8.233  0.00  0.00    -0.066 N 
HETATM    7  H           1     -19.750  -2.937  -8.567  0.00  0.00     0.275 HD
HETATM    8  H           1     -18.980  -4.243  -7.785  0.00  0.00     0.275 HD
HETATM    9  H           1     -20.092  -4.540  -9.045  0.00  0.00     0.275 HD
ENDBRANCH   5   6
BRANCH   5  10
HETATM   10  C           1     -22.232  -4.543  -7.901  0.00  0.00     0.052 C 
BRANCH  10  11
HETATM   11  C           1     -22.191  -4.239  -9.392  0.00  0.00     0.105 C 
BRANCH  11  12
HETATM   12  C           1     -23.487  -3.588  -9.810  0.00  0.00     0.215 C 
HETATM   13  N           1     -24.507  -3.455  -8.908  0.00  0.00    -0.370 N 
HETATM   14  H           1     -25.377  -3.019  -9.188  0.00  0.00     0.159 HD
HETATM   15  H           1     -24.393  -3.795  -7.961  0.00  0.00     0.159 HD
HETATM   16  O           1     -23.623  -3.184 -10.940  0.00  0.00    -0.274 OA
ENDBRANCH  11  12
ENDBRANCH  10  11
ENDBRANCH   5  10
ENDBRANCH   2   5
BRANCH   1  17
HETATM   17  C           1     -20.528  -7.058  -4.995  0.00  0.00     0.185 C 
BRANCH  17  18
HETATM   18  C           1     -20.215  -8.438  -5.517  0.00  0.00     0.196 C 
HETATM   19  O           1     -21.144  -9.242  -5.755  0.00  0.00    -0.646 OA
HETATM   20  O           1     -19.029  -8.778  -5.713  0.00  0.00    -0.646 OA
ENDBRANCH  17  18
BRANCH  17  21
HETATM   21  C           1     -21.670  -7.141  -3.991  0.00  0.00     0.040 C 
BRANCH  21  22
HETATM   22  C           1     -21.151  -6.797  -2.602  0.00  0.00    -0.020 C 
HETATM   23  C           1     -22.284  -6.218  -1.765  0.00  0.00     0.009 C 
HETATM   24  C           1     -20.619  -8.058  -1.933  0.00  0.00     0.009 C 
ENDBRANCH  21  22
ENDBRANCH  17  21
ENDBRANCH   1  17
TORSDOF 9
ENDMDL
MODEL 4
REMARK VINA RESULT:      -5.9      3.201      5.151
REMARK  9 active torsions:
REMARK  status: ('A' for Active; 'I' for Inactive)
REMARK    1  A    between atoms: N_6  and  C_20 
REMARK       I    between atoms: N_6  and  C_7 
REMARK    2  A    between atoms: C_7  and  C_24 
REMARK    3  A    between atoms: N_8  and  C_24 
REMARK    4  A    between atoms: C_11  and  C_24 
REMARK    5  A    between atoms: C_11  and  C_12 
REMARK    6  A    between atoms: C_12  and  C_13 
REMARK       I    between atoms: C_13  and  N_22 
REMARK    7  A    between atoms: C_19  and  C_20 
REMARK    8  A    between atoms: C_20  and  C_21 
REMARK    9  A    between atoms: C_21  and  C_23 
ROOT
HETATM    1  N           1     -20.801  -6.727  -4.503  0.00  0.00    -0.345 N 
HETATM    2  C           1     -21.337  -5.889  -5.443  0.00  0.00     0.249 C 
HETATM    3  O           1     -22.537  -5.793  -5.553  0.00  0.00    -0.271 OA
HETATM    4  H           1     -19.796  -6.807  -4.410  0.00  0.00     0.163 HD
ENDROOT
BRANCH   2   5
HETATM    5  C           1     -20.431  -5.084  -6.342  0.00  0.00     0.275 C 
BRANCH   5   6
HETATM    6  N           1     -19.909  -5.964  -7.439  0.00  0.00    -0.066 N 
HETATM    7  H           1     -19.131  -5.475  -7.938  0.00  0.00     0.275 HD
HETATM    8  H           1     -19.553  -6.856  -7.030  0.00  0.00     0.275 HD
HETATM    9  H           1     -20.679  -6.172  -8.115  0.00  0.00     0.275 HD
ENDBRANCH   5   6
BRANCH   5  10
HETATM   10  C           1     -21.214  -3.927  -6.949  0.00  0.00     0.052 C 
BRANCH  10  11
HETATM   11  C           1     -21.340  -4.132  -8.453  0.00  0.00     0.105 C 
BRANCH  11  12
HETATM   12  C           1     -22.799  -4.194  -8.832  0.00  0.00     0.215 C 
HETATM   13  N           1     -23.762  -4.095  -7.866  0.00  0.00    -0.370 N 
HETATM   14  H           1     -24.741  -4.136  -8.120  0.00  0.00     0.159 HD
HETATM   15  H           1     -23.496  -3.981  -6.895  0.00  0.00     0.159 HD
HETATM   16  O           1     -23.116  -4.330  -9.990  0.00  0.00    -0.274 OA
ENDBRANCH  11  12
ENDBRANCH  10  11
ENDBRANCH   5  10
ENDBRANCH   2   5
BRANCH   1  17
HETATM   17  C           1     -21.672  -7.499  -3.638  0.00  0.00     0.185 C 
BRANCH  17  18
HETATM   18  C           1     -21.719  -6.861  -2.272  0.00  0.00     0.196 C 
HETATM   19  O           1     -21.301  -7.489  -1.274  0.00  0.00    -0.646 OA
HETATM   20  O           1     -22.174  -5.705  -2.137  0.00  0.00    -0.646 OA
ENDBRANCH  17  18
BRANCH  17  21
HETATM   21  C           1     -21.137  -8.919  -3.518  0.00  0.00     0.040 C 
BRANCH  21  22
HETATM   22  C           1     -19.715  -8.974  -4.060  0.00  0.00    -0.020 C 
HETATM   23  C           1     -18.752  -9.301  -2.926  0.00  0.00     0.009 C 
HETATM   24  C           1     -19.622 -10.052  -5.132  0.00  0.00     0.009 C 
ENDBRANCH  21  22
ENDBRANCH  17  21
ENDBRANCH   1  17
TORSDOF 9
ENDMDL
MODEL 5
REMARK VINA RESULT:      -5.7     18.363     20.111
REMARK  9 active torsions:
REMARK  status: ('A' for Active; 'I' for Inactive)
REMARK    1  A    between atoms: N_6  and  C_20 
REMARK       I    between atoms: N_6  and  C_7 
REMARK    2  A    between atoms: C_7  and  C_24 
REMARK    3  A    between atoms: N_8  and  C_24 
REMARK    4  A    between atoms: C_11  and  C_24 
REMARK    5  A    between atoms: C_11  and  C_12 
REMARK    6  A    between atoms: C_12  and  C_13 
REMARK       I    between atoms: C_13  and  N_22 
REMARK    7  A    between atoms: C_19  and  C_20 
REMARK    8  A    between atoms: C_20  and  C_21 
REMARK    9  A    between atoms: C_21  and  C_23 
ROOT
HETATM    1  N           1     -12.369   7.558 -19.810  0.00  0.00    -0.345 N 
HETATM    2  C           1     -12.375   6.737 -20.905  0.00  0.00     0.249 C 
HETATM    3  O           1     -12.091   7.179 -21.994  0.00  0.00    -0.271 OA
HETATM    4  H           1     -12.607   7.189 -18.899  0.00  0.00     0.163 HD
ENDROOT
BRANCH   2   5
HETATM    5  C           1     -12.735   5.280 -20.754  0.00  0.00     0.275 C 
BRANCH   5   6
HETATM    6  N           1     -12.396   4.549 -22.019  0.00  0.00    -0.066 N 
HETATM    7  H           1     -13.080   3.773 -22.168  0.00  0.00     0.275 HD
HETATM    8  H           1     -12.439   5.210 -22.826  0.00  0.00     0.275 HD
HETATM    9  H           1     -11.431   4.152 -21.944  0.00  0.00     0.275 HD
ENDBRANCH   5   6
BRANCH   5  10
HETATM   10  C           1     -11.951   4.679 -19.595  0.00  0.00     0.052 C 
BRANCH  10  11
HETATM   11  C           1     -10.520   4.404 -20.038  0.00  0.00     0.105 C 
BRANCH  11  12
HETATM   12  C           1      -9.604   5.459 -19.467  0.00  0.00     0.215 C 
HETATM   13  N           1      -9.534   5.644 -18.113  0.00  0.00    -0.370 N 
HETATM   14  H           1      -8.920   6.351 -17.729  0.00  0.00     0.159 HD
HETATM   15  H           1     -10.097   5.074 -17.494  0.00  0.00     0.159 HD
HETATM   16  O           1      -8.932   6.139 -20.205  0.00  0.00    -0.274 OA
ENDBRANCH  11  12
ENDBRANCH  10  11
ENDBRANCH   5  10
ENDBRANCH   2   5
BRANCH   1  17
HETATM   17  C           1     -12.021   8.959 -19.956  0.00  0.00     0.185 C 
BRANCH  17  18
HETATM   18  C           1     -10.593   9.171 -19.520  0.00  0.00     0.196 C 
HETATM   19  O           1     -10.224   8.794 -18.386  0.00  0.00    -0.646 OA
HETATM   20  O           1      -9.779   9.722 -20.292  0.00  0.00    -0.646 OA
ENDBRANCH  17  18
BRANCH  17  21
HETATM   21  C           1     -12.948   9.803 -19.092  0.00  0.00     0.040 C 
BRANCH  21  22
HETATM   22  C           1     -13.385  11.037 -19.870  0.00  0.00    -0.020 C 
HETATM   23  C           1     -13.535  10.680 -21.343  0.00  0.00     0.009 C 
HETATM   24  C           1     -14.720  11.532 -19.329  0.00  0.00     0.009 C 
ENDBRANCH  21  22
ENDBRANCH  17  21
ENDBRANCH   1  17
TORSDOF 9
ENDMDL
MODEL 6
REMARK VINA RESULT:      -5.6      5.796      8.499
REMARK  9 active torsions:
REMARK  status: ('A' for Active; 'I' for Inactive)
REMARK    1  A    between atoms: N_6  and  C_20 
REMARK       I    between atoms: N_6  and  C_7 
REMARK    2  A    between atoms: C_7  and  C_24 
REMARK    3  A    between atoms: N_8  and  C_24 
REMARK    4  A    between atoms: C_11  and  C_24 
REMARK    5  A    between atoms: C_11  and  C_12 
REMARK    6  A    between atoms: C_12  and  C_13 
REMARK       I    between atoms: C_13  and  N_22 
REMARK    7  A    between atoms: C_19  and  C_20 
REMARK    8  A    between atoms: C_20  and  C_21 
REMARK    9  A    between atoms: C_21  and  C_23 
ROOT
HETATM    1  N           1     -21.266  -9.057  -2.059  0.00  0.00    -0.345 N 
HETATM    2  C           1     -21.456  -9.650  -3.278  0.00  0.00     0.249 C 
HETATM    3  O           1     -22.446 -10.313  -3.480  0.00  0.00    -0.271 OA
HETATM    4  H           1     -20.438  -8.502  -1.889  0.00  0.00     0.163 HD
ENDROOT
BRANCH   2   5
HETATM    5  C           1     -20.429  -9.477  -4.369  0.00  0.00     0.275 C 
BRANCH   5   6
HETATM    6  N           1     -20.907 -10.159  -5.617  0.00  0.00    -0.066 N 
HETATM    7  H           1     -20.948 -11.192  -5.456  0.00  0.00     0.275 HD
HETATM    8  H           1     -21.860  -9.808  -5.862  0.00  0.00     0.275 HD
HETATM    9  H           1     -20.247  -9.955  -6.401  0.00  0.00     0.275 HD
ENDBRANCH   5   6
BRANCH   5  10
HETATM   10  C           1     -20.228  -7.993  -4.648  0.00  0.00     0.052 C 
BRANCH  10  11
HETATM   11  C           1     -21.314  -7.503  -5.597  0.00  0.00     0.105 C 
BRANCH  11  12
HETATM   12  C           1     -22.055  -6.352  -4.962  0.00  0.00     0.215 C 
HETATM   13  N           1     -21.852  -6.052  -3.642  0.00  0.00    -0.370 N 
HETATM   14  H           1     -22.349  -5.280  -3.216  0.00  0.00     0.159 HD
HETATM   15  H           1     -21.206  -6.603  -3.091  0.00  0.00     0.159 HD
HETATM   16  O           1     -22.826  -5.695  -5.619  0.00  0.00    -0.274 OA
ENDBRANCH  11  12
ENDBRANCH  10  11
ENDBRANCH   5  10
ENDBRANCH   2   5
BRANCH   1  17
HETATM   17  C           1     -22.255  -9.223  -1.010  0.00  0.00     0.185 C 
BRANCH  17  18
HETATM   18  C           1     -22.414  -7.925  -0.259  0.00  0.00     0.196 C 
HETATM   19  O           1     -22.271  -7.900   0.983  0.00  0.00    -0.646 OA
HETATM   20  O           1     -22.688  -6.875  -0.878  0.00  0.00    -0.646 OA
ENDBRANCH  17  18
BRANCH  17  21
HETATM   21  C           1     -21.797 -10.313  -0.051  0.00  0.00     0.040 C 
BRANCH  21  22
HETATM   22  C           1     -22.670 -11.548  -0.230  0.00  0.00    -0.020 C 
HETATM   23  C           1     -22.354 -12.556   0.866  0.00  0.00     0.009 C 
HETATM   24  C           1     -24.137 -11.147  -0.144  0.00  0.00     0.009 C 
ENDBRANCH  21  22
ENDBRANCH  17  21
ENDBRANCH   1  17
TORSDOF 9
ENDMDL
MODEL 7
REMARK VINA RESULT:      -5.4      7.234      8.946
REMARK  9 active torsions:
REMARK  status: ('A' for Active; 'I' for Inactive)
REMARK    1  A    between atoms: N_6  and  C_20 
REMARK       I    between atoms: N_6  and  C_7 
REMARK    2  A    between atoms: C_7  and  C_24 
REMARK    3  A    between atoms: N_8  and  C_24 
REMARK    4  A    between atoms: C_11  and  C_24 
REMARK    5  A    between atoms: C_11  and  C_12 
REMARK    6  A    between atoms: C_12  and  C_13 
REMARK       I    between atoms: C_13  and  N_22 
REMARK    7  A    between atoms: C_19  and  C_20 
REMARK    8  A    between atoms: C_20  and  C_21 
REMARK    9  A    between atoms: C_21  and  C_23 
ROOT
HETATM    1  N           1     -20.761  -8.543  -3.188  0.00  0.00    -0.345 N 
HETATM    2  C           1     -21.146  -9.645  -3.901  0.00  0.00     0.249 C 
HETATM    3  O           1     -22.253 -10.107  -3.751  0.00  0.00    -0.271 OA
HETATM    4  H           1     -19.835  -8.156  -3.314  0.00  0.00     0.163 HD
ENDROOT
BRANCH   2   5
HETATM    5  C           1     -20.189 -10.285  -4.877  0.00  0.00     0.275 C 
BRANCH   5   6
HETATM    6  N           1     -20.886 -10.503  -6.188  0.00  0.00    -0.066 N 
HETATM    7  H           1     -21.920 -10.514  -6.036  0.00  0.00     0.275 HD
HETATM    8  H           1     -20.639  -9.731  -6.846  0.00  0.00     0.275 HD
HETATM    9  H           1     -20.584 -11.418  -6.594  0.00  0.00     0.275 HD
ENDBRANCH   5   6
BRANCH   5  10
HETATM   10  C           1     -18.989  -9.372  -5.087  0.00  0.00     0.052 C 
BRANCH  10  11
HETATM   11  C           1     -17.715 -10.107  -4.692  0.00  0.00     0.105 C 
BRANCH  11  12
HETATM   12  C           1     -17.206  -9.564  -3.379  0.00  0.00     0.215 C 
HETATM   13  N           1     -15.860  -9.518  -3.134  0.00  0.00    -0.370 N 
HETATM   14  H           1     -15.518  -9.154  -2.253  0.00  0.00     0.159 HD
HETATM   15  H           1     -15.207  -9.850  -3.832  0.00  0.00     0.159 HD
HETATM   16  O           1     -17.986  -9.169  -2.546  0.00  0.00    -0.274 OA
ENDBRANCH  11  12
ENDBRANCH  10  11
ENDBRANCH   5  10
ENDBRANCH   2   5
BRANCH   1  17
HETATM   17  C           1     -21.682  -7.927  -2.251  0.00  0.00     0.185 C 
BRANCH  17  18
HETATM   18  C           1     -22.016  -6.532  -2.717  0.00  0.00     0.196 C 
HETATM   19  O           1     -22.109  -5.601  -1.887  0.00  0.00    -0.646 OA
HETATM   20  O           1     -22.198  -6.306  -3.933  0.00  0.00    -0.646 OA
ENDBRANCH  17  18
BRANCH  17  21
HETATM   21  C           1     -21.035  -7.862  -0.874  0.00  0.00     0.040 C 
BRANCH  21  22
HETATM   22  C           1     -21.808  -8.749   0.092  0.00  0.00    -0.020 C 
HETATM   23  C           1     -21.004  -8.925   1.374  0.00  0.00     0.009 C 
HETATM   24  C           1     -23.147  -8.099   0.417  0.00  0.00     0.009 C 
ENDBRANCH  21  22
ENDBRANCH  17  21
ENDBRANCH   1  17
TORSDOF 9
ENDMDL
MODEL 8
REMARK VINA RESULT:      -5.4      5.258      7.934
REMARK  9 active torsions:
REMARK  status: ('A' for Active; 'I' for Inactive)
REMARK    1  A    between atoms: N_6  and  C_20 
REMARK       I    between atoms: N_6  and  C_7 
REMARK    2  A    between atoms: C_7  and  C_24 
REMARK    3  A    between atoms: N_8  and  C_24 
REMARK    4  A    between atoms: C_11  and  C_24 
REMARK    5  A    between atoms: C_11  and  C_12 
REMARK    6  A    between atoms: C_12  and  C_13 
REMARK       I    between atoms: C_13  and  N_22 
REMARK    7  A    between atoms: C_19  and  C_20 
REMARK    8  A    between atoms: C_20  and  C_21 
REMARK    9  A    between atoms: C_21  and  C_23 
ROOT
HETATM    1  N           1     -20.988  -9.380  -2.710  0.00  0.00    -0.345 N 
HETATM    2  C           1     -20.029  -9.074  -3.637  0.00  0.00     0.249 C 
HETATM    3  O           1     -18.865  -9.036  -3.313  0.00  0.00    -0.271 OA
HETATM    4  H           1     -21.962  -9.413  -2.981  0.00  0.00     0.163 HD
ENDROOT
BRANCH   2   5
HETATM    5  C           1     -20.423  -8.784  -5.064  0.00  0.00     0.275 C 
BRANCH   5   6
HETATM    6  N           1     -20.869 -10.054  -5.726  0.00  0.00    -0.066 N 
HETATM    7  H           1     -20.216 -10.829  -5.470  0.00  0.00     0.275 HD
HETATM    8  H           1     -21.834 -10.293  -5.406  0.00  0.00     0.275 HD
HETATM    9  H           1     -20.868  -9.925  -6.764  0.00  0.00     0.275 HD
ENDBRANCH   5   6
BRANCH   5  10
HETATM   10  C           1     -21.564  -7.775  -5.082  0.00  0.00     0.052 C 
BRANCH  10  11
HETATM   11  C           1     -20.994  -6.363  -5.097  0.00  0.00     0.105 C 
BRANCH  11  12
HETATM   12  C           1     -21.165  -5.766  -6.473  0.00  0.00     0.215 C 
HETATM   13  N           1     -20.262  -6.054  -7.460  0.00  0.00    -0.370 N 
HETATM   14  H           1     -20.376  -5.653  -8.383  0.00  0.00     0.159 HD
HETATM   15  H           1     -19.479  -6.667  -7.268  0.00  0.00     0.159 HD
HETATM   16  O           1     -22.098  -5.034  -6.702  0.00  0.00    -0.274 OA
ENDBRANCH  11  12
ENDBRANCH  10  11
ENDBRANCH   5  10
ENDBRANCH   2   5
BRANCH   1  17
HETATM   17  C           1     -20.607  -9.661  -1.339  0.00  0.00     0.185 C 
BRANCH  17  18
HETATM   18  C           1     -21.387 -10.849  -0.833  0.00  0.00     0.196 C 
HETATM   19  O           1     -22.149 -11.471  -1.606  0.00  0.00    -0.646 OA
HETATM   20  O           1     -21.271 -11.212   0.357  0.00  0.00    -0.646 OA
ENDBRANCH  17  18
BRANCH  17  21
HETATM   21  C           1     -20.911  -8.447  -0.471  0.00  0.00     0.040 C 
BRANCH  21  22
HETATM   22  C           1     -22.323  -7.956  -0.760  0.00  0.00    -0.020 C 
HETATM   23  C           1     -23.142  -7.985   0.524  0.00  0.00     0.009 C 
HETATM   24  C           1     -22.265  -6.531  -1.294  0.00  0.00     0.009 C 
ENDBRANCH  21  22
ENDBRANCH  17  21
ENDBRANCH   1  17
TORSDOF 9
ENDMDL
MODEL 9
REMARK VINA RESULT:      -5.3      5.058      7.527
REMARK  9 active torsions:
REMARK  status: ('A' for Active; 'I' for Inactive)
REMARK    1  A    between atoms: N_6  and  C_20 
REMARK       I    between atoms: N_6  and  C_7 
REMARK    2  A    between atoms: C_7  and  C_24 
REMARK    3  A    between atoms: N_8  and  C_24 
REMARK    4  A    between atoms: C_11  and  C_24 
REMARK    5  A    between atoms: C_11  and  C_12 
REMARK    6  A    between atoms: C_12  and  C_13 
REMARK       I    between atoms: C_13  and  N_22 
REMARK    7  A    between atoms: C_19  and  C_20 
REMARK    8  A    between atoms: C_20  and  C_21 
REMARK    9  A    between atoms: C_21  and  C_23 
ROOT
HETATM    1  N           1     -20.676  -9.126  -3.086  0.00  0.00    -0.345 N 
HETATM    2  C           1     -20.781  -7.777  -3.288  0.00  0.00     0.249 C 
HETATM    3  O           1     -21.033  -7.044  -2.360  0.00  0.00    -0.271 OA
HETATM    4  H           1     -20.465  -9.740  -3.863  0.00  0.00     0.163 HD
ENDROOT
BRANCH   2   5
HETATM    5  C           1     -20.581  -7.202  -4.669  0.00  0.00     0.275 C 
BRANCH   5   6
HETATM    6  N           1     -21.193  -8.121  -5.684  0.00  0.00    -0.066 N 
HETATM    7  H           1     -21.921  -7.604  -6.229  0.00  0.00     0.275 HD
HETATM    8  H           1     -20.452  -8.465  -6.334  0.00  0.00     0.275 HD
HETATM    9  H           1     -21.635  -8.934  -5.197  0.00  0.00     0.275 HD
ENDBRANCH   5   6
BRANCH   5  10
HETATM   10  C           1     -21.249  -5.836  -4.753  0.00  0.00     0.052 C 
BRANCH  10  11
HETATM   11  C           1     -20.415  -4.917  -5.636  0.00  0.00     0.105 C 
BRANCH  11  12
HETATM   12  C           1     -21.137  -4.680  -6.940  0.00  0.00     0.215 C 
HETATM   13  N           1     -21.624  -3.437  -7.237  0.00  0.00    -0.370 N 
HETATM   14  H           1     -22.108  -3.278  -8.112  0.00  0.00     0.159 HD
HETATM   15  H           1     -21.502  -2.675  -6.581  0.00  0.00     0.159 HD
HETATM   16  O           1     -21.282  -5.589  -7.723  0.00  0.00    -0.274 OA
ENDBRANCH  11  12
ENDBRANCH  10  11
ENDBRANCH   5  10
ENDBRANCH   2   5
BRANCH   1  17
HETATM   17  C           1     -20.868  -9.678  -1.758  0.00  0.00     0.185 C 
BRANCH  17  18
HETATM   18  C           1     -19.835 -10.747  -1.504  0.00  0.00     0.196 C 
HETATM   19  O           1     -19.156 -11.198  -2.452  0.00  0.00    -0.646 OA
HETATM   20  O           1     -19.657 -11.181  -0.346  0.00  0.00    -0.646 OA
ENDBRANCH  17  18
BRANCH  17  21
HETATM   21  C           1     -22.262 -10.283  -1.657  0.00  0.00     0.040 C 
BRANCH  21  22
HETATM   22  C           1     -22.765 -10.162  -0.225  0.00  0.00    -0.020 C 
HETATM   23  C           1     -22.933  -8.691   0.131  0.00  0.00     0.009 C 
HETATM   24  C           1     -24.107 -10.872  -0.098  0.00  0.00     0.009 C 
ENDBRANCH  21  22
ENDBRANCH  17  21
ENDBRANCH   1  17
TORSDOF 9
ENDMDL
