MODEL 1
REMARK VINA RESULT:      -7.9      0.000      0.000
REMARK  6 active torsions:
REMARK  status: ('A' for Active; 'I' for Inactive)
REMARK    1  A    between atoms: C_2  and  C_3 
REMARK    2  A    between atoms: C_3  and  C_4 
REMARK    3  A    between atoms: C_4  and  C_18 
REMARK    4  A    between atoms: C_4  and  N_12 
REMARK       I    between atoms: N_12  and  C_13 
REMARK    5  A    between atoms: C_13  and  C_14 
REMARK    6  A    between atoms: C_14  and  N_16 
ROOT
HETATM    1  C           1     -35.482  -1.432 -12.431  0.00  0.00     0.189 C 
ENDROOT
BRANCH   1   2
HETATM    2  C           1     -34.363  -1.662 -11.422  0.00  0.00     0.074 C 
BRANCH   2   3
HETATM    3  C           1     -34.081  -3.127 -11.314  0.00  0.00    -0.056 A 
HETATM    4  C           1     -35.038  -3.984 -10.769  0.00  0.00     0.007 A 
HETATM    5  C           1     -34.775  -5.349 -10.667  0.00  0.00     0.001 A 
HETATM    6  C           1     -33.555  -5.859 -11.111  0.00  0.00     0.000 A 
HETATM    7  C           1     -32.598  -5.004 -11.656  0.00  0.00     0.001 A 
HETATM    8  C           1     -32.861  -3.638 -11.757  0.00  0.00     0.007 A 
ENDBRANCH   2   3
ENDBRANCH   1   2
BRANCH   1   9
HETATM    9  C           1     -36.454  -0.416 -11.882  0.00  0.00     0.197 C 
HETATM   10  O           1     -37.662  -0.473 -12.198  0.00  0.00    -0.646 OA
HETATM   11  O           1     -36.051   0.482 -11.111  0.00  0.00    -0.646 OA
ENDBRANCH   1   9
BRANCH   1  12
HETATM   12  N           1     -34.918  -0.940 -13.673  0.00  0.00    -0.344 N 
HETATM   13  H           1     -34.070  -1.352 -14.042  0.00  0.00     0.163 HD
HETATM   14  C           1     -35.533   0.079 -14.347  0.00  0.00     0.248 C 
HETATM   15  O           1     -35.235   1.226 -14.111  0.00  0.00    -0.271 OA
BRANCH  14  16
HETATM   16  C           1     -36.583  -0.227 -15.386  0.00  0.00     0.270 C 
HETATM   17  C           1     -35.934  -0.915 -16.579  0.00  0.00     0.050 C 
BRANCH  16  18
HETATM   18  N           1     -37.227   1.052 -15.837  0.00  0.00    -0.067 N 
HETATM   19  H           1     -37.862   1.405 -15.085  0.00  0.00     0.275 HD
HETATM   20  H           1     -37.779   0.876 -16.706  0.00  0.00     0.275 HD
HETATM   21  H           1     -36.487   1.764 -16.032  0.00  0.00     0.275 HD
ENDBRANCH  16  18
ENDBRANCH  14  16
ENDBRANCH   1  12
TORSDOF 6
ENDMDL
MODEL 2
REMARK VINA RESULT:      -7.8      1.549      2.131
REMARK  6 active torsions:
REMARK  status: ('A' for Active; 'I' for Inactive)
REMARK    1  A    between atoms: C_2  and  C_3 
REMARK    2  A    between atoms: C_3  and  C_4 
REMARK    3  A    between atoms: C_4  and  C_18 
REMARK    4  A    between atoms: C_4  and  N_12 
REMARK       I    between atoms: N_12  and  C_13 
REMARK    5  A    between atoms: C_13  and  C_14 
REMARK    6  A    between atoms: C_14  and  N_16 
ROOT
HETATM    1  C           1     -36.268  -0.993 -11.252  0.00  0.00     0.189 C 
ENDROOT
BRANCH   1   2
HETATM    2  C           1     -34.759  -1.192 -11.205  0.00  0.00     0.074 C 
BRANCH   2   3
HETATM    3  C           1     -34.448  -2.656 -11.203  0.00  0.00    -0.056 A 
HETATM    4  C           1     -33.160  -3.097 -11.505  0.00  0.00     0.007 A 
HETATM    5  C           1     -32.871  -4.461 -11.505  0.00  0.00     0.001 A 
HETATM    6  C           1     -33.870  -5.385 -11.201  0.00  0.00     0.000 A 
HETATM    7  C           1     -35.159  -4.946 -10.900  0.00  0.00     0.001 A 
HETATM    8  C           1     -35.448  -3.581 -10.901  0.00  0.00     0.007 A 
ENDBRANCH   2   3
ENDBRANCH   1   2
BRANCH   1   9
HETATM    9  C           1     -36.754  -0.510  -9.907  0.00  0.00     0.197 C 
HETATM   10  O           1     -37.971  -0.286  -9.727  0.00  0.00    -0.646 OA
HETATM   11  O           1     -35.941  -0.335  -8.974  0.00  0.00    -0.646 OA
ENDBRANCH   1   9
BRANCH   1  12
HETATM   12  N           1     -36.593  -0.007 -12.265  0.00  0.00    -0.344 N 
HETATM   13  H           1     -36.697   0.967 -12.008  0.00  0.00     0.163 HD
HETATM   14  C           1     -36.758  -0.393 -13.567  0.00  0.00     0.248 C 
HETATM   15  O           1     -37.850  -0.719 -13.968  0.00  0.00    -0.271 OA
BRANCH  14  16
HETATM   16  C           1     -35.575  -0.411 -14.505  0.00  0.00     0.270 C 
HETATM   17  C           1     -34.757   0.859 -14.317  0.00  0.00     0.050 C 
BRANCH  16  18
HETATM   18  N           1     -36.064  -0.485 -15.922  0.00  0.00    -0.067 N 
HETATM   19  H           1     -36.779  -1.242 -16.005  0.00  0.00     0.275 HD
HETATM   20  H           1     -35.260  -0.692 -16.557  0.00  0.00     0.275 HD
HETATM   21  H           1     -36.492   0.430 -16.191  0.00  0.00     0.275 HD
ENDBRANCH  16  18
ENDBRANCH  14  16
ENDBRANCH   1  12
TORSDOF 6
ENDMDL
MODEL 3
REMARK VINA RESULT:      -7.3      2.482      5.308
REMARK  6 active torsions:
REMARK  status: ('A' for Active; 'I' for Inactive)
REMARK    1  A    between atoms: C_2  and  C_3 
REMARK    2  A    between atoms: C_3  and  C_4 
REMARK    3  A    between atoms: C_4  and  C_18 
REMARK    4  A    between atoms: C_4  and  N_12 
REMARK       I    between atoms: N_12  and  C_13 
REMARK    5  A    between atoms: C_13  and  C_14 
REMARK    6  A    between atoms: C_14  and  N_16 
ROOT
HETATM    1  C           1     -36.287  -0.063 -10.686  0.00  0.00     0.189 C 
ENDROOT
BRANCH   1   2
HETATM    2  C           1     -37.299  -0.419 -11.767  0.00  0.00     0.074 C 
BRANCH   2   3
HETATM    3  C           1     -36.776   0.010 -13.102  0.00  0.00    -0.056 A 
HETATM    4  C           1     -35.474   0.496 -13.218  0.00  0.00     0.007 A 
HETATM    5  C           1     -34.987   0.897 -14.461  0.00  0.00     0.001 A 
HETATM    6  C           1     -35.802   0.810 -15.590  0.00  0.00     0.000 A 
HETATM    7  C           1     -37.104   0.324 -15.475  0.00  0.00     0.001 A 
HETATM    8  C           1     -37.591  -0.076 -14.230  0.00  0.00     0.007 A 
ENDBRANCH   2   3
ENDBRANCH   1   2
BRANCH   1   9
HETATM    9  C           1     -36.950   0.801  -9.640  0.00  0.00     0.197 C 
HETATM   10  O           1     -36.376   1.015  -8.551  0.00  0.00    -0.646 OA
HETATM   11  O           1     -38.074   1.301  -9.864  0.00  0.00    -0.646 OA
ENDBRANCH   1   9
BRANCH   1  12
HETATM   12  N           1     -35.794  -1.277 -10.067  0.00  0.00    -0.344 N 
HETATM   13  H           1     -36.196  -1.601  -9.196  0.00  0.00     0.163 HD
HETATM   14  C           1     -34.785  -1.987 -10.660  0.00  0.00     0.248 C 
HETATM   15  O           1     -33.633  -1.743 -10.389  0.00  0.00    -0.271 OA
BRANCH  14  16
HETATM   16  C           1     -35.111  -3.076 -11.653  0.00  0.00     0.270 C 
HETATM   17  C           1     -34.787  -4.433 -11.044  0.00  0.00     0.050 C 
BRANCH  16  18
HETATM   18  N           1     -34.293  -2.879 -12.896  0.00  0.00    -0.067 N 
HETATM   19  H           1     -34.278  -3.766 -13.447  0.00  0.00     0.275 HD
HETATM   20  H           1     -33.317  -2.615 -12.631  0.00  0.00     0.275 HD
HETATM   21  H           1     -34.715  -2.116 -13.473  0.00  0.00     0.275 HD
ENDBRANCH  16  18
ENDBRANCH  14  16
ENDBRANCH   1  12
TORSDOF 6
ENDMDL
MODEL 4
REMARK VINA RESULT:      -7.0      2.614      5.539
REMARK  6 active torsions:
REMARK  status: ('A' for Active; 'I' for Inactive)
REMARK    1  A    between atoms: C_2  and  C_3 
REMARK    2  A    between atoms: C_3  and  C_4 
REMARK    3  A    between atoms: C_4  and  C_18 
REMARK    4  A    between atoms: C_4  and  N_12 
REMARK       I    between atoms: N_12  and  C_13 
REMARK    5  A    between atoms: C_13  and  C_14 
REMARK    6  A    between atoms: C_14  and  N_16 
ROOT
HETATM    1  C           1     -34.571  -1.803 -11.282  0.00  0.00     0.189 C 
ENDROOT
BRANCH   1   2
HETATM    2  C           1     -34.913  -2.165 -12.722  0.00  0.00     0.074 C 
BRANCH   2   3
HETATM    3  C           1     -35.074  -0.914 -13.527  0.00  0.00    -0.056 A 
HETATM    4  C           1     -35.722  -0.957 -14.762  0.00  0.00     0.007 A 
HETATM    5  C           1     -35.870   0.208 -15.513  0.00  0.00     0.001 A 
HETATM    6  C           1     -35.373   1.418 -15.028  0.00  0.00     0.000 A 
HETATM    7  C           1     -34.725   1.462 -13.794  0.00  0.00     0.001 A 
HETATM    8  C           1     -34.576   0.296 -13.044  0.00  0.00     0.007 A 
ENDBRANCH   2   3
ENDBRANCH   1   2
BRANCH   1   9
HETATM    9  C           1     -35.841  -1.516 -10.519  0.00  0.00     0.197 C 
HETATM   10  O           1     -35.892  -0.546  -9.733  0.00  0.00    -0.646 OA
HETATM   11  O           1     -36.842  -2.250 -10.673  0.00  0.00    -0.646 OA
ENDBRANCH   1   9
BRANCH   1  12
HETATM   12  N           1     -33.872  -2.910 -10.659  0.00  0.00    -0.344 N 
HETATM   13  H           1     -33.548  -2.830  -9.703  0.00  0.00     0.163 HD
HETATM   14  C           1     -33.651  -4.063 -11.362  0.00  0.00     0.248 C 
HETATM   15  O           1     -32.642  -4.189 -12.014  0.00  0.00    -0.271 OA
BRANCH  14  16
HETATM   16  C           1     -34.667  -5.178 -11.324  0.00  0.00     0.270 C 
HETATM   17  C           1     -34.213  -6.246 -10.340  0.00  0.00     0.050 C 
BRANCH  16  18
HETATM   18  N           1     -34.797  -5.781 -12.692  0.00  0.00    -0.067 N 
HETATM   19  H           1     -34.918  -6.815 -12.606  0.00  0.00     0.275 HD
HETATM   20  H           1     -33.937  -5.574 -13.247  0.00  0.00     0.275 HD
HETATM   21  H           1     -35.630  -5.372 -13.175  0.00  0.00     0.275 HD
ENDBRANCH  16  18
ENDBRANCH  14  16
ENDBRANCH   1  12
TORSDOF 6
ENDMDL
MODEL 5
REMARK VINA RESULT:      -6.7     14.018     16.232
REMARK  6 active torsions:
REMARK  status: ('A' for Active; 'I' for Inactive)
REMARK    1  A    between atoms: C_2  and  C_3 
REMARK    2  A    between atoms: C_3  and  C_4 
REMARK    3  A    between atoms: C_4  and  C_18 
REMARK    4  A    between atoms: C_4  and  N_12 
REMARK       I    between atoms: N_12  and  C_13 
REMARK    5  A    between atoms: C_13  and  C_14 
REMARK    6  A    between atoms: C_14  and  N_16 
ROOT
HETATM    1  C           1     -21.574  -5.425  -6.994  0.00  0.00     0.189 C 
ENDROOT
BRANCH   1   2
HETATM    2  C           1     -21.938  -4.056  -7.552  0.00  0.00     0.074 C 
BRANCH   2   3
HETATM    3  C           1     -22.138  -4.157  -9.031  0.00  0.00    -0.056 A 
HETATM    4  C           1     -23.406  -4.426  -9.547  0.00  0.00     0.007 A 
HETATM    5  C           1     -23.593  -4.521 -10.926  0.00  0.00     0.001 A 
HETATM    6  C           1     -22.512  -4.345 -11.789  0.00  0.00     0.000 A 
HETATM    7  C           1     -21.244  -4.075 -11.275  0.00  0.00     0.001 A 
HETATM    8  C           1     -21.058  -3.981  -9.895  0.00  0.00     0.007 A 
ENDBRANCH   2   3
ENDBRANCH   1   2
BRANCH   1   9
HETATM    9  C           1     -20.078  -5.517  -6.819  0.00  0.00     0.197 C 
HETATM   10  O           1     -19.487  -6.594  -7.051  0.00  0.00    -0.646 OA
HETATM   11  O           1     -19.430  -4.516  -6.443  0.00  0.00    -0.646 OA
ENDBRANCH   1   9
BRANCH   1  12
HETATM   12  N           1     -22.223  -5.611  -5.710  0.00  0.00    -0.344 N 
HETATM   13  H           1     -23.122  -5.181  -5.531  0.00  0.00     0.163 HD
HETATM   14  C           1     -21.621  -6.367  -4.742  0.00  0.00     0.248 C 
HETATM   15  O           1     -20.873  -5.849  -3.947  0.00  0.00    -0.271 OA
BRANCH  14  16
HETATM   16  C           1     -21.891  -7.850  -4.665  0.00  0.00     0.270 C 
HETATM   17  C           1     -21.509  -8.366  -3.285  0.00  0.00     0.050 C 
BRANCH  16  18
HETATM   18  N           1     -21.076  -8.560  -5.706  0.00  0.00    -0.067 N 
HETATM   19  H           1     -21.712  -8.970  -6.426  0.00  0.00     0.275 HD
HETATM   20  H           1     -20.522  -9.322  -5.254  0.00  0.00     0.275 HD
HETATM   21  H           1     -20.425  -7.880  -6.163  0.00  0.00     0.275 HD
ENDBRANCH  16  18
ENDBRANCH  14  16
ENDBRANCH   1  12
TORSDOF 6
ENDMDL
MODEL 6
REMARK VINA RESULT:      -6.6     16.745     18.964
REMARK  6 active torsions:
REMARK  status: ('A' for Active; 'I' for Inactive)
REMARK    1  A    between atoms: C_2  and  C_3 
REMARK    2  A    between atoms: C_3  and  C_4 
REMARK    3  A    between atoms: C_4  and  C_18 
REMARK    4  A    between atoms: C_4  and  N_12 
REMARK       I    between atoms: N_12  and  C_13 
REMARK    5  A    between atoms: C_13  and  C_14 
REMARK    6  A    between atoms: C_14  and  N_16 
ROOT
HETATM    1  C           1     -21.035  -7.856  -4.175  0.00  0.00     0.189 C 
ENDROOT
BRANCH   1   2
HETATM    2  C           1     -20.948  -7.082  -2.866  0.00  0.00     0.074 C 
BRANCH   2   3
HETATM    3  C           1     -21.691  -7.822  -1.798  0.00  0.00    -0.056 A 
HETATM    4  C           1     -22.325  -7.119  -0.774  0.00  0.00     0.007 A 
HETATM    5  C           1     -23.016  -7.808   0.222  0.00  0.00     0.001 A 
HETATM    6  C           1     -23.075  -9.201   0.193  0.00  0.00     0.000 A 
HETATM    7  C           1     -22.441  -9.905  -0.831  0.00  0.00     0.001 A 
HETATM    8  C           1     -21.749  -9.215  -1.826  0.00  0.00     0.007 A 
ENDBRANCH   2   3
ENDBRANCH   1   2
BRANCH   1   9
HETATM    9  C           1     -21.721  -7.008  -5.218  0.00  0.00     0.197 C 
HETATM   10  O           1     -22.707  -6.308  -4.903  0.00  0.00    -0.646 OA
HETATM   11  O           1     -21.302  -7.006  -6.396  0.00  0.00    -0.646 OA
ENDBRANCH   1   9
BRANCH   1  12
HETATM   12  N           1     -19.698  -8.190  -4.627  0.00  0.00    -0.344 N 
HETATM   13  H           1     -19.021  -7.455  -4.791  0.00  0.00     0.163 HD
HETATM   14  C           1     -19.350  -9.498  -4.831  0.00  0.00     0.248 C 
HETATM   15  O           1     -19.515 -10.005  -5.914  0.00  0.00    -0.271 OA
BRANCH  14  16
HETATM   16  C           1     -18.761 -10.307  -3.702  0.00  0.00     0.270 C 
HETATM   17  C           1     -17.891  -9.410  -2.832  0.00  0.00     0.050 C 
BRANCH  16  18
HETATM   18  N           1     -17.923 -11.417  -4.268  0.00  0.00    -0.067 N 
HETATM   19  H           1     -17.888 -11.330  -5.309  0.00  0.00     0.275 HD
HETATM   20  H           1     -18.344 -12.337  -4.007  0.00  0.00     0.275 HD
HETATM   21  H           1     -16.954 -11.355  -3.880  0.00  0.00     0.275 HD
ENDBRANCH  16  18
ENDBRANCH  14  16
ENDBRANCH   1  12
TORSDOF 6
ENDMDL
MODEL 7
REMARK VINA RESULT:      -6.5     17.361     18.705
REMARK  6 active torsions:
REMARK  status: ('A' for Active; 'I' for Inactive)
REMARK    1  A    between atoms: C_2  and  C_3 
REMARK    2  A    between atoms: C_3  and  C_4 
REMARK    3  A    between atoms: C_4  and  C_18 
REMARK    4  A    between atoms: C_4  and  N_12 
REMARK       I    between atoms: N_12  and  C_13 
REMARK    5  A    between atoms: C_13  and  C_14 
REMARK    6  A    between atoms: C_14  and  N_16 
ROOT
HETATM    1  C           1     -21.332  -7.888  -3.101  0.00  0.00     0.189 C 
ENDROOT
BRANCH   1   2
HETATM    2  C           1     -21.213  -8.322  -1.646  0.00  0.00     0.074 C 
BRANCH   2   3
HETATM    3  C           1     -22.178  -9.433  -1.376  0.00  0.00    -0.056 A 
HETATM    4  C           1     -22.296 -10.491  -2.277  0.00  0.00     0.007 A 
HETATM    5  C           1     -23.197 -11.525  -2.026  0.00  0.00     0.001 A 
HETATM    6  C           1     -23.980 -11.502  -0.871  0.00  0.00     0.000 A 
HETATM    7  C           1     -23.863 -10.445   0.030  0.00  0.00     0.001 A 
HETATM    8  C           1     -22.962  -9.410  -0.222  0.00  0.00     0.007 A 
ENDBRANCH   2   3
ENDBRANCH   1   2
BRANCH   1   9
HETATM    9  C           1     -21.948  -6.512  -3.167  0.00  0.00     0.197 C 
HETATM   10  O           1     -22.259  -5.916  -2.114  0.00  0.00    -0.646 OA
HETATM   11  O           1     -22.148  -5.969  -4.275  0.00  0.00    -0.646 OA
ENDBRANCH   1   9
BRANCH   1  12
HETATM   12  N           1     -20.014  -7.856  -3.705  0.00  0.00    -0.344 N 
HETATM   13  H           1     -19.260  -7.358  -3.247  0.00  0.00     0.163 HD
HETATM   14  C           1     -19.788  -8.499  -4.891  0.00  0.00     0.248 C 
HETATM   15  O           1     -19.947  -7.914  -5.936  0.00  0.00    -0.271 OA
BRANCH  14  16
HETATM   16  C           1     -19.339  -9.940  -4.896  0.00  0.00     0.270 C 
HETATM   17  C           1     -18.448 -10.199  -3.689  0.00  0.00     0.050 C 
BRANCH  16  18
HETATM   18  N           1     -18.569 -10.219  -6.154  0.00  0.00    -0.067 N 
HETATM   19  H           1     -17.660 -10.674  -5.912  0.00  0.00     0.275 HD
HETATM   20  H           1     -18.388  -9.321  -6.657  0.00  0.00     0.275 HD
HETATM   21  H           1     -19.126 -10.856  -6.769  0.00  0.00     0.275 HD
ENDBRANCH  16  18
ENDBRANCH  14  16
ENDBRANCH   1  12
TORSDOF 6
ENDMDL
MODEL 8
REMARK VINA RESULT:      -6.4     16.020     18.193
REMARK  6 active torsions:
REMARK  status: ('A' for Active; 'I' for Inactive)
REMARK    1  A    between atoms: C_2  and  C_3 
REMARK    2  A    between atoms: C_3  and  C_4 
REMARK    3  A    between atoms: C_4  and  C_18 
REMARK    4  A    between atoms: C_4  and  N_12 
REMARK       I    between atoms: N_12  and  C_13 
REMARK    5  A    between atoms: C_13  and  C_14 
REMARK    6  A    between atoms: C_14  and  N_16 
ROOT
HETATM    1  C           1     -20.207  -8.468  -4.577  0.00  0.00     0.189 C 
ENDROOT
BRANCH   1   2
HETATM    2  C           1     -21.213  -9.332  -3.828  0.00  0.00     0.074 C 
BRANCH   2   3
HETATM    3  C           1     -21.645  -8.627  -2.580  0.00  0.00    -0.056 A 
HETATM    4  C           1     -21.966  -9.362  -1.439  0.00  0.00     0.007 A 
HETATM    5  C           1     -22.370  -8.706  -0.277  0.00  0.00     0.001 A 
HETATM    6  C           1     -22.451  -7.314  -0.255  0.00  0.00     0.000 A 
HETATM    7  C           1     -22.130  -6.578  -1.395  0.00  0.00     0.001 A 
HETATM    8  C           1     -21.727  -7.235  -2.558  0.00  0.00     0.007 A 
ENDBRANCH   2   3
ENDBRANCH   1   2
BRANCH   1   9
HETATM    9  C           1     -19.011  -9.305  -4.961  0.00  0.00     0.197 C 
HETATM   10  O           1     -18.023  -9.369  -4.199  0.00  0.00    -0.646 OA
HETATM   11  O           1     -19.009  -9.934  -6.041  0.00  0.00    -0.646 OA
ENDBRANCH   1   9
BRANCH   1  12
HETATM   12  N           1     -20.827  -7.934  -5.774  0.00  0.00    -0.344 N 
HETATM   13  H           1     -21.544  -8.465  -6.252  0.00  0.00     0.163 HD
HETATM   14  C           1     -20.444  -6.712  -6.257  0.00  0.00     0.248 C 
HETATM   15  O           1     -19.542  -6.634  -7.056  0.00  0.00    -0.271 OA
BRANCH  14  16
HETATM   16  C           1     -21.149  -5.462  -5.792  0.00  0.00     0.270 C 
HETATM   17  C           1     -21.868  -4.815  -6.968  0.00  0.00     0.050 C 
BRANCH  16  18
HETATM   18  N           1     -20.142  -4.500  -5.233  0.00  0.00    -0.067 N 
HETATM   19  H           1     -19.908  -4.772  -4.251  0.00  0.00     0.275 HD
HETATM   20  H           1     -20.540  -3.534  -5.243  0.00  0.00     0.275 HD
HETATM   21  H           1     -19.275  -4.525  -5.817  0.00  0.00     0.275 HD
ENDBRANCH  16  18
ENDBRANCH  14  16
ENDBRANCH   1  12
TORSDOF 6
ENDMDL
MODEL 9
REMARK VINA RESULT:      -6.4     10.286     11.941
REMARK  6 active torsions:
REMARK  status: ('A' for Active; 'I' for Inactive)
REMARK    1  A    between atoms: C_2  and  C_3 
REMARK    2  A    between atoms: C_3  and  C_4 
REMARK    3  A    between atoms: C_4  and  C_18 
REMARK    4  A    between atoms: C_4  and  N_12 
REMARK       I    between atoms: N_12  and  C_13 
REMARK    5  A    between atoms: C_13  and  C_14 
REMARK    6  A    between atoms: C_14  and  N_16 
ROOT
HETATM    1  C           1     -26.612  -6.923 -16.863  0.00  0.00     0.189 C 
ENDROOT
BRANCH   1   2
HETATM    2  C           1     -26.494  -5.977 -18.050  0.00  0.00     0.074 C 
BRANCH   2   3
HETATM    3  C           1     -25.927  -6.714 -19.223  0.00  0.00    -0.056 A 
HETATM    4  C           1     -24.562  -6.996 -19.277  0.00  0.00     0.007 A 
HETATM    5  C           1     -24.034  -7.682 -20.369  0.00  0.00     0.001 A 
HETATM    6  C           1     -24.871  -8.089 -21.408  0.00  0.00     0.000 A 
HETATM    7  C           1     -26.236  -7.807 -21.355  0.00  0.00     0.001 A 
HETATM    8  C           1     -26.764  -7.120 -20.262  0.00  0.00     0.007 A 
ENDBRANCH   2   3
ENDBRANCH   1   2
BRANCH   1   9
HETATM    9  C           1     -25.558  -6.580 -15.839  0.00  0.00     0.197 C 
HETATM   10  O           1     -25.126  -7.464 -15.068  0.00  0.00    -0.646 OA
HETATM   11  O           1     -25.117  -5.413 -15.762  0.00  0.00    -0.646 OA
ENDBRANCH   1   9
BRANCH   1  12
HETATM   12  N           1     -27.927  -6.787 -16.267  0.00  0.00    -0.344 N 
HETATM   13  H           1     -28.055  -6.199 -15.452  0.00  0.00     0.163 HD
HETATM   14  C           1     -28.995  -7.451 -16.805  0.00  0.00     0.248 C 
HETATM   15  O           1     -29.271  -8.564 -16.423  0.00  0.00    -0.271 OA
BRANCH  14  16
HETATM   16  C           1     -29.830  -6.796 -17.877  0.00  0.00     0.270 C 
HETATM   17  C           1     -30.863  -5.882 -17.231  0.00  0.00     0.050 C 
BRANCH  16  18
HETATM   18  N           1     -30.531  -7.852 -18.680  0.00  0.00    -0.067 N 
HETATM   19  H           1     -31.307  -8.263 -18.113  0.00  0.00     0.275 HD
HETATM   20  H           1     -29.851  -8.603 -18.936  0.00  0.00     0.275 HD
HETATM   21  H           1     -30.923  -7.426 -19.551  0.00  0.00     0.275 HD
ENDBRANCH  16  18
ENDBRANCH  14  16
ENDBRANCH   1  12
TORSDOF 6
ENDMDL
