MODEL 1
REMARK VINA RESULT:      -6.5      0.000      0.000
REMARK  10 active torsions:
REMARK  status: ('A' for Active; 'I' for Inactive)
REMARK    1  A    between atoms: C_6  and  C_7 
REMARK    2  A    between atoms: C_6  and  N_9 
REMARK    3  A    between atoms: C_7  and  C_10 
REMARK    4  A    between atoms: C_10  and  C_11 
REMARK    5  A    between atoms: C_11  and  C_18 
REMARK    6  A    between atoms: C_11  and  N_22 
REMARK    7  A    between atoms: C_12  and  C_15 
REMARK    8  A    between atoms: N_13  and  C_15 
REMARK       I    between atoms: N_13  and  C_18 
REMARK    9  A    between atoms: C_14  and  C_16 
REMARK   10  A    between atoms: C_15  and  C_16 
ROOT
HETATM    1  C           1     -33.619  -3.086 -11.423  0.00  0.00     0.274 C 
ENDROOT
BRANCH   1   2
HETATM    2  C           1     -34.451  -4.130 -10.691  0.00  0.00     0.044 C 
BRANCH   2   3
HETATM    3  C           1     -33.918  -5.521 -11.011  0.00  0.00     0.030 C 
BRANCH   3   4
HETATM    4  C           1     -34.707  -6.560 -10.227  0.00  0.00     0.230 C 
BRANCH   4   5
HETATM    5  N           1     -34.786  -7.832 -11.018  0.00  0.00    -0.079 N 
HETATM    6  H           1     -35.548  -7.755 -11.728  0.00  0.00     0.274 HD
HETATM    7  H           1     -34.989  -8.630 -10.374  0.00  0.00     0.274 HD
HETATM    8  H           1     -33.875  -7.999 -11.501  0.00  0.00     0.274 HD
ENDBRANCH   4   5
ENDBRANCH   3   4
ENDBRANCH   2   3
ENDBRANCH   1   2
BRANCH   1   9
HETATM    9  C           1     -34.424  -2.511 -12.563  0.00  0.00     0.249 C 
HETATM   10  N           1     -34.965  -1.259 -12.456  0.00  0.00    -0.344 N 
HETATM   11  H           1     -34.825  -0.718 -11.612  0.00  0.00     0.163 HD
HETATM   12  O           1     -34.590  -3.156 -13.571  0.00  0.00    -0.271 OA
BRANCH  10  13
HETATM   13  C           1     -35.738  -0.706 -13.551  0.00  0.00     0.195 C 
BRANCH  13  14
HETATM   14  C           1     -34.930   0.362 -14.247  0.00  0.00     0.197 C 
HETATM   15  O           1     -34.704   1.448 -13.673  0.00  0.00    -0.646 OA
HETATM   16  O           1     -34.487   0.159 -15.398  0.00  0.00    -0.646 OA
ENDBRANCH  13  14
BRANCH  13  17
HETATM   17  C           1     -37.024  -0.097 -13.008  0.00  0.00     0.149 C 
BRANCH  17  18
HETATM   18  C           1     -37.068  -0.269 -11.509  0.00  0.00     0.175 C 
HETATM   19  O           1     -37.779  -1.165 -11.003  0.00  0.00    -0.648 OA
HETATM   20  O           1     -36.394   0.483 -10.773  0.00  0.00    -0.648 OA
ENDBRANCH  17  18
ENDBRANCH  13  17
ENDBRANCH  10  13
ENDBRANCH   1   9
BRANCH   1  21
HETATM   21  N           1     -33.246  -1.988 -10.472  0.00  0.00    -0.067 N 
HETATM   22  H           1     -32.215  -1.826 -10.513  0.00  0.00     0.275 HD
HETATM   23  H           1     -33.746  -1.110 -10.740  0.00  0.00     0.275 HD
HETATM   24  H           1     -33.517  -2.261  -9.501  0.00  0.00     0.275 HD
ENDBRANCH   1  21
TORSDOF 10
ENDMDL
MODEL 2
REMARK VINA RESULT:      -6.4      1.509      3.005
REMARK  10 active torsions:
REMARK  status: ('A' for Active; 'I' for Inactive)
REMARK    1  A    between atoms: C_6  and  C_7 
REMARK    2  A    between atoms: C_6  and  N_9 
REMARK    3  A    between atoms: C_7  and  C_10 
REMARK    4  A    between atoms: C_10  and  C_11 
REMARK    5  A    between atoms: C_11  and  C_18 
REMARK    6  A    between atoms: C_11  and  N_22 
REMARK    7  A    between atoms: C_12  and  C_15 
REMARK    8  A    between atoms: N_13  and  C_15 
REMARK       I    between atoms: N_13  and  C_18 
REMARK    9  A    between atoms: C_14  and  C_16 
REMARK   10  A    between atoms: C_15  and  C_16 
ROOT
HETATM    1  C           1     -34.196  -3.917 -12.497  0.00  0.00     0.274 C 
ENDROOT
BRANCH   1   2
HETATM    2  C           1     -33.170  -4.570 -11.580  0.00  0.00     0.044 C 
BRANCH   2   3
HETATM    3  C           1     -33.885  -5.445 -10.558  0.00  0.00     0.030 C 
BRANCH   3   4
HETATM    4  C           1     -34.756  -6.463 -11.281  0.00  0.00     0.230 C 
BRANCH   4   5
HETATM    5  N           1     -34.638  -7.795 -10.603  0.00  0.00    -0.079 N 
HETATM    6  H           1     -33.918  -7.740  -9.848  0.00  0.00     0.274 HD
HETATM    7  H           1     -34.354  -8.518 -11.303  0.00  0.00     0.274 HD
HETATM    8  H           1     -35.560  -8.057 -10.187  0.00  0.00     0.274 HD
ENDBRANCH   4   5
ENDBRANCH   3   4
ENDBRANCH   2   3
ENDBRANCH   1   2
BRANCH   1   9
HETATM    9  C           1     -34.331  -2.457 -12.140  0.00  0.00     0.249 C 
HETATM   10  N           1     -35.157  -1.647 -12.873  0.00  0.00    -0.344 N 
HETATM   11  H           1     -35.676  -2.028 -13.653  0.00  0.00     0.163 HD
HETATM   12  O           1     -33.712  -2.002 -11.208  0.00  0.00    -0.271 OA
BRANCH  10  13
HETATM   13  C           1     -35.287  -0.244 -12.530  0.00  0.00     0.195 C 
BRANCH  13  14
HETATM   14  C           1     -36.464  -0.061 -11.603  0.00  0.00     0.197 C 
HETATM   15  O           1     -37.579  -0.537 -11.906  0.00  0.00    -0.646 OA
HETATM   16  O           1     -36.323   0.566 -10.531  0.00  0.00    -0.646 OA
ENDBRANCH  13  14
BRANCH  13  17
HETATM   17  C           1     -35.509   0.569 -13.799  0.00  0.00     0.149 C 
BRANCH  17  18
HETATM   18  C           1     -35.774  -0.364 -14.955  0.00  0.00     0.175 C 
HETATM   19  O           1     -34.832  -0.738 -15.686  0.00  0.00    -0.648 OA
HETATM   20  O           1     -36.937  -0.764 -15.181  0.00  0.00    -0.648 OA
ENDBRANCH  17  18
ENDBRANCH  13  17
ENDBRANCH  10  13
ENDBRANCH   1   9
BRANCH   1  21
HETATM   21  N           1     -33.744  -4.043 -13.922  0.00  0.00    -0.067 N 
HETATM   22  H           1     -33.301  -4.978 -14.066  0.00  0.00     0.275 HD
HETATM   23  H           1     -34.568  -3.947 -14.557  0.00  0.00     0.275 HD
HETATM   24  H           1     -33.050  -3.292 -14.135  0.00  0.00     0.275 HD
ENDBRANCH   1  21
TORSDOF 10
ENDMDL
MODEL 3
REMARK VINA RESULT:      -5.7     12.656     13.956
REMARK  10 active torsions:
REMARK  status: ('A' for Active; 'I' for Inactive)
REMARK    1  A    between atoms: C_6  and  C_7 
REMARK    2  A    between atoms: C_6  and  N_9 
REMARK    3  A    between atoms: C_7  and  C_10 
REMARK    4  A    between atoms: C_10  and  C_11 
REMARK    5  A    between atoms: C_11  and  C_18 
REMARK    6  A    between atoms: C_11  and  N_22 
REMARK    7  A    between atoms: C_12  and  C_15 
REMARK    8  A    between atoms: N_13  and  C_15 
REMARK       I    between atoms: N_13  and  C_18 
REMARK    9  A    between atoms: C_14  and  C_16 
REMARK   10  A    between atoms: C_15  and  C_16 
ROOT
HETATM    1  C           1     -20.229  -3.837  -7.760  0.00  0.00     0.274 C 
ENDROOT
BRANCH   1   2
HETATM    2  C           1     -19.684  -5.004  -6.948  0.00  0.00     0.044 C 
BRANCH   2   3
HETATM    3  C           1     -20.229  -4.934  -5.527  0.00  0.00     0.030 C 
BRANCH   3   4
HETATM    4  C           1     -20.871  -6.266  -5.163  0.00  0.00     0.230 C 
BRANCH   4   5
HETATM    5  N           1     -20.951  -7.134  -6.384  0.00  0.00    -0.079 N 
HETATM    6  H           1     -20.537  -8.070  -6.174  0.00  0.00     0.274 HD
HETATM    7  H           1     -20.420  -6.685  -7.165  0.00  0.00     0.274 HD
HETATM    8  H           1     -21.950  -7.250  -6.665  0.00  0.00     0.274 HD
ENDBRANCH   4   5
ENDBRANCH   3   4
ENDBRANCH   2   3
ENDBRANCH   1   2
BRANCH   1   9
HETATM    9  C           1     -20.609  -4.317  -9.139  0.00  0.00     0.249 C 
HETATM   10  N           1     -21.812  -3.956  -9.682  0.00  0.00    -0.344 N 
HETATM   11  H           1     -22.447  -3.365  -9.159  0.00  0.00     0.163 HD
HETATM   12  O           1     -19.852  -5.021  -9.764  0.00  0.00    -0.271 OA
BRANCH  10  13
HETATM   13  C           1     -22.178  -4.417 -11.007  0.00  0.00     0.195 C 
BRANCH  13  14
HETATM   14  C           1     -21.985  -3.297 -12.000  0.00  0.00     0.197 C 
HETATM   15  O           1     -22.390  -3.427 -13.175  0.00  0.00    -0.646 OA
HETATM   16  O           1     -21.421  -2.239 -11.646  0.00  0.00    -0.646 OA
ENDBRANCH  13  14
BRANCH  13  17
HETATM   17  C           1     -23.638  -4.851 -11.007  0.00  0.00     0.149 C 
BRANCH  17  18
HETATM   18  C           1     -24.501  -3.714 -10.515  0.00  0.00     0.175 C 
HETATM   19  O           1     -24.515  -3.421  -9.300  0.00  0.00    -0.648 OA
HETATM   20  O           1     -25.202  -3.067 -11.322  0.00  0.00    -0.648 OA
ENDBRANCH  17  18
ENDBRANCH  13  17
ENDBRANCH  10  13
ENDBRANCH   1   9
BRANCH   1  21
HETATM   21  N           1     -21.439  -3.275  -7.075  0.00  0.00    -0.067 N 
HETATM   22  H           1     -21.885  -2.556  -7.690  0.00  0.00     0.275 HD
HETATM   23  H           1     -22.121  -4.043  -6.888  0.00  0.00     0.275 HD
HETATM   24  H           1     -21.155  -2.833  -6.172  0.00  0.00     0.275 HD
ENDBRANCH   1  21
TORSDOF 10
ENDMDL
MODEL 4
REMARK VINA RESULT:      -5.7     13.194     15.075
REMARK  10 active torsions:
REMARK  status: ('A' for Active; 'I' for Inactive)
REMARK    1  A    between atoms: C_6  and  C_7 
REMARK    2  A    between atoms: C_6  and  N_9 
REMARK    3  A    between atoms: C_7  and  C_10 
REMARK    4  A    between atoms: C_10  and  C_11 
REMARK    5  A    between atoms: C_11  and  C_18 
REMARK    6  A    between atoms: C_11  and  N_22 
REMARK    7  A    between atoms: C_12  and  C_15 
REMARK    8  A    between atoms: N_13  and  C_15 
REMARK       I    between atoms: N_13  and  C_18 
REMARK    9  A    between atoms: C_14  and  C_16 
REMARK   10  A    between atoms: C_15  and  C_16 
ROOT
HETATM    1  C           1     -23.604  -4.404  -9.085  0.00  0.00     0.274 C 
ENDROOT
BRANCH   1   2
HETATM    2  C           1     -23.228  -4.616 -10.546  0.00  0.00     0.044 C 
BRANCH   2   3
HETATM    3  C           1     -23.630  -3.391 -11.358  0.00  0.00     0.030 C 
BRANCH   3   4
HETATM    4  C           1     -22.541  -3.077 -12.375  0.00  0.00     0.230 C 
BRANCH   4   5
HETATM    5  N           1     -21.229  -2.909 -11.668  0.00  0.00    -0.079 N 
HETATM    6  H           1     -20.453  -3.226 -12.293  0.00  0.00     0.274 HD
HETATM    7  H           1     -21.229  -3.482 -10.794  0.00  0.00     0.274 HD
HETATM    8  H           1     -21.091  -1.903 -11.424  0.00  0.00     0.274 HD
ENDBRANCH   4   5
ENDBRANCH   3   4
ENDBRANCH   2   3
ENDBRANCH   1   2
BRANCH   1   9
HETATM    9  C           1     -22.358  -4.133  -8.279  0.00  0.00     0.249 C 
HETATM   10  N           1     -22.039  -4.939  -7.220  0.00  0.00    -0.344 N 
HETATM   11  H           1     -22.639  -5.718  -6.978  0.00  0.00     0.163 HD
HETATM   12  O           1     -21.641  -3.205  -8.568  0.00  0.00    -0.271 OA
BRANCH  10  13
HETATM   13  C           1     -20.842  -4.679  -6.445  0.00  0.00     0.195 C 
BRANCH  13  14
HETATM   14  C           1     -19.638  -5.204  -7.188  0.00  0.00     0.197 C 
HETATM   15  O           1     -19.633  -6.377  -7.621  0.00  0.00    -0.646 OA
HETATM   16  O           1     -18.647  -4.466  -7.373  0.00  0.00    -0.646 OA
ENDBRANCH  13  14
BRANCH  13  17
HETATM   17  C           1     -20.950  -5.378  -5.096  0.00  0.00     0.149 C 
BRANCH  17  18
HETATM   18  C           1     -22.033  -6.428  -5.157  0.00  0.00     0.175 C 
HETATM   19  O           1     -21.739  -7.613  -5.424  0.00  0.00    -0.648 OA
HETATM   20  O           1     -23.223  -6.112  -4.941  0.00  0.00    -0.648 OA
ENDBRANCH  17  18
ENDBRANCH  13  17
ENDBRANCH  10  13
ENDBRANCH   1   9
BRANCH   1  21
HETATM   21  N           1     -24.535  -3.233  -8.975  0.00  0.00    -0.067 N 
HETATM   22  H           1     -23.992  -2.378  -8.717  0.00  0.00     0.275 HD
HETATM   23  H           1     -25.010  -3.078  -9.892  0.00  0.00     0.275 HD
HETATM   24  H           1     -25.251  -3.425  -8.239  0.00  0.00     0.275 HD
ENDBRANCH   1  21
TORSDOF 10
ENDMDL
MODEL 5
REMARK VINA RESULT:      -5.6      9.593     11.353
REMARK  10 active torsions:
REMARK  status: ('A' for Active; 'I' for Inactive)
REMARK    1  A    between atoms: C_6  and  C_7 
REMARK    2  A    between atoms: C_6  and  N_9 
REMARK    3  A    between atoms: C_7  and  C_10 
REMARK    4  A    between atoms: C_10  and  C_11 
REMARK    5  A    between atoms: C_11  and  C_18 
REMARK    6  A    between atoms: C_11  and  N_22 
REMARK    7  A    between atoms: C_12  and  C_15 
REMARK    8  A    between atoms: N_13  and  C_15 
REMARK       I    between atoms: N_13  and  C_18 
REMARK    9  A    between atoms: C_14  and  C_16 
REMARK   10  A    between atoms: C_15  and  C_16 
ROOT
HETATM    1  C           1     -29.669  -6.955 -18.331  0.00  0.00     0.274 C 
ENDROOT
BRANCH   1   2
HETATM    2  C           1     -30.254  -6.517 -16.996  0.00  0.00     0.044 C 
BRANCH   2   3
HETATM    3  C           1     -31.657  -5.964 -17.212  0.00  0.00     0.030 C 
BRANCH   3   4
HETATM    4  C           1     -31.698  -4.502 -16.789  0.00  0.00     0.230 C 
BRANCH   4   5
HETATM    5  N           1     -33.123  -4.041 -16.714  0.00  0.00    -0.079 N 
HETATM    6  H           1     -33.312  -3.646 -15.766  0.00  0.00     0.274 HD
HETATM    7  H           1     -33.760  -4.852 -16.888  0.00  0.00     0.274 HD
HETATM    8  H           1     -33.290  -3.306 -17.437  0.00  0.00     0.274 HD
ENDBRANCH   4   5
ENDBRANCH   3   4
ENDBRANCH   2   3
ENDBRANCH   1   2
BRANCH   1   9
HETATM    9  C           1     -28.311  -6.323 -18.517  0.00  0.00     0.249 C 
HETATM   10  N           1     -27.178  -7.052 -18.277  0.00  0.00    -0.344 N 
HETATM   11  H           1     -27.250  -8.015 -17.975  0.00  0.00     0.163 HD
HETATM   12  O           1     -28.224  -5.173 -18.879  0.00  0.00    -0.271 OA
BRANCH  10  13
HETATM   13  C           1     -25.874  -6.444 -18.456  0.00  0.00     0.195 C 
BRANCH  13  14
HETATM   14  C           1     -25.335  -6.803 -19.820  0.00  0.00     0.197 C 
HETATM   15  O           1     -25.659  -6.123 -20.817  0.00  0.00    -0.646 OA
HETATM   16  O           1     -24.565  -7.778 -19.951  0.00  0.00    -0.646 OA
ENDBRANCH  13  14
BRANCH  13  17
HETATM   17  C           1     -24.923  -6.959 -17.383  0.00  0.00     0.149 C 
BRANCH  17  18
HETATM   18  C           1     -25.478  -6.630 -16.019  0.00  0.00     0.175 C 
HETATM   19  O           1     -25.173  -5.553 -15.463  0.00  0.00    -0.648 OA
HETATM   20  O           1     -26.244  -7.434 -15.444  0.00  0.00    -0.648 OA
ENDBRANCH  17  18
ENDBRANCH  13  17
ENDBRANCH  10  13
ENDBRANCH   1   9
BRANCH   1  21
HETATM   21  N           1     -29.530  -8.449 -18.350  0.00  0.00    -0.067 N 
HETATM   22  H           1     -28.611  -8.719 -17.934  0.00  0.00     0.275 HD
HETATM   23  H           1     -30.304  -8.876 -17.793  0.00  0.00     0.275 HD
HETATM   24  H           1     -29.580  -8.791 -19.336  0.00  0.00     0.275 HD
ENDBRANCH   1  21
TORSDOF 10
ENDMDL
MODEL 6
REMARK VINA RESULT:      -5.6     14.920     17.035
REMARK  10 active torsions:
REMARK  status: ('A' for Active; 'I' for Inactive)
REMARK    1  A    between atoms: C_6  and  C_7 
REMARK    2  A    between atoms: C_6  and  N_9 
REMARK    3  A    between atoms: C_7  and  C_10 
REMARK    4  A    between atoms: C_10  and  C_11 
REMARK    5  A    between atoms: C_11  and  C_18 
REMARK    6  A    between atoms: C_11  and  N_22 
REMARK    7  A    between atoms: C_12  and  C_15 
REMARK    8  A    between atoms: N_13  and  C_15 
REMARK       I    between atoms: N_13  and  C_18 
REMARK    9  A    between atoms: C_14  and  C_16 
REMARK   10  A    between atoms: C_15  and  C_16 
ROOT
HETATM    1  C           1     -20.509  -5.016  -6.529  0.00  0.00     0.274 C 
ENDROOT
BRANCH   1   2
HETATM    2  C           1     -21.312  -3.887  -7.162  0.00  0.00     0.044 C 
BRANCH   2   3
HETATM    3  C           1     -21.407  -4.111  -8.666  0.00  0.00     0.030 C 
BRANCH   3   4
HETATM    4  C           1     -22.858  -3.982  -9.108  0.00  0.00     0.230 C 
BRANCH   4   5
HETATM    5  N           1     -23.757  -4.080  -7.911  0.00  0.00    -0.079 N 
HETATM    6  H           1     -24.594  -4.657  -8.150  0.00  0.00     0.274 HD
HETATM    7  H           1     -24.063  -3.121  -7.627  0.00  0.00     0.274 HD
HETATM    8  H           1     -23.239  -4.527  -7.122  0.00  0.00     0.274 HD
ENDBRANCH   4   5
ENDBRANCH   3   4
ENDBRANCH   2   3
ENDBRANCH   1   2
BRANCH   1   9
HETATM    9  C           1     -21.400  -5.812  -5.606  0.00  0.00     0.249 C 
HETATM   10  N           1     -20.851  -6.705  -4.727  0.00  0.00    -0.344 N 
HETATM   11  H           1     -19.847  -6.833  -4.696  0.00  0.00     0.163 HD
HETATM   12  O           1     -22.598  -5.659  -5.643  0.00  0.00    -0.271 OA
BRANCH  10  13
HETATM   13  C           1     -21.706  -7.470  -3.841  0.00  0.00     0.195 C 
BRANCH  13  14
HETATM   14  C           1     -21.637  -6.887  -2.450  0.00  0.00     0.197 C 
HETATM   15  O           1     -22.302  -5.868  -2.166  0.00  0.00    -0.646 OA
HETATM   16  O           1     -20.915  -7.423  -1.583  0.00  0.00    -0.646 OA
ENDBRANCH  13  14
BRANCH  13  17
HETATM   17  C           1     -21.238  -8.918  -3.808  0.00  0.00     0.149 C 
BRANCH  17  18
HETATM   18  C           1     -19.941  -9.045  -4.570  0.00  0.00     0.175 C 
HETATM   19  O           1     -19.957  -9.298  -5.794  0.00  0.00    -0.648 OA
HETATM   20  O           1     -18.850  -8.898  -3.976  0.00  0.00    -0.648 OA
ENDBRANCH  17  18
ENDBRANCH  13  17
ENDBRANCH  10  13
ENDBRANCH   1   9
BRANCH   1  21
HETATM   21  N           1     -19.977  -5.915  -7.606  0.00  0.00    -0.067 N 
HETATM   22  H           1     -20.749  -6.165  -8.264  0.00  0.00     0.275 HD
HETATM   23  H           1     -19.221  -5.419  -8.130  0.00  0.00     0.275 HD
HETATM   24  H           1     -19.591  -6.785  -7.175  0.00  0.00     0.275 HD
ENDBRANCH   1  21
TORSDOF 10
ENDMDL
MODEL 7
REMARK VINA RESULT:      -5.6     12.971     14.502
REMARK  10 active torsions:
REMARK  status: ('A' for Active; 'I' for Inactive)
REMARK    1  A    between atoms: C_6  and  C_7 
REMARK    2  A    between atoms: C_6  and  N_9 
REMARK    3  A    between atoms: C_7  and  C_10 
REMARK    4  A    between atoms: C_10  and  C_11 
REMARK    5  A    between atoms: C_11  and  C_18 
REMARK    6  A    between atoms: C_11  and  N_22 
REMARK    7  A    between atoms: C_12  and  C_15 
REMARK    8  A    between atoms: N_13  and  C_15 
REMARK       I    between atoms: N_13  and  C_18 
REMARK    9  A    between atoms: C_14  and  C_16 
REMARK   10  A    between atoms: C_15  and  C_16 
ROOT
HETATM    1  C           1     -21.212  -6.011  -6.970  0.00  0.00     0.274 C 
ENDROOT
BRANCH   1   2
HETATM    2  C           1     -21.481  -5.840  -5.481  0.00  0.00     0.044 C 
BRANCH   2   3
HETATM    3  C           1     -20.732  -6.914  -4.702  0.00  0.00     0.030 C 
BRANCH   3   4
HETATM    4  C           1     -21.526  -7.285  -3.456  0.00  0.00     0.230 C 
BRANCH   4   5
HETATM    5  N           1     -22.154  -6.052  -2.877  0.00  0.00    -0.079 N 
HETATM    6  H           1     -21.436  -5.512  -2.344  0.00  0.00     0.274 HD
HETATM    7  H           1     -22.932  -6.327  -2.234  0.00  0.00     0.274 HD
HETATM    8  H           1     -22.534  -5.459  -3.648  0.00  0.00     0.274 HD
ENDBRANCH   4   5
ENDBRANCH   3   4
ENDBRANCH   2   3
ENDBRANCH   1   2
BRANCH   1   9
HETATM    9  C           1     -21.719  -4.801  -7.715  0.00  0.00     0.249 C 
HETATM   10  N           1     -22.299  -4.949  -8.946  0.00  0.00    -0.344 N 
HETATM   11  H           1     -22.388  -5.870  -9.356  0.00  0.00     0.163 HD
HETATM   12  O           1     -21.614  -3.702  -7.225  0.00  0.00    -0.271 OA
BRANCH  10  13
HETATM   13  C           1     -22.787  -3.786  -9.662  0.00  0.00     0.195 C 
BRANCH  13  14
HETATM   14  C           1     -24.295  -3.809  -9.689  0.00  0.00     0.197 C 
HETATM   15  O           1     -24.939  -2.752  -9.514  0.00  0.00    -0.646 OA
HETATM   16  O           1     -24.901  -4.884  -9.886  0.00  0.00    -0.646 OA
ENDBRANCH  13  14
BRANCH  13  17
HETATM   17  C           1     -22.253  -3.809 -11.088  0.00  0.00     0.149 C 
BRANCH  17  18
HETATM   18  C           1     -20.749  -3.679 -11.065  0.00  0.00     0.175 C 
HETATM   19  O           1     -20.039  -4.680 -10.827  0.00  0.00    -0.648 OA
HETATM   20  O           1     -20.214  -2.571 -11.284  0.00  0.00    -0.648 OA
ENDBRANCH  17  18
ENDBRANCH  13  17
ENDBRANCH  10  13
ENDBRANCH   1   9
BRANCH   1  21
HETATM   21  N           1     -19.737  -6.156  -7.197  0.00  0.00    -0.067 N 
HETATM   22  H           1     -19.494  -5.801  -8.150  0.00  0.00     0.275 HD
HETATM   23  H           1     -19.218  -5.603  -6.478  0.00  0.00     0.275 HD
HETATM   24  H           1     -19.470  -7.163  -7.122  0.00  0.00     0.275 HD
ENDBRANCH   1  21
TORSDOF 10
ENDMDL
MODEL 8
REMARK VINA RESULT:      -5.4     12.334     13.699
REMARK  10 active torsions:
REMARK  status: ('A' for Active; 'I' for Inactive)
REMARK    1  A    between atoms: C_6  and  C_7 
REMARK    2  A    between atoms: C_6  and  N_9 
REMARK    3  A    between atoms: C_7  and  C_10 
REMARK    4  A    between atoms: C_10  and  C_11 
REMARK    5  A    between atoms: C_11  and  C_18 
REMARK    6  A    between atoms: C_11  and  N_22 
REMARK    7  A    between atoms: C_12  and  C_15 
REMARK    8  A    between atoms: N_13  and  C_15 
REMARK       I    between atoms: N_13  and  C_18 
REMARK    9  A    between atoms: C_14  and  C_16 
REMARK   10  A    between atoms: C_15  and  C_16 
ROOT
HETATM    1  C           1     -22.333  -4.230  -7.073  0.00  0.00     0.274 C 
ENDROOT
BRANCH   1   2
HETATM    2  C           1     -21.356  -5.063  -6.254  0.00  0.00     0.044 C 
BRANCH   2   3
HETATM    3  C           1     -22.129  -6.063  -5.404  0.00  0.00     0.030 C 
BRANCH   3   4
HETATM    4  C           1     -21.405  -6.272  -4.080  0.00  0.00     0.230 C 
BRANCH   4   5
HETATM    5  N           1     -22.359  -6.043  -2.946  0.00  0.00    -0.079 N 
HETATM    6  H           1     -22.676  -5.048  -2.951  0.00  0.00     0.274 HD
HETATM    7  H           1     -21.879  -6.252  -2.041  0.00  0.00     0.274 HD
HETATM    8  H           1     -23.186  -6.673  -3.054  0.00  0.00     0.274 HD
ENDBRANCH   4   5
ENDBRANCH   3   4
ENDBRANCH   2   3
ENDBRANCH   1   2
BRANCH   1   9
HETATM    9  C           1     -22.084  -4.464  -8.543  0.00  0.00     0.249 C 
HETATM   10  N           1     -22.427  -3.505  -9.457  0.00  0.00    -0.344 N 
HETATM   11  H           1     -22.847  -2.638  -9.146  0.00  0.00     0.163 HD
HETATM   12  O           1     -21.582  -5.499  -8.914  0.00  0.00    -0.271 OA
BRANCH  10  13
HETATM   13  C           1     -22.189  -3.729 -10.869  0.00  0.00     0.195 C 
BRANCH  13  14
HETATM   14  C           1     -20.719  -3.556 -11.164  0.00  0.00     0.197 C 
HETATM   15  O           1     -20.220  -2.411 -11.201  0.00  0.00    -0.646 OA
HETATM   16  O           1     -20.000  -4.558 -11.370  0.00  0.00    -0.646 OA
ENDBRANCH  13  14
BRANCH  13  17
HETATM   17  C           1     -22.992  -2.726 -11.685  0.00  0.00     0.149 C 
BRANCH  17  18
HETATM   18  C           1     -24.450  -3.116 -11.669  0.00  0.00     0.175 C 
HETATM   19  O           1     -25.076  -3.244 -12.744  0.00  0.00    -0.648 OA
HETATM   20  O           1     -25.033  -3.312 -10.580  0.00  0.00    -0.648 OA
ENDBRANCH  17  18
ENDBRANCH  13  17
ENDBRANCH  10  13
ENDBRANCH   1   9
BRANCH   1  21
HETATM   21  N           1     -23.738  -4.631  -6.734  0.00  0.00    -0.067 N 
HETATM   22  H           1     -23.781  -4.941  -5.738  0.00  0.00     0.275 HD
HETATM   23  H           1     -24.375  -3.815  -6.872  0.00  0.00     0.275 HD
HETATM   24  H           1     -24.036  -5.416  -7.357  0.00  0.00     0.275 HD
ENDBRANCH   1  21
TORSDOF 10
ENDMDL
MODEL 9
REMARK VINA RESULT:      -5.1     16.159     17.875
REMARK  10 active torsions:
REMARK  status: ('A' for Active; 'I' for Inactive)
REMARK    1  A    between atoms: C_6  and  C_7 
REMARK    2  A    between atoms: C_6  and  N_9 
REMARK    3  A    between atoms: C_7  and  C_10 
REMARK    4  A    between atoms: C_10  and  C_11 
REMARK    5  A    between atoms: C_11  and  C_18 
REMARK    6  A    between atoms: C_11  and  N_22 
REMARK    7  A    between atoms: C_12  and  C_15 
REMARK    8  A    between atoms: N_13  and  C_15 
REMARK       I    between atoms: N_13  and  C_18 
REMARK    9  A    between atoms: C_14  and  C_16 
REMARK   10  A    between atoms: C_15  and  C_16 
ROOT
HETATM    1  C           1     -21.477  -7.153  -5.407  0.00  0.00     0.274 C 
ENDROOT
BRANCH   1   2
HETATM    2  C           1     -20.387  -6.374  -6.131  0.00  0.00     0.044 C 
BRANCH   2   3
HETATM    3  C           1     -20.555  -4.886  -5.852  0.00  0.00     0.030 C 
BRANCH   3   4
HETATM    4  C           1     -20.569  -4.121  -7.169  0.00  0.00     0.230 C 
BRANCH   4   5
HETATM    5  N           1     -21.918  -3.499  -7.373  0.00  0.00    -0.079 N 
HETATM    6  H           1     -22.285  -3.764  -8.315  0.00  0.00     0.274 HD
HETATM    7  H           1     -21.835  -2.459  -7.311  0.00  0.00     0.274 HD
HETATM    8  H           1     -22.574  -3.840  -6.635  0.00  0.00     0.274 HD
ENDBRANCH   4   5
ENDBRANCH   3   4
ENDBRANCH   2   3
ENDBRANCH   1   2
BRANCH   1   9
HETATM    9  C           1     -20.875  -7.893  -4.238  0.00  0.00     0.249 C 
HETATM   10  N           1     -21.643  -8.183  -3.143  0.00  0.00    -0.344 N 
HETATM   11  H           1     -22.615  -7.902  -3.117  0.00  0.00     0.163 HD
HETATM   12  O           1     -19.716  -8.230  -4.268  0.00  0.00    -0.271 OA
BRANCH  10  13
HETATM   13  C           1     -21.065  -8.894  -2.019  0.00  0.00     0.195 C 
BRANCH  13  14
HETATM   14  C           1     -21.888 -10.125  -1.727  0.00  0.00     0.197 C 
HETATM   15  O           1     -21.829 -10.663  -0.600  0.00  0.00    -0.646 OA
HETATM   16  O           1     -22.628 -10.606  -2.611  0.00  0.00    -0.646 OA
ENDBRANCH  13  14
BRANCH  13  17
HETATM   17  C           1     -21.056  -7.987  -0.796  0.00  0.00     0.149 C 
BRANCH  17  18
HETATM   18  C           1     -22.317  -7.157  -0.774  0.00  0.00     0.175 C 
HETATM   19  O           1     -23.268  -7.485  -0.033  0.00  0.00    -0.648 OA
HETATM   20  O           1     -22.410  -6.142  -1.498  0.00  0.00    -0.648 OA
ENDBRANCH  17  18
ENDBRANCH  13  17
ENDBRANCH  10  13
ENDBRANCH   1   9
BRANCH   1  21
HETATM   21  N           1     -22.525  -6.202  -4.910  0.00  0.00    -0.067 N 
HETATM   22  H           1     -23.397  -6.731  -4.683  0.00  0.00     0.275 HD
HETATM   23  H           1     -22.177  -5.720  -4.051  0.00  0.00     0.275 HD
HETATM   24  H           1     -22.730  -5.493  -5.650  0.00  0.00     0.275 HD
ENDBRANCH   1  21
TORSDOF 10
ENDMDL
