MODEL 1
REMARK VINA RESULT:      -7.4      0.000      0.000
REMARK  6 active torsions:
REMARK  status: ('A' for Active; 'I' for Inactive)
REMARK    1  A    between atoms: C_2  and  C_4 
REMARK    2  A    between atoms: C_4  and  C_22 
REMARK    3  A    between atoms: C_4  and  N_12 
REMARK    4  A    between atoms: N_5  and  C_8 
REMARK    5  A    between atoms: C_8  and  C_9 
REMARK       I    between atoms: C_9  and  N_12 
REMARK    6  A    between atoms: C_21  and  C_22 
ROOT
HETATM    1  C           1     -21.215  -5.916  -5.336  0.00  0.00     0.190 C 
ENDROOT
BRANCH   1   2
HETATM    2  C           1     -20.695  -7.181  -5.971  0.00  0.00     0.197 C 
HETATM    3  O           1     -19.551  -7.205  -6.472  0.00  0.00    -0.646 OA
HETATM    4  O           1     -21.410  -8.207  -5.996  0.00  0.00    -0.646 OA
ENDBRANCH   1   2
BRANCH   1   5
HETATM    5  C           1     -20.783  -4.714  -6.166  0.00  0.00     0.077 C 
BRANCH   5   6
HETATM    6  C           1     -21.782  -4.474  -7.255  0.00  0.00    -0.028 A 
HETATM    7  C           1     -23.147  -4.382  -7.099  0.00  0.00     0.096 A 
HETATM    8  N           1     -23.695  -4.158  -8.334  0.00  0.00    -0.365 N 
HETATM    9  H           1     -24.721  -4.045  -8.524  0.00  0.00     0.165 HD
HETATM   10  C           1     -22.707  -4.103  -9.292  0.00  0.00     0.042 A 
HETATM   11  C           1     -22.796  -3.897 -10.673  0.00  0.00     0.030 A 
HETATM   12  C           1     -21.491  -4.300  -8.636  0.00  0.00    -0.002 A 
HETATM   13  C           1     -21.603  -3.892 -11.404  0.00  0.00     0.002 A 
HETATM   14  C           1     -20.375  -4.085 -10.776  0.00  0.00     0.001 A 
HETATM   15  C           1     -20.303  -4.290  -9.394  0.00  0.00     0.014 A 
ENDBRANCH   5   6
ENDBRANCH   1   5
BRANCH   1  16
HETATM   16  N           1     -20.679  -5.793  -3.994  0.00  0.00    -0.345 N 
HETATM   17  H           1     -19.950  -5.120  -3.800  0.00  0.00     0.163 HD
HETATM   18  C           1     -21.159  -6.591  -2.990  0.00  0.00     0.243 C 
HETATM   19  O           1     -20.645  -7.661  -2.770  0.00  0.00    -0.272 OA
BRANCH  18  20
HETATM   20  C           1     -22.330  -6.130  -2.156  0.00  0.00     0.332 C 
BRANCH  20  21
HETATM   21  N           1     -22.367  -6.906  -0.873  0.00  0.00    -0.071 N 
HETATM   22  H           1     -22.096  -6.282  -0.079  0.00  0.00     0.274 HD
HETATM   23  H           1     -23.334  -7.270  -0.715  0.00  0.00     0.274 HD
HETATM   24  H           1     -21.697  -7.706  -0.931  0.00  0.00     0.274 HD
ENDBRANCH  20  21
ENDBRANCH  18  20
ENDBRANCH   1  16
TORSDOF 6
ENDMDL
MODEL 2
REMARK VINA RESULT:      -7.0      2.141      2.751
REMARK  6 active torsions:
REMARK  status: ('A' for Active; 'I' for Inactive)
REMARK    1  A    between atoms: C_2  and  C_4 
REMARK    2  A    between atoms: C_4  and  C_22 
REMARK    3  A    between atoms: C_4  and  N_12 
REMARK    4  A    between atoms: N_5  and  C_8 
REMARK    5  A    between atoms: C_8  and  C_9 
REMARK       I    between atoms: C_9  and  N_12 
REMARK    6  A    between atoms: C_21  and  C_22 
ROOT
HETATM    1  C           1     -21.534  -5.091  -7.461  0.00  0.00     0.190 C 
ENDROOT
BRANCH   1   2
HETATM    2  C           1     -20.060  -5.397  -7.354  0.00  0.00     0.197 C 
HETATM    3  O           1     -19.659  -6.577  -7.438  0.00  0.00    -0.646 OA
HETATM    4  O           1     -19.240  -4.469  -7.179  0.00  0.00    -0.646 OA
ENDBRANCH   1   2
BRANCH   1   5
HETATM    5  C           1     -21.724  -3.706  -8.064  0.00  0.00     0.077 C 
BRANCH   5   6
HETATM    6  C           1     -22.890  -3.725  -9.003  0.00  0.00    -0.028 A 
HETATM    7  C           1     -24.200  -3.973  -8.664  0.00  0.00     0.096 A 
HETATM    8  N           1     -24.950  -3.897  -9.808  0.00  0.00    -0.365 N 
HETATM    9  H           1     -25.988  -4.043  -9.857  0.00  0.00     0.165 HD
HETATM   10  C           1     -24.145  -3.603 -10.887  0.00  0.00     0.042 A 
HETATM   11  C           1     -24.470  -3.431 -12.237  0.00  0.00     0.030 A 
HETATM   12  C           1     -22.841  -3.489 -10.405  0.00  0.00    -0.002 A 
HETATM   13  C           1     -23.426  -3.134 -13.120  0.00  0.00     0.002 A 
HETATM   14  C           1     -22.114  -3.014 -12.667  0.00  0.00     0.001 A 
HETATM   15  C           1     -21.807  -3.189 -11.313  0.00  0.00     0.014 A 
ENDBRANCH   5   6
ENDBRANCH   1   5
BRANCH   1  16
HETATM   16  N           1     -22.131  -5.129  -6.140  0.00  0.00    -0.345 N 
HETATM   17  H           1     -22.933  -4.549  -5.931  0.00  0.00     0.163 HD
HETATM   18  C           1     -21.610  -5.949  -5.176  0.00  0.00     0.243 C 
HETATM   19  O           1     -20.744  -5.542  -4.440  0.00  0.00    -0.272 OA
BRANCH  18  20
HETATM   20  C           1     -22.120  -7.363  -5.032  0.00  0.00     0.332 C 
BRANCH  20  21
HETATM   21  N           1     -21.143  -8.314  -5.657  0.00  0.00    -0.071 N 
HETATM   22  H           1     -21.553  -9.275  -5.674  0.00  0.00     0.274 HD
HETATM   23  H           1     -20.936  -8.007  -6.635  0.00  0.00     0.274 HD
HETATM   24  H           1     -20.260  -8.321  -5.099  0.00  0.00     0.274 HD
ENDBRANCH  20  21
ENDBRANCH  18  20
ENDBRANCH   1  16
TORSDOF 6
ENDMDL
MODEL 3
REMARK VINA RESULT:      -6.6      2.625      6.952
REMARK  6 active torsions:
REMARK  status: ('A' for Active; 'I' for Inactive)
REMARK    1  A    between atoms: C_2  and  C_4 
REMARK    2  A    between atoms: C_4  and  C_22 
REMARK    3  A    between atoms: C_4  and  N_12 
REMARK    4  A    between atoms: N_5  and  C_8 
REMARK    5  A    between atoms: C_8  and  C_9 
REMARK       I    between atoms: C_9  and  N_12 
REMARK    6  A    between atoms: C_21  and  C_22 
ROOT
HETATM    1  C           1     -20.067  -7.591  -5.211  0.00  0.00     0.190 C 
ENDROOT
BRANCH   1   2
HETATM    2  C           1     -19.022  -8.677  -5.272  0.00  0.00     0.197 C 
HETATM    3  O           1     -18.479  -8.963  -6.360  0.00  0.00    -0.646 OA
HETATM    4  O           1     -18.700  -9.293  -4.232  0.00  0.00    -0.646 OA
ENDBRANCH   1   2
BRANCH   1   5
HETATM    5  C           1     -21.369  -8.166  -4.669  0.00  0.00     0.077 C 
BRANCH   5   6
HETATM    6  C           1     -21.704  -7.504  -3.368  0.00  0.00    -0.028 A 
HETATM    7  C           1     -22.053  -6.184  -3.195  0.00  0.00     0.096 A 
HETATM    8  N           1     -22.280  -5.982  -1.860  0.00  0.00    -0.365 N 
HETATM    9  H           1     -22.562  -5.067  -1.430  0.00  0.00     0.165 HD
HETATM   10  C           1     -22.084  -7.152  -1.161  0.00  0.00     0.042 A 
HETATM   11  C           1     -22.200  -7.419   0.208  0.00  0.00     0.030 A 
HETATM   12  C           1     -21.720  -8.128  -2.090  0.00  0.00    -0.002 A 
HETATM   13  C           1     -21.936  -8.724   0.637  0.00  0.00     0.002 A 
HETATM   14  C           1     -21.571  -9.718  -0.268  0.00  0.00     0.001 A 
HETATM   15  C           1     -21.460  -9.435  -1.633  0.00  0.00     0.014 A 
ENDBRANCH   5   6
ENDBRANCH   1   5
BRANCH   1  16
HETATM   16  N           1     -20.291  -7.062  -6.542  0.00  0.00    -0.345 N 
HETATM   17  H           1     -20.351  -7.689  -7.333  0.00  0.00     0.163 HD
HETATM   18  C           1     -20.420  -5.711  -6.729  0.00  0.00     0.243 C 
HETATM   19  O           1     -19.445  -5.036  -6.954  0.00  0.00    -0.272 OA
BRANCH  18  20
HETATM   20  C           1     -21.783  -5.067  -6.655  0.00  0.00     0.332 C 
BRANCH  20  21
HETATM   21  N           1     -21.721  -3.693  -7.254  0.00  0.00    -0.071 N 
HETATM   22  H           1     -21.421  -3.007  -6.523  0.00  0.00     0.274 HD
HETATM   23  H           1     -21.031  -3.687  -8.039  0.00  0.00     0.274 HD
HETATM   24  H           1     -22.664  -3.428  -7.615  0.00  0.00     0.274 HD
ENDBRANCH  20  21
ENDBRANCH  18  20
ENDBRANCH   1  16
TORSDOF 6
ENDMDL
MODEL 4
REMARK VINA RESULT:      -6.6     14.027     16.610
REMARK  6 active torsions:
REMARK  status: ('A' for Active; 'I' for Inactive)
REMARK    1  A    between atoms: C_2  and  C_4 
REMARK    2  A    between atoms: C_4  and  C_22 
REMARK    3  A    between atoms: C_4  and  N_12 
REMARK    4  A    between atoms: N_5  and  C_8 
REMARK    5  A    between atoms: C_8  and  C_9 
REMARK       I    between atoms: C_9  and  N_12 
REMARK    6  A    between atoms: C_21  and  C_22 
ROOT
HETATM    1  C           1     -36.073  -0.581 -12.620  0.00  0.00     0.190 C 
ENDROOT
BRANCH   1   2
HETATM    2  C           1     -36.805   0.165 -11.531  0.00  0.00     0.197 C 
HETATM    3  O           1     -38.053   0.136 -11.484  0.00  0.00    -0.646 OA
HETATM    4  O           1     -36.161   0.814 -10.678  0.00  0.00    -0.646 OA
ENDBRANCH   1   2
BRANCH   1   5
HETATM    5  C           1     -34.779  -1.157 -12.061  0.00  0.00     0.077 C 
BRANCH   5   6
HETATM    6  C           1     -35.050  -2.499 -11.454  0.00  0.00    -0.028 A 
HETATM    7  C           1     -36.194  -2.871 -10.785  0.00  0.00     0.096 A 
HETATM    8  N           1     -36.043  -4.173 -10.391  0.00  0.00    -0.365 N 
HETATM    9  H           1     -36.758  -4.726  -9.857  0.00  0.00     0.165 HD
HETATM   10  C           1     -34.817  -4.655 -10.793  0.00  0.00     0.042 A 
HETATM   11  C           1     -34.237  -5.916 -10.615  0.00  0.00     0.030 A 
HETATM   12  C           1     -34.171  -3.617 -11.467  0.00  0.00    -0.002 A 
HETATM   13  C           1     -32.958  -6.119 -11.142  0.00  0.00     0.002 A 
HETATM   14  C           1     -32.289  -5.102 -11.819  0.00  0.00     0.001 A 
HETATM   15  C           1     -32.883  -3.847 -11.989  0.00  0.00     0.014 A 
ENDBRANCH   5   6
ENDBRANCH   1   5
BRANCH   1  16
HETATM   16  N           1     -35.767   0.329 -13.706  0.00  0.00    -0.345 N 
HETATM   17  H           1     -35.166   1.127 -13.545  0.00  0.00     0.163 HD
HETATM   18  C           1     -36.291   0.108 -14.952  0.00  0.00     0.243 C 
HETATM   19  O           1     -37.357   0.590 -15.253  0.00  0.00    -0.272 OA
BRANCH  18  20
HETATM   20  C           1     -35.536  -0.735 -15.950  0.00  0.00     0.332 C 
BRANCH  20  21
HETATM   21  N           1     -36.302  -0.794 -17.238  0.00  0.00    -0.071 N 
HETATM   22  H           1     -35.747  -0.335 -17.996  0.00  0.00     0.274 HD
HETATM   23  H           1     -36.479  -1.792 -17.492  0.00  0.00     0.274 HD
HETATM   24  H           1     -37.213  -0.295 -17.123  0.00  0.00     0.274 HD
ENDBRANCH  20  21
ENDBRANCH  18  20
ENDBRANCH   1  16
TORSDOF 6
ENDMDL
MODEL 5
REMARK VINA RESULT:      -6.4      1.644      2.258
REMARK  6 active torsions:
REMARK  status: ('A' for Active; 'I' for Inactive)
REMARK    1  A    between atoms: C_2  and  C_4 
REMARK    2  A    between atoms: C_4  and  C_22 
REMARK    3  A    between atoms: C_4  and  N_12 
REMARK    4  A    between atoms: N_5  and  C_8 
REMARK    5  A    between atoms: C_8  and  C_9 
REMARK       I    between atoms: C_9  and  N_12 
REMARK    6  A    between atoms: C_21  and  C_22 
ROOT
HETATM    1  C           1     -21.738  -6.566  -5.271  0.00  0.00     0.190 C 
ENDROOT
BRANCH   1   2
HETATM    2  C           1     -20.881  -7.807  -5.308  0.00  0.00     0.197 C 
HETATM    3  O           1     -19.691  -7.756  -4.933  0.00  0.00    -0.646 OA
HETATM    4  O           1     -21.362  -8.887  -5.717  0.00  0.00    -0.646 OA
ENDBRANCH   1   2
BRANCH   1   5
HETATM    5  C           1     -20.847  -5.332  -5.253  0.00  0.00     0.077 C 
BRANCH   5   6
HETATM    6  C           1     -20.562  -4.899  -6.659  0.00  0.00    -0.028 A 
HETATM    7  C           1     -19.318  -4.790  -7.237  0.00  0.00     0.096 A 
HETATM    8  N           1     -19.494  -4.367  -8.528  0.00  0.00    -0.365 N 
HETATM    9  H           1     -18.718  -4.194  -9.214  0.00  0.00     0.165 HD
HETATM   10  C           1     -20.834  -4.199  -8.797  0.00  0.00     0.042 A 
HETATM   11  C           1     -21.476  -3.785  -9.969  0.00  0.00     0.030 A 
HETATM   12  C           1     -21.529  -4.529  -7.633  0.00  0.00    -0.002 A 
HETATM   13  C           1     -22.873  -3.706  -9.948  0.00  0.00     0.002 A 
HETATM   14  C           1     -23.593  -4.030  -8.800  0.00  0.00     0.001 A 
HETATM   15  C           1     -22.935  -4.442  -7.636  0.00  0.00     0.014 A 
ENDBRANCH   5   6
ENDBRANCH   1   5
BRANCH   1  16
HETATM   16  N           1     -22.562  -6.584  -4.079  0.00  0.00    -0.345 N 
HETATM   17  H           1     -23.570  -6.596  -4.160  0.00  0.00     0.163 HD
HETATM   18  C           1     -21.976  -6.583  -2.841  0.00  0.00     0.243 C 
HETATM   19  O           1     -21.732  -5.538  -2.289  0.00  0.00    -0.272 OA
BRANCH  18  20
HETATM   20  C           1     -21.636  -7.890  -2.167  0.00  0.00     0.332 C 
BRANCH  20  21
HETATM   21  N           1     -20.174  -7.917  -1.835  0.00  0.00    -0.071 N 
HETATM   22  H           1     -19.661  -7.260  -2.465  0.00  0.00     0.274 HD
HETATM   23  H           1     -20.038  -7.623  -0.841  0.00  0.00     0.274 HD
HETATM   24  H           1     -19.805  -8.886  -1.967  0.00  0.00     0.274 HD
ENDBRANCH  20  21
ENDBRANCH  18  20
ENDBRANCH   1  16
TORSDOF 6
ENDMDL
MODEL 6
REMARK VINA RESULT:      -6.4      2.268      3.627
REMARK  6 active torsions:
REMARK  status: ('A' for Active; 'I' for Inactive)
REMARK    1  A    between atoms: C_2  and  C_4 
REMARK    2  A    between atoms: C_4  and  C_22 
REMARK    3  A    between atoms: C_4  and  N_12 
REMARK    4  A    between atoms: N_5  and  C_8 
REMARK    5  A    between atoms: C_8  and  C_9 
REMARK       I    between atoms: C_9  and  N_12 
REMARK    6  A    between atoms: C_21  and  C_22 
ROOT
HETATM    1  C           1     -21.457  -7.342  -3.982  0.00  0.00     0.190 C 
ENDROOT
BRANCH   1   2
HETATM    2  C           1     -21.587  -6.860  -2.558  0.00  0.00     0.197 C 
HETATM    3  O           1     -20.853  -7.338  -1.667  0.00  0.00    -0.646 OA
HETATM    4  O           1     -22.430  -5.982  -2.271  0.00  0.00    -0.646 OA
ENDBRANCH   1   2
BRANCH   1   5
HETATM    5  C           1     -22.188  -6.385  -4.913  0.00  0.00     0.077 C 
BRANCH   5   6
HETATM    6  C           1     -21.318  -6.070  -6.091  0.00  0.00    -0.028 A 
HETATM    7  C           1     -20.037  -6.527  -6.298  0.00  0.00     0.096 A 
HETATM    8  N           1     -19.596  -6.011  -7.487  0.00  0.00    -0.365 N 
HETATM    9  H           1     -18.649  -6.188  -7.905  0.00  0.00     0.165 HD
HETATM   10  C           1     -20.572  -5.224  -8.057  0.00  0.00     0.042 A 
HETATM   11  C           1     -20.568  -4.503  -9.257  0.00  0.00     0.030 A 
HETATM   12  C           1     -21.669  -5.245  -7.195  0.00  0.00    -0.002 A 
HETATM   13  C           1     -21.722  -3.783  -9.582  0.00  0.00     0.002 A 
HETATM   14  C           1     -22.832  -3.786  -8.741  0.00  0.00     0.001 A 
HETATM   15  C           1     -22.820  -4.512  -7.545  0.00  0.00     0.014 A 
ENDBRANCH   5   6
ENDBRANCH   1   5
BRANCH   1  16
HETATM   16  N           1     -22.036  -8.666  -4.098  0.00  0.00    -0.345 N 
HETATM   17  H           1     -23.041  -8.778  -4.125  0.00  0.00     0.163 HD
HETATM   18  C           1     -21.223  -9.765  -4.170  0.00  0.00     0.243 C 
HETATM   19  O           1     -20.884 -10.333  -3.160  0.00  0.00    -0.272 OA
BRANCH  18  20
HETATM   20  C           1     -20.752 -10.268  -5.513  0.00  0.00     0.332 C 
BRANCH  20  21
HETATM   21  N           1     -19.319  -9.876  -5.720  0.00  0.00    -0.071 N 
HETATM   22  H           1     -18.885 -10.503  -6.434  0.00  0.00     0.274 HD
HETATM   23  H           1     -19.274  -8.886  -6.053  0.00  0.00     0.274 HD
HETATM   24  H           1     -18.800  -9.964  -4.817  0.00  0.00     0.274 HD
ENDBRANCH  20  21
ENDBRANCH  18  20
ENDBRANCH   1  16
TORSDOF 6
ENDMDL
MODEL 7
REMARK VINA RESULT:      -6.3     14.450     17.136
REMARK  6 active torsions:
REMARK  status: ('A' for Active; 'I' for Inactive)
REMARK    1  A    between atoms: C_2  and  C_4 
REMARK    2  A    between atoms: C_4  and  C_22 
REMARK    3  A    between atoms: C_4  and  N_12 
REMARK    4  A    between atoms: N_5  and  C_8 
REMARK    5  A    between atoms: C_8  and  C_9 
REMARK       I    between atoms: C_9  and  N_12 
REMARK    6  A    between atoms: C_21  and  C_22 
ROOT
HETATM    1  C           1     -36.761  -0.560 -13.238  0.00  0.00     0.190 C 
ENDROOT
BRANCH   1   2
HETATM    2  C           1     -37.046  -0.230 -11.794  0.00  0.00     0.197 C 
HETATM    3  O           1     -38.073  -0.677 -11.241  0.00  0.00    -0.646 OA
HETATM    4  O           1     -36.254   0.492 -11.150  0.00  0.00    -0.646 OA
ENDBRANCH   1   2
BRANCH   1   5
HETATM    5  C           1     -35.255  -0.581 -13.468  0.00  0.00     0.077 C 
BRANCH   5   6
HETATM    6  C           1     -34.775  -1.998 -13.513  0.00  0.00    -0.028 A 
HETATM    7  C           1     -34.596  -2.759 -14.647  0.00  0.00     0.096 A 
HETATM    8  N           1     -34.148  -3.992 -14.256  0.00  0.00    -0.365 N 
HETATM    9  H           1     -33.924  -4.785 -14.907  0.00  0.00     0.165 HD
HETATM   10  C           1     -34.033  -4.046 -12.885  0.00  0.00     0.042 A 
HETATM   11  C           1     -33.617  -5.090 -12.051  0.00  0.00     0.030 A 
HETATM   12  C           1     -34.423  -2.799 -12.393  0.00  0.00    -0.002 A 
HETATM   13  C           1     -33.601  -4.851 -10.673  0.00  0.00     0.002 A 
HETATM   14  C           1     -33.985  -3.616 -10.154  0.00  0.00     0.001 A 
HETATM   15  C           1     -34.398  -2.582 -11.001  0.00  0.00     0.014 A 
ENDBRANCH   5   6
ENDBRANCH   1   5
BRANCH   1  16
HETATM   16  N           1     -37.366   0.444 -14.091  0.00  0.00    -0.345 N 
HETATM   17  H           1     -38.074   1.064 -13.720  0.00  0.00     0.163 HD
HETATM   18  C           1     -36.980   0.552 -15.401  0.00  0.00     0.243 C 
HETATM   19  O           1     -37.554  -0.082 -16.254  0.00  0.00    -0.272 OA
BRANCH  18  20
HETATM   20  C           1     -35.840   1.465 -15.778  0.00  0.00     0.332 C 
BRANCH  20  21
HETATM   21  N           1     -36.384   2.713 -16.406  0.00  0.00    -0.071 N 
HETATM   22  H           1     -36.397   2.604 -17.446  0.00  0.00     0.274 HD
HETATM   23  H           1     -37.358   2.879 -16.063  0.00  0.00     0.274 HD
HETATM   24  H           1     -35.779   3.525 -16.148  0.00  0.00     0.274 HD
ENDBRANCH  20  21
ENDBRANCH  18  20
ENDBRANCH   1  16
TORSDOF 6
ENDMDL
MODEL 8
REMARK VINA RESULT:      -6.2      4.799      8.486
REMARK  6 active torsions:
REMARK  status: ('A' for Active; 'I' for Inactive)
REMARK    1  A    between atoms: C_2  and  C_4 
REMARK    2  A    between atoms: C_4  and  C_22 
REMARK    3  A    between atoms: C_4  and  N_12 
REMARK    4  A    between atoms: N_5  and  C_8 
REMARK    5  A    between atoms: C_8  and  C_9 
REMARK       I    between atoms: C_9  and  N_12 
REMARK    6  A    between atoms: C_21  and  C_22 
ROOT
HETATM    1  C           1     -21.240  -7.855  -3.000  0.00  0.00     0.190 C 
ENDROOT
BRANCH   1   2
HETATM    2  C           1     -21.718  -6.424  -3.036  0.00  0.00     0.197 C 
HETATM    3  O           1     -21.375  -5.674  -3.974  0.00  0.00    -0.646 OA
HETATM    4  O           1     -22.456  -5.990  -2.125  0.00  0.00    -0.646 OA
ENDBRANCH   1   2
BRANCH   1   5
HETATM    5  C           1     -20.535  -8.124  -1.677  0.00  0.00     0.077 C 
BRANCH   5   6
HETATM    6  C           1     -20.647  -9.578  -1.337  0.00  0.00    -0.028 A 
HETATM    7  C           1     -19.656 -10.522  -1.478  0.00  0.00     0.096 A 
HETATM    8  N           1     -20.161 -11.724  -1.057  0.00  0.00    -0.365 N 
HETATM    9  H           1     -19.629 -12.630  -1.050  0.00  0.00     0.165 HD
HETATM   10  C           1     -21.466 -11.575  -0.645  0.00  0.00     0.042 A 
HETATM   11  C           1     -22.370 -12.518  -0.142  0.00  0.00     0.030 A 
HETATM   12  C           1     -21.797 -10.230  -0.812  0.00  0.00    -0.002 A 
HETATM   13  C           1     -23.650 -12.069   0.199  0.00  0.00     0.002 A 
HETATM   14  C           1     -24.008 -10.732   0.043  0.00  0.00     0.001 A 
HETATM   15  C           1     -23.092  -9.802  -0.461  0.00  0.00     0.014 A 
ENDBRANCH   5   6
ENDBRANCH   1   5
BRANCH   1  16
HETATM   16  N           1     -20.316  -8.082  -4.094  0.00  0.00    -0.345 N 
HETATM   17  H           1     -19.387  -7.684  -4.064  0.00  0.00     0.163 HD
HETATM   18  C           1     -20.702  -8.837  -5.170  0.00  0.00     0.243 C 
HETATM   19  O           1     -21.224  -8.309  -6.122  0.00  0.00    -0.272 OA
BRANCH  18  20
HETATM   20  C           1     -20.472 -10.329  -5.166  0.00  0.00     0.332 C 
BRANCH  20  21
HETATM   21  N           1     -21.130 -10.940  -6.368  0.00  0.00    -0.071 N 
HETATM   22  H           1     -21.943 -10.350  -6.658  0.00  0.00     0.274 HD
HETATM   23  H           1     -20.441 -10.992  -7.152  0.00  0.00     0.274 HD
HETATM   24  H           1     -21.463 -11.901  -6.131  0.00  0.00     0.274 HD
ENDBRANCH  20  21
ENDBRANCH  18  20
ENDBRANCH   1  16
TORSDOF 6
ENDMDL
MODEL 9
REMARK VINA RESULT:      -6.2      4.461      6.813
REMARK  6 active torsions:
REMARK  status: ('A' for Active; 'I' for Inactive)
REMARK    1  A    between atoms: C_2  and  C_4 
REMARK    2  A    between atoms: C_4  and  C_22 
REMARK    3  A    between atoms: C_4  and  N_12 
REMARK    4  A    between atoms: N_5  and  C_8 
REMARK    5  A    between atoms: C_8  and  C_9 
REMARK       I    between atoms: C_9  and  N_12 
REMARK    6  A    between atoms: C_21  and  C_22 
ROOT
HETATM    1  C           1     -21.373  -8.759  -1.867  0.00  0.00     0.190 C 
ENDROOT
BRANCH   1   2
HETATM    2  C           1     -22.128  -9.013  -0.586  0.00  0.00     0.197 C 
HETATM    3  O           1     -21.884  -8.329   0.430  0.00  0.00    -0.646 OA
HETATM    4  O           1     -22.997  -9.912  -0.541  0.00  0.00    -0.646 OA
ENDBRANCH   1   2
BRANCH   1   5
HETATM    5  C           1     -20.145  -9.657  -1.923  0.00  0.00     0.077 C 
BRANCH   5   6
HETATM    6  C           1     -19.650  -9.742  -3.334  0.00  0.00    -0.028 A 
HETATM    7  C           1     -20.432  -9.843  -4.462  0.00  0.00     0.096 A 
HETATM    8  N           1     -19.596  -9.895  -5.546  0.00  0.00    -0.365 N 
HETATM    9  H           1     -19.910  -9.974  -6.544  0.00  0.00     0.165 HD
HETATM   10  C           1     -18.282  -9.830  -5.138  0.00  0.00     0.042 A 
HETATM   11  C           1     -17.100  -9.849  -5.888  0.00  0.00     0.030 A 
HETATM   12  C           1     -18.290  -9.733  -3.746  0.00  0.00    -0.002 A 
HETATM   13  C           1     -15.891  -9.767  -5.189  0.00  0.00     0.002 A 
HETATM   14  C           1     -15.868  -9.669  -3.800  0.00  0.00     0.001 A 
HETATM   15  C           1     -17.059  -9.651  -3.066  0.00  0.00     0.014 A 
ENDBRANCH   5   6
ENDBRANCH   1   5
BRANCH   1  16
HETATM   16  N           1     -20.958  -7.370  -1.915  0.00  0.00    -0.345 N 
HETATM   17  H           1     -20.136  -7.070  -1.409  0.00  0.00     0.163 HD
HETATM   18  C           1     -21.681  -6.465  -2.646  0.00  0.00     0.243 C 
HETATM   19  O           1     -22.589  -5.860  -2.130  0.00  0.00    -0.272 OA
BRANCH  18  20
HETATM   20  C           1     -21.340  -6.222  -4.096  0.00  0.00     0.332 C 
BRANCH  20  21
HETATM   21  N           1     -22.599  -6.206  -4.911  0.00  0.00    -0.071 N 
HETATM   22  H           1     -22.464  -5.598  -5.750  0.00  0.00     0.274 HD
HETATM   23  H           1     -22.825  -7.179  -5.219  0.00  0.00     0.274 HD
HETATM   24  H           1     -23.384  -5.832  -4.331  0.00  0.00     0.274 HD
ENDBRANCH  20  21
ENDBRANCH  18  20
ENDBRANCH   1  16
TORSDOF 6
ENDMDL
