MODEL 1
REMARK VINA RESULT:      -6.4      0.000      0.000
REMARK  10 active torsions:
REMARK  status: ('A' for Active; 'I' for Inactive)
REMARK    1  A    between atoms: C_2  and  C_4 
REMARK    2  A    between atoms: C_4  and  C_5 
REMARK    3  A    between atoms: C_5  and  C_6 
REMARK    4  A    between atoms: C_5  and  N_9 
REMARK       I    between atoms: N_9  and  C_10 
REMARK    5  A    between atoms: C_10  and  C_11 
REMARK    6  A    between atoms: C_11  and  C_12 
REMARK    7  A    between atoms: C_11  and  N_18 
REMARK    8  A    between atoms: C_12  and  O_13 
REMARK    9  A    between atoms: O_13  and  P_14 
REMARK   10  A    between atoms: P_14  and  O_15 
ROOT
HETATM    1  N           1     -22.408  -5.464  -7.011  0.00  0.00    -0.345 N 
HETATM    2  C           1     -22.490  -4.332  -7.776  0.00  0.00     0.251 C 
HETATM    3  O           1     -21.883  -3.338  -7.451  0.00  0.00    -0.271 OA
HETATM    4  H           1     -22.916  -6.296  -7.282  0.00  0.00     0.163 HD
ENDROOT
BRANCH   2   5
HETATM    5  C           1     -23.338  -4.324  -9.024  0.00  0.00     0.298 C 
BRANCH   5   6
HETATM    6  C           1     -22.457  -4.048 -10.235  0.00  0.00     0.224 C 
BRANCH   6   7
HETATM    7  O           1     -22.958  -2.943 -10.937  0.00  0.00    -0.287 OA
BRANCH   7   8
HETATM    8  P           1     -23.778  -3.274 -12.288  0.00  0.00     0.406 P 
HETATM    9  O           1     -23.271  -2.429 -13.392  0.00  0.00    -0.624 OA
HETATM   10  O           1     -25.216  -2.997 -12.073  0.00  0.00    -0.624 OA
BRANCH   8  11
HETATM   11  O           1     -23.582  -4.831 -12.669  0.00  0.00    -0.300 OA
HETATM   12  H           1     -23.057  -4.826 -13.452  0.00  0.00     0.223 HD
ENDBRANCH   8  11
ENDBRANCH   7   8
ENDBRANCH   6   7
ENDBRANCH   5   6
BRANCH   5  13
HETATM   13  N           1     -24.382  -3.252  -8.912  0.00  0.00    -0.064 N 
HETATM   14  H           1     -24.266  -2.746  -8.004  0.00  0.00     0.275 HD
HETATM   15  H           1     -24.273  -2.578  -9.702  0.00  0.00     0.275 HD
HETATM   16  H           1     -25.332  -3.687  -8.950  0.00  0.00     0.275 HD
ENDBRANCH   5  13
ENDBRANCH   2   5
BRANCH   1  17
HETATM   17  C           1     -21.593  -5.471  -5.811  0.00  0.00     0.185 C 
BRANCH  17  18
HETATM   18  C           1     -22.038  -6.610  -4.903  0.00  0.00     0.040 C 
BRANCH  18  19
HETATM   19  C           1     -21.194  -6.609  -3.636  0.00  0.00    -0.020 C 
HETATM   20  C           1     -22.045  -6.149  -2.460  0.00  0.00     0.009 C 
HETATM   21  C           1     -20.678  -8.017  -3.369  0.00  0.00     0.009 C 
ENDBRANCH  18  19
ENDBRANCH  17  18
BRANCH  17  22
HETATM   22  C           1     -20.145  -5.664  -6.189  0.00  0.00     0.196 C 
HETATM   23  O           1     -19.312  -4.762  -5.956  0.00  0.00    -0.646 OA
HETATM   24  O           1     -19.778  -6.726  -6.737  0.00  0.00    -0.646 OA
ENDBRANCH  17  22
ENDBRANCH   1  17
TORSDOF 10
ENDMDL
MODEL 2
REMARK VINA RESULT:      -6.2      2.990      7.084
REMARK  10 active torsions:
REMARK  status: ('A' for Active; 'I' for Inactive)
REMARK    1  A    between atoms: C_2  and  C_4 
REMARK    2  A    between atoms: C_4  and  C_5 
REMARK    3  A    between atoms: C_5  and  C_6 
REMARK    4  A    between atoms: C_5  and  N_9 
REMARK       I    between atoms: N_9  and  C_10 
REMARK    5  A    between atoms: C_10  and  C_11 
REMARK    6  A    between atoms: C_11  and  C_12 
REMARK    7  A    between atoms: C_11  and  N_18 
REMARK    8  A    between atoms: C_12  and  O_13 
REMARK    9  A    between atoms: O_13  and  P_14 
REMARK   10  A    between atoms: P_14  and  O_15 
ROOT
HETATM    1  N           1     -23.186  -4.374  -8.673  0.00  0.00    -0.345 N 
HETATM    2  C           1     -22.221  -4.114  -7.738  0.00  0.00     0.251 C 
HETATM    3  O           1     -21.343  -3.319  -7.982  0.00  0.00    -0.271 OA
HETATM    4  H           1     -23.921  -5.039  -8.471  0.00  0.00     0.163 HD
ENDROOT
BRANCH   2   5
HETATM    5  C           1     -22.253  -4.818  -6.405  0.00  0.00     0.298 C 
BRANCH   5   6
HETATM    6  C           1     -21.259  -5.973  -6.417  0.00  0.00     0.224 C 
BRANCH   6   7
HETATM    7  O           1     -20.645  -6.075  -5.162  0.00  0.00    -0.287 OA
BRANCH   7   8
HETATM    8  P           1     -21.404  -6.996  -4.074  0.00  0.00     0.406 P 
HETATM    9  O           1     -20.405  -7.674  -3.218  0.00  0.00    -0.624 OA
HETATM   10  O           1     -22.225  -8.010  -4.773  0.00  0.00    -0.624 OA
BRANCH   8  11
HETATM   11  O           1     -22.358  -6.071  -3.156  0.00  0.00    -0.300 OA
HETATM   12  H           1     -21.888  -5.260  -3.057  0.00  0.00     0.223 HD
ENDBRANCH   8  11
ENDBRANCH   7   8
ENDBRANCH   6   7
ENDBRANCH   5   6
BRANCH   5  13
HETATM   13  N           1     -23.633  -5.351  -6.154  0.00  0.00    -0.064 N 
HETATM   14  H           1     -24.326  -4.572  -6.227  0.00  0.00     0.275 HD
HETATM   15  H           1     -23.858  -6.083  -6.865  0.00  0.00     0.275 HD
HETATM   16  H           1     -23.676  -5.768  -5.197  0.00  0.00     0.275 HD
ENDBRANCH   5  13
ENDBRANCH   2   5
BRANCH   1  17
HETATM   17  C           1     -23.156  -3.696  -9.956  0.00  0.00     0.185 C 
BRANCH  17  18
HETATM   18  C           1     -22.650  -4.656 -11.025  0.00  0.00     0.040 C 
BRANCH  18  19
HETATM   19  C           1     -21.345  -4.127 -11.605  0.00  0.00    -0.020 C 
HETATM   20  C           1     -21.345  -2.605 -11.549  0.00  0.00     0.009 C 
HETATM   21  C           1     -20.174  -4.665 -10.794  0.00  0.00     0.009 C 
ENDBRANCH  18  19
ENDBRANCH  17  18
BRANCH  17  22
HETATM   22  C           1     -24.548  -3.233 -10.312  0.00  0.00     0.196 C 
HETATM   23  O           1     -25.334  -2.868  -9.412  0.00  0.00    -0.646 OA
HETATM   24  O           1     -24.913  -3.216 -11.506  0.00  0.00    -0.646 OA
ENDBRANCH  17  22
ENDBRANCH   1  17
TORSDOF 10
ENDMDL
MODEL 3
REMARK VINA RESULT:      -6.2      1.837      2.651
REMARK  10 active torsions:
REMARK  status: ('A' for Active; 'I' for Inactive)
REMARK    1  A    between atoms: C_2  and  C_4 
REMARK    2  A    between atoms: C_4  and  C_5 
REMARK    3  A    between atoms: C_5  and  C_6 
REMARK    4  A    between atoms: C_5  and  N_9 
REMARK       I    between atoms: N_9  and  C_10 
REMARK    5  A    between atoms: C_10  and  C_11 
REMARK    6  A    between atoms: C_11  and  C_12 
REMARK    7  A    between atoms: C_11  and  N_18 
REMARK    8  A    between atoms: C_12  and  O_13 
REMARK    9  A    between atoms: O_13  and  P_14 
REMARK   10  A    between atoms: P_14  and  O_15 
ROOT
HETATM    1  N           1     -21.051  -6.235  -6.368  0.00  0.00    -0.345 N 
HETATM    2  C           1     -20.699  -4.919  -6.503  0.00  0.00     0.251 C 
HETATM    3  O           1     -20.026  -4.384  -5.654  0.00  0.00    -0.271 OA
HETATM    4  H           1     -21.614  -6.684  -7.079  0.00  0.00     0.163 HD
ENDROOT
BRANCH   2   5
HETATM    5  C           1     -21.150  -4.138  -7.712  0.00  0.00     0.298 C 
BRANCH   5   6
HETATM    6  C           1     -22.575  -4.536  -8.072  0.00  0.00     0.224 C 
BRANCH   6   7
HETATM    7  O           1     -23.235  -3.443  -8.650  0.00  0.00    -0.287 OA
BRANCH   7   8
HETATM    8  P           1     -24.110  -3.762  -9.970  0.00  0.00     0.406 P 
HETATM    9  O           1     -24.063  -5.214 -10.254  0.00  0.00    -0.624 OA
HETATM   10  O           1     -23.557  -3.015 -11.121  0.00  0.00    -0.624 OA
BRANCH   8  11
HETATM   11  O           1     -25.641  -3.312  -9.723  0.00  0.00    -0.300 OA
HETATM   12  H           1     -26.038  -4.036  -9.268  0.00  0.00     0.223 HD
ENDBRANCH   8  11
ENDBRANCH   7   8
ENDBRANCH   6   7
ENDBRANCH   5   6
BRANCH   5  13
HETATM   13  N           1     -20.242  -4.436  -8.868  0.00  0.00    -0.064 N 
HETATM   14  H           1     -19.448  -5.033  -8.543  0.00  0.00     0.275 HD
HETATM   15  H           1     -20.777  -4.944  -9.608  0.00  0.00     0.275 HD
HETATM   16  H           1     -19.868  -3.541  -9.257  0.00  0.00     0.275 HD
ENDBRANCH   5  13
ENDBRANCH   2   5
BRANCH   1  17
HETATM   17  C           1     -20.617  -6.987  -5.206  0.00  0.00     0.185 C 
BRANCH  17  18
HETATM   18  C           1     -21.747  -7.041  -4.186  0.00  0.00     0.040 C 
BRANCH  18  19
HETATM   19  C           1     -21.189  -6.778  -2.795  0.00  0.00    -0.020 C 
HETATM   20  C           1     -22.260  -6.121  -1.934  0.00  0.00     0.009 C 
HETATM   21  C           1     -20.766  -8.096  -2.160  0.00  0.00     0.009 C 
ENDBRANCH  18  19
ENDBRANCH  17  18
BRANCH  17  22
HETATM   22  C           1     -20.247  -8.389  -5.624  0.00  0.00     0.196 C 
HETATM   23  O           1     -19.050  -8.687  -5.820  0.00  0.00    -0.646 OA
HETATM   24  O           1     -21.139  -9.251  -5.776  0.00  0.00    -0.646 OA
ENDBRANCH  17  22
ENDBRANCH   1  17
TORSDOF 10
ENDMDL
MODEL 4
REMARK VINA RESULT:      -5.8      5.471      7.281
REMARK  10 active torsions:
REMARK  status: ('A' for Active; 'I' for Inactive)
REMARK    1  A    between atoms: C_2  and  C_4 
REMARK    2  A    between atoms: C_4  and  C_5 
REMARK    3  A    between atoms: C_5  and  C_6 
REMARK    4  A    between atoms: C_5  and  N_9 
REMARK       I    between atoms: N_9  and  C_10 
REMARK    5  A    between atoms: C_10  and  C_11 
REMARK    6  A    between atoms: C_11  and  C_12 
REMARK    7  A    between atoms: C_11  and  N_18 
REMARK    8  A    between atoms: C_12  and  O_13 
REMARK    9  A    between atoms: O_13  and  P_14 
REMARK   10  A    between atoms: P_14  and  O_15 
ROOT
HETATM    1  N           1     -21.179  -9.128  -2.039  0.00  0.00    -0.345 N 
HETATM    2  C           1     -21.416  -9.679  -3.270  0.00  0.00     0.251 C 
HETATM    3  O           1     -22.469 -10.228  -3.493  0.00  0.00    -0.271 OA
HETATM    4  H           1     -20.297  -8.668  -1.851  0.00  0.00     0.163 HD
ENDROOT
BRANCH   2   5
HETATM    5  C           1     -20.361  -9.602  -4.346  0.00  0.00     0.298 C 
BRANCH   5   6
HETATM    6  C           1     -19.828  -8.179  -4.434  0.00  0.00     0.224 C 
BRANCH   6   7
HETATM    7  O           1     -20.849  -7.274  -4.114  0.00  0.00    -0.287 OA
BRANCH   7   8
HETATM    8  P           1     -21.307  -6.274  -5.296  0.00  0.00     0.406 P 
HETATM    9  O           1     -20.565  -4.999  -5.178  0.00  0.00    -0.624 OA
HETATM   10  O           1     -22.760  -6.013  -5.187  0.00  0.00    -0.624 OA
BRANCH   8  11
HETATM   11  O           1     -20.988  -6.951  -6.727  0.00  0.00    -0.300 OA
HETATM   12  H           1     -20.171  -6.570  -7.001  0.00  0.00     0.223 HD
ENDBRANCH   8  11
ENDBRANCH   7   8
ENDBRANCH   6   7
ENDBRANCH   5   6
BRANCH   5  13
HETATM   13  N           1     -20.964  -9.992  -5.664  0.00  0.00    -0.064 N 
HETATM   14  H           1     -20.224 -10.402  -6.278  0.00  0.00     0.275 HD
HETATM   15  H           1     -21.716 -10.699  -5.506  0.00  0.00     0.275 HD
HETATM   16  H           1     -21.369  -9.146  -6.124  0.00  0.00     0.275 HD
ENDBRANCH   5  13
ENDBRANCH   2   5
BRANCH   1  17
HETATM   17  C           1     -22.193  -9.202  -1.004  0.00  0.00     0.185 C 
BRANCH  17  18
HETATM   18  C           1     -21.808 -10.273   0.007  0.00  0.00     0.040 C 
BRANCH  18  19
HETATM   19  C           1     -22.657 -11.516  -0.221  0.00  0.00    -0.020 C 
HETATM   20  C           1     -22.353 -12.544   0.860  0.00  0.00     0.009 C 
HETATM   21  C           1     -24.132 -11.139  -0.164  0.00  0.00     0.009 C 
ENDBRANCH  18  19
ENDBRANCH  17  18
BRANCH  17  22
HETATM   22  C           1     -22.298  -7.866  -0.309  0.00  0.00     0.196 C 
HETATM   23  O           1     -22.635  -6.851  -0.954  0.00  0.00    -0.646 OA
HETATM   24  O           1     -22.047  -7.777   0.912  0.00  0.00    -0.646 OA
ENDBRANCH  17  22
ENDBRANCH   1  17
TORSDOF 10
ENDMDL
MODEL 5
REMARK VINA RESULT:      -5.6      4.969      8.406
REMARK  10 active torsions:
REMARK  status: ('A' for Active; 'I' for Inactive)
REMARK    1  A    between atoms: C_2  and  C_4 
REMARK    2  A    between atoms: C_4  and  C_5 
REMARK    3  A    between atoms: C_5  and  C_6 
REMARK    4  A    between atoms: C_5  and  N_9 
REMARK       I    between atoms: N_9  and  C_10 
REMARK    5  A    between atoms: C_10  and  C_11 
REMARK    6  A    between atoms: C_11  and  C_12 
REMARK    7  A    between atoms: C_11  and  N_18 
REMARK    8  A    between atoms: C_12  and  O_13 
REMARK    9  A    between atoms: O_13  and  P_14 
REMARK   10  A    between atoms: P_14  and  O_15 
ROOT
HETATM    1  N           1     -21.359  -5.563  -4.991  0.00  0.00    -0.345 N 
HETATM    2  C           1     -21.282  -6.722  -4.268  0.00  0.00     0.251 C 
HETATM    3  O           1     -21.168  -7.783  -4.837  0.00  0.00    -0.271 OA
HETATM    4  H           1     -21.455  -4.675  -4.516  0.00  0.00     0.163 HD
ENDROOT
BRANCH   2   5
HETATM    5  C           1     -21.341  -6.677  -2.761  0.00  0.00     0.298 C 
BRANCH   5   6
HETATM    6  C           1     -21.453  -8.094  -2.214  0.00  0.00     0.224 C 
BRANCH   6   7
HETATM    7  O           1     -20.868  -8.152  -0.942  0.00  0.00    -0.287 OA
BRANCH   7   8
HETATM    8  P           1     -21.837  -8.617   0.263  0.00  0.00     0.406 P 
HETATM    9  O           1     -22.248 -10.023   0.052  0.00  0.00    -0.624 OA
HETATM   10  O           1     -23.037  -7.751   0.293  0.00  0.00    -0.624 OA
BRANCH   8  11
HETATM   11  O           1     -21.049  -8.493   1.667  0.00  0.00    -0.300 OA
HETATM   12  H           1     -20.220  -8.103   1.448  0.00  0.00     0.223 HD
ENDBRANCH   8  11
ENDBRANCH   7   8
ENDBRANCH   6   7
ENDBRANCH   5   6
BRANCH   5  13
HETATM   13  N           1     -22.538  -5.881  -2.332  0.00  0.00    -0.064 N 
HETATM   14  H           1     -22.980  -5.435  -3.168  0.00  0.00     0.275 HD
HETATM   15  H           1     -23.230  -6.514  -1.871  0.00  0.00     0.275 HD
HETATM   16  H           1     -22.240  -5.139  -1.659  0.00  0.00     0.275 HD
ENDBRANCH   5  13
ENDBRANCH   2   5
BRANCH   1  17
HETATM   17  C           1     -21.302  -5.607  -6.440  0.00  0.00     0.185 C 
BRANCH  17  18
HETATM   18  C           1     -21.970  -4.363  -7.011  0.00  0.00     0.040 C 
BRANCH  18  19
HETATM   19  C           1     -22.344  -4.610  -8.466  0.00  0.00    -0.020 C 
HETATM   20  C           1     -23.740  -4.062  -8.732  0.00  0.00     0.009 C 
HETATM   21  C           1     -21.342  -3.907  -9.373  0.00  0.00     0.009 C 
ENDBRANCH  18  19
ENDBRANCH  17  18
BRANCH  17  22
HETATM   22  C           1     -19.861  -5.653  -6.885  0.00  0.00     0.196 C 
HETATM   23  O           1     -19.152  -4.626  -6.819  0.00  0.00    -0.646 OA
HETATM   24  O           1     -19.376  -6.720  -7.319  0.00  0.00    -0.646 OA
ENDBRANCH  17  22
ENDBRANCH   1  17
TORSDOF 10
ENDMDL
MODEL 6
REMARK VINA RESULT:      -5.4      5.524      7.666
REMARK  10 active torsions:
REMARK  status: ('A' for Active; 'I' for Inactive)
REMARK    1  A    between atoms: C_2  and  C_4 
REMARK    2  A    between atoms: C_4  and  C_5 
REMARK    3  A    between atoms: C_5  and  C_6 
REMARK    4  A    between atoms: C_5  and  N_9 
REMARK       I    between atoms: N_9  and  C_10 
REMARK    5  A    between atoms: C_10  and  C_11 
REMARK    6  A    between atoms: C_11  and  C_12 
REMARK    7  A    between atoms: C_11  and  N_18 
REMARK    8  A    between atoms: C_12  and  O_13 
REMARK    9  A    between atoms: O_13  and  P_14 
REMARK   10  A    between atoms: P_14  and  O_15 
ROOT
HETATM    1  N           1     -21.870 -10.269  -1.958  0.00  0.00    -0.345 N 
HETATM    2  C           1     -20.707  -9.824  -2.525  0.00  0.00     0.251 C 
HETATM    3  O           1     -19.794  -9.458  -1.822  0.00  0.00    -0.271 OA
HETATM    4  H           1     -22.635 -10.576  -2.545  0.00  0.00     0.163 HD
ENDROOT
BRANCH   2   5
HETATM    5  C           1     -20.564  -9.789  -4.026  0.00  0.00     0.298 C 
BRANCH   5   6
HETATM    6  C           1     -21.450  -8.689  -4.596  0.00  0.00     0.224 C 
BRANCH   6   7
HETATM    7  O           1     -20.849  -7.442  -4.375  0.00  0.00    -0.287 OA
BRANCH   7   8
HETATM    8  P           1     -21.281  -6.258  -5.385  0.00  0.00     0.406 P 
HETATM    9  O           1     -20.505  -5.037  -5.074  0.00  0.00    -0.624 OA
HETATM   10  O           1     -22.726  -5.979  -5.228  0.00  0.00    -0.624 OA
BRANCH   8  11
HETATM   11  O           1     -20.983  -6.712  -6.905  0.00  0.00    -0.300 OA
HETATM   12  H           1     -21.659  -6.303  -7.419  0.00  0.00     0.223 HD
ENDBRANCH   8  11
ENDBRANCH   7   8
ENDBRANCH   6   7
ENDBRANCH   5   6
BRANCH   5  13
HETATM   13  N           1     -20.982 -11.112  -4.599  0.00  0.00    -0.064 N 
HETATM   14  H           1     -21.637 -10.955  -5.398  0.00  0.00     0.275 HD
HETATM   15  H           1     -20.138 -11.626  -4.938  0.00  0.00     0.275 HD
HETATM   16  H           1     -21.461 -11.675  -3.860  0.00  0.00     0.275 HD
ENDBRANCH   5  13
ENDBRANCH   2   5
BRANCH   1  17
HETATM   17  C           1     -22.007 -10.303  -0.514  0.00  0.00     0.185 C 
BRANCH  17  18
HETATM   18  C           1     -23.177  -9.423  -0.095  0.00  0.00     0.040 C 
BRANCH  18  19
HETATM   19  C           1     -22.649  -8.129   0.510  0.00  0.00    -0.020 C 
HETATM   20  C           1     -21.328  -8.402   1.215  0.00  0.00     0.009 C 
HETATM   21  C           1     -22.433  -7.104  -0.595  0.00  0.00     0.009 C 
ENDBRANCH  18  19
ENDBRANCH  17  18
BRANCH  17  22
HETATM   22  C           1     -22.258 -11.722  -0.067  0.00  0.00     0.196 C 
HETATM   23  O           1     -23.369 -12.041   0.408  0.00  0.00    -0.646 OA
HETATM   24  O           1     -21.354 -12.578  -0.170  0.00  0.00    -0.646 OA
ENDBRANCH  17  22
ENDBRANCH   1  17
TORSDOF 10
ENDMDL
MODEL 7
REMARK VINA RESULT:      -5.3      3.996      6.106
REMARK  10 active torsions:
REMARK  status: ('A' for Active; 'I' for Inactive)
REMARK    1  A    between atoms: C_2  and  C_4 
REMARK    2  A    between atoms: C_4  and  C_5 
REMARK    3  A    between atoms: C_5  and  C_6 
REMARK    4  A    between atoms: C_5  and  N_9 
REMARK       I    between atoms: N_9  and  C_10 
REMARK    5  A    between atoms: C_10  and  C_11 
REMARK    6  A    between atoms: C_11  and  C_12 
REMARK    7  A    between atoms: C_11  and  N_18 
REMARK    8  A    between atoms: C_12  and  O_13 
REMARK    9  A    between atoms: O_13  and  P_14 
REMARK   10  A    between atoms: P_14  and  O_15 
ROOT
HETATM    1  N           1     -21.381  -9.104  -2.747  0.00  0.00    -0.345 N 
HETATM    2  C           1     -21.314  -7.809  -3.185  0.00  0.00     0.251 C 
HETATM    3  O           1     -20.911  -6.941  -2.447  0.00  0.00    -0.271 OA
HETATM    4  H           1     -21.719  -9.831  -3.364  0.00  0.00     0.163 HD
ENDROOT
BRANCH   2   5
HETATM    5  C           1     -21.745  -7.465  -4.589  0.00  0.00     0.298 C 
BRANCH   5   6
HETATM    6  C           1     -20.514  -7.241  -5.459  0.00  0.00     0.224 C 
BRANCH   6   7
HETATM    7  O           1     -20.914  -6.908  -6.760  0.00  0.00    -0.287 OA
BRANCH   7   8
HETATM    8  P           1     -20.809  -5.346  -7.155  0.00  0.00     0.406 P 
HETATM    9  O           1     -22.167  -4.803  -7.387  0.00  0.00    -0.624 OA
HETATM   10  O           1     -20.003  -5.202  -8.388  0.00  0.00    -0.624 OA
BRANCH   8  11
HETATM   11  O           1     -20.103  -4.532  -5.952  0.00  0.00    -0.300 OA
HETATM   12  H           1     -20.348  -3.632  -6.090  0.00  0.00     0.223 HD
ENDBRANCH   8  11
ENDBRANCH   7   8
ENDBRANCH   6   7
ENDBRANCH   5   6
BRANCH   5  13
HETATM   13  N           1     -22.573  -6.213  -4.566  0.00  0.00    -0.064 N 
HETATM   14  H           1     -22.245  -5.592  -3.792  0.00  0.00     0.275 HD
HETATM   15  H           1     -22.473  -5.713  -5.478  0.00  0.00     0.275 HD
HETATM   16  H           1     -23.576  -6.463  -4.411  0.00  0.00     0.275 HD
ENDBRANCH   5  13
ENDBRANCH   2   5
BRANCH   1  17
HETATM   17  C           1     -20.967  -9.435  -1.396  0.00  0.00     0.185 C 
BRANCH  17  18
HETATM   18  C           1     -22.168  -9.936  -0.606  0.00  0.00     0.040 C 
BRANCH  18  19
HETATM   19  C           1     -22.406  -9.023   0.589  0.00  0.00    -0.020 C 
HETATM   20  C           1     -21.070  -8.651   1.217  0.00  0.00     0.009 C 
HETATM   21  C           1     -23.121  -7.759   0.129  0.00  0.00     0.009 C 
ENDBRANCH  18  19
ENDBRANCH  17  18
BRANCH  17  22
HETATM   22  C           1     -19.911 -10.511  -1.445  0.00  0.00     0.196 C 
HETATM   23  O           1     -18.871 -10.337  -2.116  0.00  0.00    -0.646 OA
HETATM   24  O           1     -20.076 -11.577  -0.815  0.00  0.00    -0.646 OA
ENDBRANCH  17  22
ENDBRANCH   1  17
TORSDOF 10
ENDMDL
MODEL 8
REMARK VINA RESULT:      -5.3      5.385      8.291
REMARK  10 active torsions:
REMARK  status: ('A' for Active; 'I' for Inactive)
REMARK    1  A    between atoms: C_2  and  C_4 
REMARK    2  A    between atoms: C_4  and  C_5 
REMARK    3  A    between atoms: C_5  and  C_6 
REMARK    4  A    between atoms: C_5  and  N_9 
REMARK       I    between atoms: N_9  and  C_10 
REMARK    5  A    between atoms: C_10  and  C_11 
REMARK    6  A    between atoms: C_11  and  C_12 
REMARK    7  A    between atoms: C_11  and  N_18 
REMARK    8  A    between atoms: C_12  and  O_13 
REMARK    9  A    between atoms: O_13  and  P_14 
REMARK   10  A    between atoms: P_14  and  O_15 
ROOT
HETATM    1  N           1     -20.880  -8.187  -5.661  0.00  0.00    -0.345 N 
HETATM    2  C           1     -20.113  -9.052  -4.929  0.00  0.00     0.251 C 
HETATM    3  O           1     -19.320  -8.623  -4.123  0.00  0.00    -0.271 OA
HETATM    4  H           1     -21.543  -8.546  -6.336  0.00  0.00     0.163 HD
ENDROOT
BRANCH   2   5
HETATM    5  C           1     -20.255 -10.541  -5.127  0.00  0.00     0.298 C 
BRANCH   5   6
HETATM    6  C           1     -21.587 -11.005  -4.554  0.00  0.00     0.224 C 
BRANCH   6   7
HETATM    7  O           1     -22.008 -10.110  -3.561  0.00  0.00    -0.287 OA
BRANCH   7   8
HETATM    8  P           1     -21.769 -10.580  -2.035  0.00  0.00     0.406 P 
HETATM    9  O           1     -21.964 -12.044  -1.934  0.00  0.00    -0.624 OA
HETATM   10  O           1     -22.734  -9.891  -1.150  0.00  0.00    -0.624 OA
BRANCH   8  11
HETATM   11  O           1     -20.264 -10.206  -1.585  0.00  0.00    -0.300 OA
HETATM   12  H           1     -19.881  -9.790  -2.339  0.00  0.00     0.223 HD
ENDBRANCH   8  11
ENDBRANCH   7   8
ENDBRANCH   6   7
ENDBRANCH   5   6
BRANCH   5  13
HETATM   13  N           1     -19.135 -11.248  -4.422  0.00  0.00    -0.064 N 
HETATM   14  H           1     -18.233 -10.756  -4.618  0.00  0.00     0.275 HD
HETATM   15  H           1     -19.316 -11.246  -3.393  0.00  0.00     0.275 HD
HETATM   16  H           1     -19.075 -12.233  -4.765  0.00  0.00     0.275 HD
ENDBRANCH   5  13
ENDBRANCH   2   5
BRANCH   1  17
HETATM   17  C           1     -20.743  -6.756  -5.470  0.00  0.00     0.185 C 
BRANCH  17  18
HETATM   18  C           1     -20.839  -6.053  -6.818  0.00  0.00     0.040 C 
BRANCH  18  19
HETATM   19  C           1     -20.314  -4.630  -6.688  0.00  0.00    -0.020 C 
HETATM   20  C           1     -19.021  -4.492  -7.481  0.00  0.00     0.009 C 
HETATM   21  C           1     -21.350  -3.655  -7.232  0.00  0.00     0.009 C 
ENDBRANCH  18  19
ENDBRANCH  17  18
BRANCH  17  22
HETATM   22  C           1     -21.845  -6.263  -4.565  0.00  0.00     0.196 C 
HETATM   23  O           1     -21.583  -5.917  -3.393  0.00  0.00    -0.646 OA
HETATM   24  O           1     -23.019  -6.201  -4.987  0.00  0.00    -0.646 OA
ENDBRANCH  17  22
ENDBRANCH   1  17
TORSDOF 10
ENDMDL
MODEL 9
REMARK VINA RESULT:      -5.3      6.591      8.588
REMARK  10 active torsions:
REMARK  status: ('A' for Active; 'I' for Inactive)
REMARK    1  A    between atoms: C_2  and  C_4 
REMARK    2  A    between atoms: C_4  and  C_5 
REMARK    3  A    between atoms: C_5  and  C_6 
REMARK    4  A    between atoms: C_5  and  N_9 
REMARK       I    between atoms: N_9  and  C_10 
REMARK    5  A    between atoms: C_10  and  C_11 
REMARK    6  A    between atoms: C_11  and  C_12 
REMARK    7  A    between atoms: C_11  and  N_18 
REMARK    8  A    between atoms: C_12  and  O_13 
REMARK    9  A    between atoms: O_13  and  P_14 
REMARK   10  A    between atoms: P_14  and  O_15 
ROOT
HETATM    1  N           1     -20.606  -8.352  -3.290  0.00  0.00    -0.345 N 
HETATM    2  C           1     -20.895  -9.406  -4.113  0.00  0.00     0.251 C 
HETATM    3  O           1     -21.982  -9.932  -4.062  0.00  0.00    -0.271 OA
HETATM    4  H           1     -19.696  -7.911  -3.333  0.00  0.00     0.163 HD
ENDROOT
BRANCH   2   5
HETATM    5  C           1     -19.858  -9.912  -5.084  0.00  0.00     0.298 C 
BRANCH   5   6
HETATM    6  C           1     -18.787 -10.687  -4.327  0.00  0.00     0.224 C 
BRANCH   6   7
HETATM    7  O           1     -17.851  -9.792  -3.791  0.00  0.00    -0.287 OA
BRANCH   7   8
HETATM    8  P           1     -16.315 -10.289  -3.793  0.00  0.00     0.406 P 
HETATM    9  O           1     -15.576  -9.604  -4.877  0.00  0.00    -0.624 OA
HETATM   10  O           1     -16.269 -11.752  -4.011  0.00  0.00    -0.624 OA
BRANCH   8  11
HETATM   11  O           1     -15.633  -9.936  -2.372  0.00  0.00    -0.300 OA
HETATM   12  H           1     -16.346  -9.924  -1.756  0.00  0.00     0.223 HD
ENDBRANCH   8  11
ENDBRANCH   7   8
ENDBRANCH   6   7
ENDBRANCH   5   6
BRANCH   5  13
HETATM   13  N           1     -19.225  -8.749  -5.791  0.00  0.00    -0.064 N 
HETATM   14  H           1     -18.185  -8.839  -5.748  0.00  0.00     0.275 HD
HETATM   15  H           1     -19.532  -8.741  -6.790  0.00  0.00     0.275 HD
HETATM   16  H           1     -19.518  -7.859  -5.327  0.00  0.00     0.275 HD
ENDBRANCH   5  13
ENDBRANCH   2   5
BRANCH   1  17
HETATM   17  C           1     -21.604  -7.865  -2.356  0.00  0.00     0.185 C 
BRANCH  17  18
HETATM   18  C           1     -21.056  -7.954  -0.938  0.00  0.00     0.040 C 
BRANCH  18  19
HETATM   19  C           1     -21.907  -8.920  -0.124  0.00  0.00    -0.020 C 
HETATM   20  C           1     -21.051  -9.559   0.961  0.00  0.00     0.009 C 
HETATM   21  C           1     -23.060  -8.161   0.519  0.00  0.00     0.009 C 
ENDBRANCH  18  19
ENDBRANCH  17  18
BRANCH  17  22
HETATM   22  C           1     -21.936  -6.429  -2.680  0.00  0.00     0.196 C 
HETATM   23  O           1     -21.778  -5.998  -3.842  0.00  0.00    -0.646 OA
HETATM   24  O           1     -22.367  -5.671  -1.785  0.00  0.00    -0.646 OA
ENDBRANCH  17  22
ENDBRANCH   1  17
TORSDOF 10
ENDMDL
