MODEL 1
REMARK VINA RESULT:      -6.8      0.000      0.000
REMARK  10 active torsions:
REMARK  status: ('A' for Active; 'I' for Inactive)
REMARK    1  A    between atoms: C_5  and  C_6 
REMARK    2  A    between atoms: C_5  and  C_24 
REMARK    3  A    between atoms: C_6  and  C_7 
REMARK    4  A    between atoms: C_7  and  N_8 
REMARK    5  A    between atoms: C_9  and  C_26 
REMARK    6  A    between atoms: C_9  and  C_17 
REMARK    7  A    between atoms: N_14  and  C_26 
REMARK    8  A    between atoms: C_19  and  C_24 
REMARK    9  A    between atoms: C_24  and  N_28 
REMARK       I    between atoms: C_25  and  N_28 
REMARK   10  A    between atoms: C_25  and  C_26 
ROOT
HETATM    1  O           1     -33.704  -2.201 -11.103  0.00  0.00    -0.271 OA
HETATM    2  H           1     -35.304  -1.937 -13.789  0.00  0.00     0.163 HD
HETATM    3  C           1     -34.207  -2.550 -12.144  0.00  0.00     0.249 C 
HETATM    4  N           1     -34.882  -1.644 -12.917  0.00  0.00    -0.345 N 
ENDROOT
BRANCH   3   5
HETATM    5  C           1     -34.093  -3.986 -12.593  0.00  0.00     0.280 C 
BRANCH   5   6
HETATM    6  C           1     -33.056  -4.704 -11.740  0.00  0.00     0.101 C 
BRANCH   6   7
HETATM    7  C           1     -33.713  -5.816 -10.984  0.00  0.00     0.028 A 
HETATM    8  N           1     -33.232  -7.098 -10.908  0.00  0.00    -0.355 N 
HETATM    9  C           1     -34.094  -7.748 -10.160  0.00  0.00     0.180 A 
ATOM     10  HN          1     -32.386  -7.468 -11.340  1.00  0.00     0.166 HD
HETATM   11  N           1     -35.112  -6.936  -9.749  0.00  0.00    -0.360 N 
HETATM   12  C           1     -34.882  -5.693 -10.271  0.00  0.00     0.114 A 
HETATM   13  H           1     -35.923  -7.216  -9.145  0.00  0.00     0.166 HD
ENDBRANCH   6   7
ENDBRANCH   5   6
BRANCH   5  14
HETATM   14  N           1     -33.670  -4.027 -14.032  0.00  0.00    -0.066 N 
HETATM   15  H           1     -34.409  -4.502 -14.598  0.00  0.00     0.275 HD
HETATM   16  H           1     -33.536  -3.052 -14.382  0.00  0.00     0.275 HD
HETATM   17  H           1     -32.773  -4.556 -14.117  0.00  0.00     0.275 HD
ENDBRANCH   5  14
ENDBRANCH   3   5
BRANCH   4  18
HETATM   18  C           1     -34.993  -0.264 -12.485  0.00  0.00     0.185 C 
BRANCH  18  19
HETATM   19  C           1     -34.975   0.652 -13.701  0.00  0.00     0.038 C 
BRANCH  19  20
HETATM   20  C           1     -35.395  -0.134 -14.936  0.00  0.00     0.030 C 
BRANCH  20  21
HETATM   21  C           1     -36.688   0.447 -15.493  0.00  0.00     0.230 C 
BRANCH  21  22
HETATM   22  N           1     -36.423   1.812 -16.054  0.00  0.00    -0.079 N 
HETATM   23  H           1     -35.802   2.343 -15.402  0.00  0.00     0.274 HD
HETATM   24  H           1     -35.954   1.720 -16.983  0.00  0.00     0.274 HD
HETATM   25  H           1     -37.327   2.324 -16.168  0.00  0.00     0.274 HD
ENDBRANCH  21  22
ENDBRANCH  20  21
ENDBRANCH  19  20
ENDBRANCH  18  19
BRANCH  18  26
HETATM   26  C           1     -36.288  -0.076 -11.733  0.00  0.00     0.196 C 
HETATM   27  O           1     -36.306   0.595 -10.679  0.00  0.00    -0.646 OA
HETATM   28  O           1     -37.342  -0.591 -12.164  0.00  0.00    -0.646 OA
ENDBRANCH  18  26
ENDBRANCH   4  18
TORSDOF 10
ENDMDL
MODEL 2
REMARK VINA RESULT:      -6.7      1.733      6.892
REMARK  10 active torsions:
REMARK  status: ('A' for Active; 'I' for Inactive)
REMARK    1  A    between atoms: C_5  and  C_6 
REMARK    2  A    between atoms: C_5  and  C_24 
REMARK    3  A    between atoms: C_6  and  C_7 
REMARK    4  A    between atoms: C_7  and  N_8 
REMARK    5  A    between atoms: C_9  and  C_26 
REMARK    6  A    between atoms: C_9  and  C_17 
REMARK    7  A    between atoms: N_14  and  C_26 
REMARK    8  A    between atoms: C_19  and  C_24 
REMARK    9  A    between atoms: C_24  and  N_28 
REMARK       I    between atoms: C_25  and  N_28 
REMARK   10  A    between atoms: C_25  and  C_26 
ROOT
HETATM    1  O           1     -33.902  -1.237 -11.166  0.00  0.00    -0.271 OA
HETATM    2  H           1     -36.134  -3.152 -12.260  0.00  0.00     0.163 HD
HETATM    3  C           1     -34.953  -1.558 -11.666  0.00  0.00     0.249 C 
HETATM    4  N           1     -35.253  -2.882 -11.841  0.00  0.00    -0.345 N 
ENDROOT
BRANCH   3   5
HETATM    5  C           1     -35.938  -0.499 -12.099  0.00  0.00     0.280 C 
BRANCH   5   6
HETATM    6  C           1     -35.297   0.388 -13.157  0.00  0.00     0.101 C 
BRANCH   6   7
HETATM    7  C           1     -35.724  -0.068 -14.518  0.00  0.00     0.028 A 
HETATM    8  N           1     -34.995  -0.907 -15.322  0.00  0.00    -0.355 N 
HETATM    9  C           1     -35.714  -1.053 -16.412  0.00  0.00     0.180 A 
ATOM     10  HN          1     -34.088  -1.327 -15.118  1.00  0.00     0.166 HD
HETATM   11  N           1     -36.878  -0.342 -16.341  0.00  0.00    -0.360 N 
HETATM   12  C           1     -36.898   0.296 -15.132  0.00  0.00     0.114 A 
HETATM   13  H           1     -37.620  -0.294 -17.082  0.00  0.00     0.166 HD
ENDBRANCH   6   7
ENDBRANCH   5   6
BRANCH   5  14
HETATM   14  N           1     -36.325   0.336 -10.914  0.00  0.00    -0.066 N 
HETATM   15  H           1     -37.355   0.509 -10.932  0.00  0.00     0.275 HD
HETATM   16  H           1     -36.072  -0.169 -10.035  0.00  0.00     0.275 HD
HETATM   17  H           1     -35.818   1.249 -10.952  0.00  0.00     0.275 HD
ENDBRANCH   5  14
ENDBRANCH   3   5
BRANCH   4  18
HETATM   18  C           1     -34.307  -3.899 -11.426  0.00  0.00     0.185 C 
BRANCH  18  19
HETATM   19  C           1     -35.047  -5.201 -11.151  0.00  0.00     0.038 C 
BRANCH  19  20
HETATM   20  C           1     -34.168  -6.120 -10.312  0.00  0.00     0.030 C 
BRANCH  20  21
HETATM   21  C           1     -34.749  -7.527 -10.320  0.00  0.00     0.230 C 
BRANCH  21  22
HETATM   22  N           1     -33.634  -8.529 -10.304  0.00  0.00    -0.079 N 
HETATM   23  H           1     -32.790  -8.120 -10.768  0.00  0.00     0.274 HD
HETATM   24  H           1     -33.401  -8.775  -9.315  0.00  0.00     0.274 HD
HETATM   25  H           1     -33.930  -9.390 -10.817  0.00  0.00     0.274 HD
ENDBRANCH  21  22
ENDBRANCH  20  21
ENDBRANCH  19  20
ENDBRANCH  18  19
BRANCH  18  26
HETATM   26  C           1     -33.293  -4.120 -12.522  0.00  0.00     0.196 C 
HETATM   27  O           1     -33.627  -3.982 -13.719  0.00  0.00    -0.646 OA
HETATM   28  O           1     -32.120  -4.442 -12.234  0.00  0.00    -0.646 OA
ENDBRANCH  18  26
ENDBRANCH   4  18
TORSDOF 10
ENDMDL
MODEL 3
REMARK VINA RESULT:      -6.5     12.188     13.966
REMARK  10 active torsions:
REMARK  status: ('A' for Active; 'I' for Inactive)
REMARK    1  A    between atoms: C_5  and  C_6 
REMARK    2  A    between atoms: C_5  and  C_24 
REMARK    3  A    between atoms: C_6  and  C_7 
REMARK    4  A    between atoms: C_7  and  N_8 
REMARK    5  A    between atoms: C_9  and  C_26 
REMARK    6  A    between atoms: C_9  and  C_17 
REMARK    7  A    between atoms: N_14  and  C_26 
REMARK    8  A    between atoms: C_19  and  C_24 
REMARK    9  A    between atoms: C_24  and  N_28 
REMARK       I    between atoms: C_25  and  N_28 
REMARK   10  A    between atoms: C_25  and  C_26 
ROOT
HETATM    1  O           1     -21.520  -3.416  -7.225  0.00  0.00    -0.271 OA
HETATM    2  H           1     -22.217  -5.783  -9.164  0.00  0.00     0.163 HD
HETATM    3  C           1     -21.594  -4.556  -7.617  0.00  0.00     0.249 C 
HETATM    4  N           1     -22.155  -4.827  -8.836  0.00  0.00    -0.345 N 
ENDROOT
BRANCH   3   5
HETATM    5  C           1     -21.068  -5.683  -6.762  0.00  0.00     0.280 C 
BRANCH   5   6
HETATM    6  C           1     -20.684  -5.143  -5.391  0.00  0.00     0.101 C 
BRANCH   6   7
HETATM    7  C           1     -21.087  -6.126  -4.336  0.00  0.00     0.028 A 
HETATM    8  N           1     -21.481  -5.788  -3.066  0.00  0.00    -0.355 N 
HETATM    9  C           1     -21.743  -6.929  -2.470  0.00  0.00     0.180 A 
ATOM     10  HN          1     -21.556  -4.851  -2.670  1.00  0.00     0.166 HD
HETATM   11  N           1     -21.534  -7.989  -3.305  0.00  0.00    -0.360 N 
HETATM   12  C           1     -21.111  -7.489  -4.506  0.00  0.00     0.114 A 
HETATM   13  H           1     -21.670  -9.002  -3.067  0.00  0.00     0.166 HD
ENDBRANCH   6   7
ENDBRANCH   5   6
BRANCH   5  14
HETATM   14  N           1     -19.861  -6.285  -7.418  0.00  0.00    -0.066 N 
HETATM   15  H           1     -19.065  -5.609  -7.371  0.00  0.00     0.275 HD
HETATM   16  H           1     -19.599  -7.166  -6.920  0.00  0.00     0.275 HD
HETATM   17  H           1     -20.078  -6.500  -8.417  0.00  0.00     0.275 HD
ENDBRANCH   5  14
ENDBRANCH   3   5
BRANCH   4  18
HETATM   18  C           1     -22.661  -3.745  -9.657  0.00  0.00     0.185 C 
BRANCH  18  19
HETATM   19  C           1     -22.089  -3.863 -11.064  0.00  0.00     0.038 C 
BRANCH  19  20
HETATM   20  C           1     -22.413  -2.601 -11.852  0.00  0.00     0.030 C 
BRANCH  20  21
HETATM   21  C           1     -22.970  -2.982 -13.217  0.00  0.00     0.230 C 
BRANCH  21  22
HETATM   22  N           1     -23.765  -4.248 -13.096  0.00  0.00    -0.079 N 
HETATM   23  H           1     -24.653  -4.055 -12.579  0.00  0.00     0.274 HD
HETATM   24  H           1     -23.990  -4.610 -14.050  0.00  0.00     0.274 HD
HETATM   25  H           1     -23.207  -4.962 -12.575  0.00  0.00     0.274 HD
ENDBRANCH  21  22
ENDBRANCH  20  21
ENDBRANCH  19  20
ENDBRANCH  18  19
BRANCH  18  26
HETATM   26  C           1     -24.167  -3.823  -9.719  0.00  0.00     0.196 C 
HETATM   27  O           1     -24.724  -4.886 -10.068  0.00  0.00    -0.646 OA
HETATM   28  O           1     -24.858  -2.824  -9.422  0.00  0.00    -0.646 OA
ENDBRANCH  18  26
ENDBRANCH   4  18
TORSDOF 10
ENDMDL
MODEL 4
REMARK VINA RESULT:      -6.2      2.134      2.933
REMARK  10 active torsions:
REMARK  status: ('A' for Active; 'I' for Inactive)
REMARK    1  A    between atoms: C_5  and  C_6 
REMARK    2  A    between atoms: C_5  and  C_24 
REMARK    3  A    between atoms: C_6  and  C_7 
REMARK    4  A    between atoms: C_7  and  N_8 
REMARK    5  A    between atoms: C_9  and  C_26 
REMARK    6  A    between atoms: C_9  and  C_17 
REMARK    7  A    between atoms: N_14  and  C_26 
REMARK    8  A    between atoms: C_19  and  C_24 
REMARK    9  A    between atoms: C_24  and  N_28 
REMARK       I    between atoms: C_25  and  N_28 
REMARK   10  A    between atoms: C_25  and  C_26 
ROOT
HETATM    1  O           1     -34.682  -3.230 -13.893  0.00  0.00    -0.271 OA
HETATM    2  H           1     -35.032  -2.160 -10.964  0.00  0.00     0.163 HD
HETATM    3  C           1     -34.552  -3.192 -12.693  0.00  0.00     0.249 C 
HETATM    4  N           1     -35.142  -2.192 -11.970  0.00  0.00    -0.345 N 
ENDROOT
BRANCH   3   5
HETATM    5  C           1     -33.736  -4.250 -11.990  0.00  0.00     0.280 C 
BRANCH   5   6
HETATM    6  C           1     -34.356  -4.551 -10.633  0.00  0.00     0.101 C 
BRANCH   6   7
HETATM    7  C           1     -34.338  -6.028 -10.391  0.00  0.00     0.028 A 
HETATM    8  N           1     -33.459  -6.902 -10.977  0.00  0.00    -0.355 N 
HETATM    9  C           1     -33.778  -8.085 -10.504  0.00  0.00     0.180 A 
ATOM     10  HN          1     -32.715  -6.682 -11.640  1.00  0.00     0.166 HD
HETATM   11  N           1     -34.828  -8.008  -9.634  0.00  0.00    -0.360 N 
HETATM   12  C           1     -35.199  -6.694  -9.552  0.00  0.00     0.114 A 
HETATM   13  H           1     -35.271  -8.811  -9.124  0.00  0.00     0.166 HD
ENDBRANCH   6   7
ENDBRANCH   5   6
BRANCH   5  14
HETATM   14  N           1     -32.333  -3.753 -11.799  0.00  0.00    -0.066 N 
HETATM   15  H           1     -32.251  -2.785 -12.184  0.00  0.00     0.275 HD
HETATM   16  H           1     -32.104  -3.743 -10.779  0.00  0.00     0.275 HD
HETATM   17  H           1     -31.669  -4.385 -12.300  0.00  0.00     0.275 HD
ENDBRANCH   5  14
ENDBRANCH   3   5
BRANCH   4  18
HETATM   18  C           1     -35.925  -1.175 -12.646  0.00  0.00     0.185 C 
BRANCH  18  19
HETATM   19  C           1     -36.934  -0.579 -11.672  0.00  0.00     0.038 C 
BRANCH  19  20
HETATM   20  C           1     -36.839  -1.303 -10.335  0.00  0.00     0.030 C 
BRANCH  20  21
HETATM   21  C           1     -36.712  -0.281  -9.212  0.00  0.00     0.230 C 
BRANCH  21  22
HETATM   22  N           1     -36.438   1.072  -9.796  0.00  0.00    -0.079 N 
HETATM   23  H           1     -37.308   1.441 -10.245  0.00  0.00     0.274 HD
HETATM   24  H           1     -36.136   1.724  -9.038  0.00  0.00     0.274 HD
HETATM   25  H           1     -35.682   0.997 -10.514  0.00  0.00     0.274 HD
ENDBRANCH  21  22
ENDBRANCH  20  21
ENDBRANCH  19  20
ENDBRANCH  18  19
BRANCH  18  26
HETATM   26  C           1     -35.009  -0.086 -13.148  0.00  0.00     0.196 C 
HETATM   27  O           1     -34.599   0.797 -12.364  0.00  0.00    -0.646 OA
HETATM   28  O           1     -34.659  -0.067 -14.348  0.00  0.00    -0.646 OA
ENDBRANCH  18  26
ENDBRANCH   4  18
TORSDOF 10
ENDMDL
MODEL 5
REMARK VINA RESULT:      -6.2      3.931      6.312
REMARK  10 active torsions:
REMARK  status: ('A' for Active; 'I' for Inactive)
REMARK    1  A    between atoms: C_5  and  C_6 
REMARK    2  A    between atoms: C_5  and  C_24 
REMARK    3  A    between atoms: C_6  and  C_7 
REMARK    4  A    between atoms: C_7  and  N_8 
REMARK    5  A    between atoms: C_9  and  C_26 
REMARK    6  A    between atoms: C_9  and  C_17 
REMARK    7  A    between atoms: N_14  and  C_26 
REMARK    8  A    between atoms: C_19  and  C_24 
REMARK    9  A    between atoms: C_24  and  N_28 
REMARK       I    between atoms: C_25  and  N_28 
REMARK   10  A    between atoms: C_25  and  C_26 
ROOT
HETATM    1  O           1     -34.974  -4.794 -15.560  0.00  0.00    -0.271 OA
HETATM    2  H           1     -32.349  -3.796 -14.159  0.00  0.00     0.163 HD
HETATM    3  C           1     -33.812  -4.479 -15.454  0.00  0.00     0.249 C 
HETATM    4  N           1     -33.322  -4.059 -14.247  0.00  0.00    -0.345 N 
ENDROOT
BRANCH   3   5
HETATM    5  C           1     -32.900  -4.550 -16.654  0.00  0.00     0.280 C 
BRANCH   5   6
HETATM    6  C           1     -31.457  -4.690 -16.188  0.00  0.00     0.101 C 
BRANCH   6   7
HETATM    7  C           1     -30.849  -5.912 -16.803  0.00  0.00     0.028 A 
HETATM    8  N           1     -29.566  -6.342 -16.576  0.00  0.00    -0.355 N 
HETATM    9  C           1     -29.434  -7.433 -17.295  0.00  0.00     0.180 A 
ATOM     10  HN          1     -28.865  -5.908 -15.976  1.00  0.00     0.166 HD
HETATM   11  N           1     -30.581  -7.723 -17.977  0.00  0.00    -0.360 N 
HETATM   12  C           1     -31.498  -6.755 -17.672  0.00  0.00     0.114 A 
HETATM   13  H           1     -30.730  -8.539 -18.620  0.00  0.00     0.166 HD
ENDBRANCH   6   7
ENDBRANCH   5   6
BRANCH   5  14
HETATM   14  N           1     -33.043  -3.296 -17.465  0.00  0.00    -0.066 N 
HETATM   15  H           1     -32.750  -2.474 -16.891  0.00  0.00     0.275 HD
HETATM   16  H           1     -32.438  -3.361 -18.315  0.00  0.00     0.275 HD
HETATM   17  H           1     -34.041  -3.181 -17.754  0.00  0.00     0.275 HD
ENDBRANCH   5  14
ENDBRANCH   3   5
BRANCH   4  18
HETATM   18  C           1     -34.199  -3.990 -13.095  0.00  0.00     0.185 C 
BRANCH  18  19
HETATM   19  C           1     -33.506  -4.612 -11.890  0.00  0.00     0.038 C 
BRANCH  19  20
HETATM   20  C           1     -34.529  -5.357 -11.042  0.00  0.00     0.030 C 
BRANCH  20  21
HETATM   21  C           1     -33.936  -6.679 -10.573  0.00  0.00     0.230 C 
BRANCH  21  22
HETATM   22  N           1     -34.851  -7.802 -10.959  0.00  0.00    -0.079 N 
HETATM   23  H           1     -35.720  -7.412 -11.390  0.00  0.00     0.274 HD
HETATM   24  H           1     -34.369  -8.422 -11.648  0.00  0.00     0.274 HD
HETATM   25  H           1     -35.103  -8.355 -10.108  0.00  0.00     0.274 HD
ENDBRANCH  21  22
ENDBRANCH  20  21
ENDBRANCH  19  20
ENDBRANCH  18  19
BRANCH  18  26
HETATM   26  C           1     -34.525  -2.547 -12.796  0.00  0.00     0.196 C 
HETATM   27  O           1     -35.119  -1.851 -13.649  0.00  0.00    -0.646 OA
HETATM   28  O           1     -34.201  -2.047 -11.697  0.00  0.00    -0.646 OA
ENDBRANCH  18  26
ENDBRANCH   4  18
TORSDOF 10
ENDMDL
MODEL 6
REMARK VINA RESULT:      -6.0     13.293     16.281
REMARK  10 active torsions:
REMARK  status: ('A' for Active; 'I' for Inactive)
REMARK    1  A    between atoms: C_5  and  C_6 
REMARK    2  A    between atoms: C_5  and  C_24 
REMARK    3  A    between atoms: C_6  and  C_7 
REMARK    4  A    between atoms: C_7  and  N_8 
REMARK    5  A    between atoms: C_9  and  C_26 
REMARK    6  A    between atoms: C_9  and  C_17 
REMARK    7  A    between atoms: N_14  and  C_26 
REMARK    8  A    between atoms: C_19  and  C_24 
REMARK    9  A    between atoms: C_24  and  N_28 
REMARK       I    between atoms: C_25  and  N_28 
REMARK   10  A    between atoms: C_25  and  C_26 
ROOT
HETATM    1  O           1     -19.962  -4.345  -5.302  0.00  0.00    -0.271 OA
HETATM    2  H           1     -21.898  -6.523  -6.466  0.00  0.00     0.163 HD
HETATM    3  C           1     -20.708  -4.871  -6.094  0.00  0.00     0.249 C 
HETATM    4  N           1     -21.273  -6.083  -5.803  0.00  0.00    -0.345 N 
ENDROOT
BRANCH   3   5
HETATM    5  C           1     -21.018  -4.190  -7.404  0.00  0.00     0.280 C 
BRANCH   5   6
HETATM    6  C           1     -21.817  -5.135  -8.292  0.00  0.00     0.101 C 
BRANCH   6   7
HETATM    7  C           1     -22.837  -4.356  -9.061  0.00  0.00     0.028 A 
HETATM    8  N           1     -24.014  -3.885  -8.539  0.00  0.00    -0.355 N 
HETATM    9  C           1     -24.611  -3.265  -9.531  0.00  0.00     0.180 A 
ATOM     10  HN          1     -24.354  -3.992  -7.583  1.00  0.00     0.166 HD
HETATM   11  N           1     -23.864  -3.318 -10.674  0.00  0.00    -0.360 N 
HETATM   12  C           1     -22.724  -4.016 -10.388  0.00  0.00     0.114 A 
HETATM   13  H           1     -24.121  -2.901 -11.602  0.00  0.00     0.166 HD
ENDBRANCH   6   7
ENDBRANCH   5   6
BRANCH   5  14
HETATM   14  N           1     -19.736  -3.824  -8.092  0.00  0.00    -0.066 N 
HETATM   15  H           1     -19.937  -3.549  -9.080  0.00  0.00     0.275 HD
HETATM   16  H           1     -19.289  -3.023  -7.592  0.00  0.00     0.275 HD
HETATM   17  H           1     -19.090  -4.645  -8.084  0.00  0.00     0.275 HD
ENDBRANCH   5  14
ENDBRANCH   3   5
BRANCH   4  18
HETATM   18  C           1     -20.975  -6.737  -4.544  0.00  0.00     0.185 C 
BRANCH  18  19
HETATM   19  C           1     -22.187  -6.651  -3.626  0.00  0.00     0.038 C 
BRANCH  19  20
HETATM   20  C           1     -21.772  -6.050  -2.289  0.00  0.00     0.030 C 
BRANCH  20  21
HETATM   21  C           1     -22.271  -6.936  -1.156  0.00  0.00     0.230 C 
BRANCH  21  22
HETATM   22  N           1     -21.877  -8.359  -1.422  0.00  0.00    -0.079 N 
HETATM   23  H           1     -21.532  -8.796  -0.536  0.00  0.00     0.274 HD
HETATM   24  H           1     -22.705  -8.890  -1.773  0.00  0.00     0.274 HD
HETATM   25  H           1     -21.117  -8.382  -2.139  0.00  0.00     0.274 HD
ENDBRANCH  21  22
ENDBRANCH  20  21
ENDBRANCH  19  20
ENDBRANCH  18  19
BRANCH  18  26
HETATM   26  C           1     -20.639  -8.187  -4.798  0.00  0.00     0.196 C 
HETATM   27  O           1     -20.982  -8.729  -5.871  0.00  0.00    -0.646 OA
HETATM   28  O           1     -20.019  -8.846  -3.935  0.00  0.00    -0.646 OA
ENDBRANCH  18  26
ENDBRANCH   4  18
TORSDOF 10
ENDMDL
MODEL 7
REMARK VINA RESULT:      -5.9     13.259     16.298
REMARK  10 active torsions:
REMARK  status: ('A' for Active; 'I' for Inactive)
REMARK    1  A    between atoms: C_5  and  C_6 
REMARK    2  A    between atoms: C_5  and  C_24 
REMARK    3  A    between atoms: C_6  and  C_7 
REMARK    4  A    between atoms: C_7  and  N_8 
REMARK    5  A    between atoms: C_9  and  C_26 
REMARK    6  A    between atoms: C_9  and  C_17 
REMARK    7  A    between atoms: N_14  and  C_26 
REMARK    8  A    between atoms: C_19  and  C_24 
REMARK    9  A    between atoms: C_24  and  N_28 
REMARK       I    between atoms: C_25  and  N_28 
REMARK   10  A    between atoms: C_25  and  C_26 
ROOT
HETATM    1  O           1     -20.453  -4.583  -6.555  0.00  0.00    -0.271 OA
HETATM    2  H           1     -22.915  -6.511  -6.288  0.00  0.00     0.163 HD
HETATM    3  C           1     -21.506  -5.100  -6.845  0.00  0.00     0.249 C 
HETATM    4  N           1     -22.033  -6.077  -6.045  0.00  0.00    -0.345 N 
ENDROOT
BRANCH   3   5
HETATM    5  C           1     -22.240  -4.668  -8.091  0.00  0.00     0.280 C 
BRANCH   5   6
HETATM    6  C           1     -21.429  -3.601  -8.814  0.00  0.00     0.101 C 
BRANCH   6   7
HETATM    7  C           1     -21.720  -3.661 -10.281  0.00  0.00     0.028 A 
HETATM    8  N           1     -22.921  -3.325 -10.852  0.00  0.00    -0.355 N 
HETATM    9  C           1     -22.758  -3.517 -12.141  0.00  0.00     0.180 A 
ATOM     10  HN          1     -23.761  -2.996 -10.377  1.00  0.00     0.166 HD
HETATM   11  N           1     -21.499  -3.963 -12.424  0.00  0.00    -0.360 N 
HETATM   12  C           1     -20.821  -4.061 -11.241  0.00  0.00     0.114 A 
HETATM   13  H           1     -21.122  -4.190 -13.377  0.00  0.00     0.166 HD
ENDBRANCH   6   7
ENDBRANCH   5   6
BRANCH   5  14
HETATM   14  N           1     -23.578  -4.106  -7.712  0.00  0.00    -0.066 N 
HETATM   15  H           1     -23.712  -3.181  -8.178  0.00  0.00     0.275 HD
HETATM   16  H           1     -24.331  -4.763  -8.019  0.00  0.00     0.275 HD
HETATM   17  H           1     -23.624  -3.983  -6.675  0.00  0.00     0.275 HD
ENDBRANCH   5  14
ENDBRANCH   3   5
BRANCH   4  18
HETATM   18  C           1     -21.327  -6.493  -4.849  0.00  0.00     0.185 C 
BRANCH  18  19
HETATM   19  C           1     -22.315  -6.630  -3.698  0.00  0.00     0.038 C 
BRANCH  19  20
HETATM   20  C           1     -21.658  -6.162  -2.405  0.00  0.00     0.030 C 
BRANCH  20  21
HETATM   21  C           1     -21.689  -7.288  -1.381  0.00  0.00     0.230 C 
BRANCH  21  22
HETATM   22  N           1     -20.407  -8.063  -1.451  0.00  0.00    -0.079 N 
HETATM   23  H           1     -19.605  -7.402  -1.567  0.00  0.00     0.274 HD
HETATM   24  H           1     -20.282  -8.609  -0.570  0.00  0.00     0.274 HD
HETATM   25  H           1     -20.439  -8.718  -2.265  0.00  0.00     0.274 HD
ENDBRANCH  21  22
ENDBRANCH  20  21
ENDBRANCH  19  20
ENDBRANCH  18  19
BRANCH  18  26
HETATM   26  C           1     -20.657  -7.822  -5.097  0.00  0.00     0.196 C 
HETATM   27  O           1     -21.125  -8.609  -5.948  0.00  0.00    -0.646 OA
HETATM   28  O           1     -19.634  -8.137  -4.451  0.00  0.00    -0.646 OA
ENDBRANCH  18  26
ENDBRANCH   4  18
TORSDOF 10
ENDMDL
MODEL 8
REMARK VINA RESULT:      -5.7     13.205     15.047
REMARK  10 active torsions:
REMARK  status: ('A' for Active; 'I' for Inactive)
REMARK    1  A    between atoms: C_5  and  C_6 
REMARK    2  A    between atoms: C_5  and  C_24 
REMARK    3  A    between atoms: C_6  and  C_7 
REMARK    4  A    between atoms: C_7  and  N_8 
REMARK    5  A    between atoms: C_9  and  C_26 
REMARK    6  A    between atoms: C_9  and  C_17 
REMARK    7  A    between atoms: N_14  and  C_26 
REMARK    8  A    between atoms: C_19  and  C_24 
REMARK    9  A    between atoms: C_24  and  N_28 
REMARK       I    between atoms: C_25  and  N_28 
REMARK   10  A    between atoms: C_25  and  C_26 
ROOT
HETATM    1  O           1     -21.004  -6.769  -7.201  0.00  0.00    -0.271 OA
HETATM    2  H           1     -22.477  -3.999  -7.126  0.00  0.00     0.163 HD
HETATM    3  C           1     -21.583  -5.822  -6.723  0.00  0.00     0.249 C 
HETATM    4  N           1     -21.992  -4.792  -7.526  0.00  0.00    -0.345 N 
ENDROOT
BRANCH   3   5
HETATM    5  C           1     -21.855  -5.775  -5.240  0.00  0.00     0.280 C 
BRANCH   5   6
HETATM    6  C           1     -20.924  -6.743  -4.521  0.00  0.00     0.101 C 
BRANCH   6   7
HETATM    7  C           1     -21.424  -6.978  -3.130  0.00  0.00     0.028 A 
HETATM    8  N           1     -21.925  -6.002  -2.307  0.00  0.00    -0.355 N 
HETATM    9  C           1     -22.245  -6.619  -1.193  0.00  0.00     0.180 A 
ATOM     10  HN          1     -22.027  -5.008  -2.515  1.00  0.00     0.166 HD
HETATM   11  N           1     -21.971  -7.955  -1.265  0.00  0.00    -0.360 N 
HETATM   12  C           1     -21.443  -8.200  -2.502  0.00  0.00     0.114 A 
HETATM   13  H           1     -22.135  -8.663  -0.508  0.00  0.00     0.166 HD
ENDBRANCH   6   7
ENDBRANCH   5   6
BRANCH   5  14
HETATM   14  N           1     -23.280  -6.169  -4.981  0.00  0.00    -0.066 N 
HETATM   15  H           1     -23.809  -5.343  -4.621  0.00  0.00     0.275 HD
HETATM   16  H           1     -23.716  -6.501  -5.871  0.00  0.00     0.275 HD
HETATM   17  H           1     -23.306  -6.935  -4.271  0.00  0.00     0.275 HD
ENDBRANCH   5  14
ENDBRANCH   3   5
BRANCH   4  18
HETATM   18  C           1     -21.730  -4.837  -8.951  0.00  0.00     0.185 C 
BRANCH  18  19
HETATM   19  C           1     -22.708  -3.922  -9.678  0.00  0.00     0.038 C 
BRANCH  19  20
HETATM   20  C           1     -23.286  -4.651 -10.884  0.00  0.00     0.030 C 
BRANCH  20  21
HETATM   21  C           1     -23.120  -3.788 -12.127  0.00  0.00     0.230 C 
BRANCH  21  22
HETATM   22  N           1     -21.675  -3.762 -12.529  0.00  0.00    -0.079 N 
HETATM   23  H           1     -21.194  -2.967 -12.047  0.00  0.00     0.274 HD
HETATM   24  H           1     -21.221  -4.661 -12.253  0.00  0.00     0.274 HD
HETATM   25  H           1     -21.603  -3.637 -13.563  0.00  0.00     0.274 HD
ENDBRANCH  21  22
ENDBRANCH  20  21
ENDBRANCH  19  20
ENDBRANCH  18  19
BRANCH  18  26
HETATM   26  C           1     -20.318  -4.374  -9.217  0.00  0.00     0.196 C 
HETATM   27  O           1     -19.721  -3.672  -8.372  0.00  0.00    -0.646 OA
HETATM   28  O           1     -19.746  -4.691 -10.282  0.00  0.00    -0.646 OA
ENDBRANCH  18  26
ENDBRANCH   4  18
TORSDOF 10
ENDMDL
MODEL 9
REMARK VINA RESULT:      -5.4     13.312     16.563
REMARK  10 active torsions:
REMARK  status: ('A' for Active; 'I' for Inactive)
REMARK    1  A    between atoms: C_5  and  C_6 
REMARK    2  A    between atoms: C_5  and  C_24 
REMARK    3  A    between atoms: C_6  and  C_7 
REMARK    4  A    between atoms: C_7  and  N_8 
REMARK    5  A    between atoms: C_9  and  C_26 
REMARK    6  A    between atoms: C_9  and  C_17 
REMARK    7  A    between atoms: N_14  and  C_26 
REMARK    8  A    between atoms: C_19  and  C_24 
REMARK    9  A    between atoms: C_24  and  N_28 
REMARK       I    between atoms: C_25  and  N_28 
REMARK   10  A    between atoms: C_25  and  C_26 
ROOT
HETATM    1  O           1     -23.052  -5.857  -5.565  0.00  0.00    -0.271 OA
HETATM    2  H           1     -20.043  -6.396  -4.853  0.00  0.00     0.163 HD
HETATM    3  C           1     -21.851  -5.738  -5.619  0.00  0.00     0.249 C 
HETATM    4  N           1     -21.049  -6.496  -4.808  0.00  0.00    -0.345 N 
ENDROOT
BRANCH   3   5
HETATM    5  C           1     -21.233  -4.754  -6.581  0.00  0.00     0.280 C 
BRANCH   5   6
HETATM    6  C           1     -21.346  -5.293  -8.001  0.00  0.00     0.101 C 
BRANCH   6   7
HETATM    7  C           1     -22.391  -4.524  -8.747  0.00  0.00     0.028 A 
HETATM    8  N           1     -23.588  -4.117  -8.214  0.00  0.00    -0.355 N 
HETATM    9  C           1     -24.203  -3.483  -9.185  0.00  0.00     0.180 A 
ATOM     10  HN          1     -23.928  -4.274  -7.265  1.00  0.00     0.166 HD
HETATM   11  N           1     -23.450  -3.464 -10.325  0.00  0.00    -0.360 N 
HETATM   12  C           1     -22.285  -4.129 -10.059  0.00  0.00     0.114 A 
HETATM   13  H           1     -23.718  -3.021 -11.238  0.00  0.00     0.166 HD
ENDBRANCH   6   7
ENDBRANCH   5   6
BRANCH   5  14
HETATM   14  N           1     -19.786  -4.558  -6.235  0.00  0.00    -0.066 N 
HETATM   15  H           1     -19.704  -4.273  -5.234  0.00  0.00     0.275 HD
HETATM   16  H           1     -19.269  -5.453  -6.386  0.00  0.00     0.275 HD
HETATM   17  H           1     -19.381  -3.812  -6.844  0.00  0.00     0.275 HD
ENDBRANCH   5  14
ENDBRANCH   3   5
BRANCH   4  18
HETATM   18  C           1     -21.643  -7.441  -3.882  0.00  0.00     0.185 C 
BRANCH  18  19
HETATM   19  C           1     -20.873  -8.754  -3.931  0.00  0.00     0.038 C 
BRANCH  19  20
HETATM   20  C           1     -21.853  -9.916  -4.021  0.00  0.00     0.030 C 
BRANCH  20  21
HETATM   21  C           1     -21.511 -10.953  -2.959  0.00  0.00     0.230 C 
BRANCH  21  22
HETATM   22  N           1     -20.432 -11.859  -3.473  0.00  0.00    -0.079 N 
HETATM   23  H           1     -20.852 -12.773  -3.761  0.00  0.00     0.274 HD
HETATM   24  H           1     -19.969 -11.415  -4.297  0.00  0.00     0.274 HD
HETATM   25  H           1     -19.726 -12.022  -2.721  0.00  0.00     0.274 HD
ENDBRANCH  21  22
ENDBRANCH  20  21
ENDBRANCH  19  20
ENDBRANCH  18  19
BRANCH  18  26
HETATM   26  C           1     -21.586  -6.878  -2.483  0.00  0.00     0.196 C 
HETATM   27  O           1     -20.857  -7.415  -1.622  0.00  0.00    -0.646 OA
HETATM   28  O           1     -22.269  -5.873  -2.185  0.00  0.00    -0.646 OA
ENDBRANCH  18  26
ENDBRANCH   4  18
TORSDOF 10
ENDMDL
