MODEL 1
REMARK VINA RESULT:      -7.2      0.000      0.000
REMARK  9 active torsions:
REMARK  status: ('A' for Active; 'I' for Inactive)
REMARK       I    between atoms: C_1  and  N_7 
REMARK    1  A    between atoms: C_1  and  C_12 
REMARK    2  A    between atoms: C_2  and  C_24 
REMARK    3  A    between atoms: N_7  and  C_24 
REMARK    4  A    between atoms: C_8  and  Se_9 
REMARK    5  A    between atoms: C_8  and  C_17 
REMARK    6  A    between atoms: C_12  and  C_13 
REMARK    7  A    between atoms: C_12  and  N_23 
REMARK    8  A    between atoms: C_13  and  C_14 
REMARK    9  A    between atoms: C_17  and  C_24 
ROOT
HETATM    1  C           1     -21.584  -4.602  -7.652  0.00  0.00     0.249 C 
HETATM    2  O           1     -21.427  -3.457  -7.297  0.00  0.00    -0.271 OA
HETATM    3  N           1     -22.234  -4.872  -8.826  0.00  0.00    -0.345 N 
HETATM    4  H           1     -22.365  -5.830  -9.122  0.00  0.00     0.163 HD
ENDROOT
BRANCH   1   5
HETATM    5  C           1     -21.063  -5.733  -6.800  0.00  0.00     0.278 C 
BRANCH   5   6
HETATM    6  C           1     -20.873  -5.247  -5.369  0.00  0.00     0.081 C 
BRANCH   6   7
HETATM    7  C           1     -21.160  -6.367  -4.418  0.00  0.00    -0.056 A 
HETATM    8  C           1     -21.300  -6.105  -3.055  0.00  0.00     0.007 A 
HETATM    9  C           1     -21.568  -7.148  -2.169  0.00  0.00     0.001 A 
HETATM   10  C           1     -21.696  -8.453  -2.645  0.00  0.00     0.000 A 
HETATM   11  C           1     -21.558  -8.714  -4.009  0.00  0.00     0.001 A 
HETATM   12  C           1     -21.290  -7.671  -4.895  0.00  0.00     0.007 A 
ENDBRANCH   6   7
ENDBRANCH   5   6
BRANCH   5  13
HETATM   13  N           1     -19.748  -6.205  -7.345  0.00  0.00    -0.066 N 
HETATM   14  H           1     -19.012  -6.112  -6.610  0.00  0.00     0.275 HD
HETATM   15  H           1     -19.487  -5.625  -8.175  0.00  0.00     0.275 HD
HETATM   16  H           1     -19.828  -7.206  -7.633  0.00  0.00     0.275 HD
ENDBRANCH   5  13
ENDBRANCH   1   5
BRANCH   3  17
HETATM   17  C           1     -22.735  -3.785  -9.645  0.00  0.00     0.185 C 
BRANCH  17  18
HETATM   18  C           1     -24.243  -3.822  -9.662  0.00  0.00     0.196 C 
HETATM   19  O           1     -24.896  -2.778  -9.444  0.00  0.00    -0.646 OA
HETATM   20  O           1     -24.839  -4.895  -9.894  0.00  0.00    -0.646 OA
ENDBRANCH  17  18
BRANCH  17  21
HETATM   21  C           1     -22.208  -3.935 -11.066  0.00  0.00     0.036 C 
BRANCH  21  22
HETATM   22  C           1     -22.476  -2.655 -11.846  0.00  0.00     0.003 C 
BRANCH  22  23
HETATM   23 Se           1     -23.954  -2.943 -13.083  0.00  0.00     0.000 Se
HETATM   24  C           1     -22.879  -2.682 -14.687  0.00  0.00     0.000 C 
ENDBRANCH  22  23
ENDBRANCH  21  22
ENDBRANCH  17  21
ENDBRANCH   3  17
TORSDOF 9
ENDMDL
MODEL 2
REMARK VINA RESULT:      -6.8      3.810      8.061
REMARK  9 active torsions:
REMARK  status: ('A' for Active; 'I' for Inactive)
REMARK       I    between atoms: C_1  and  N_7 
REMARK    1  A    between atoms: C_1  and  C_12 
REMARK    2  A    between atoms: C_2  and  C_24 
REMARK    3  A    between atoms: N_7  and  C_24 
REMARK    4  A    between atoms: C_8  and  Se_9 
REMARK    5  A    between atoms: C_8  and  C_17 
REMARK    6  A    between atoms: C_12  and  C_13 
REMARK    7  A    between atoms: C_12  and  N_23 
REMARK    8  A    between atoms: C_13  and  C_14 
REMARK    9  A    between atoms: C_17  and  C_24 
ROOT
HETATM    1  C           1     -21.127  -5.125  -6.145  0.00  0.00     0.249 C 
HETATM    2  O           1     -20.192  -4.584  -5.601  0.00  0.00    -0.271 OA
HETATM    3  N           1     -21.534  -6.365  -5.734  0.00  0.00    -0.345 N 
HETATM    4  H           1     -22.317  -6.817  -6.190  0.00  0.00     0.163 HD
ENDROOT
BRANCH   1   5
HETATM    5  C           1     -21.844  -4.431  -7.277  0.00  0.00     0.278 C 
BRANCH   5   6
HETATM    6  C           1     -21.333  -4.969  -8.608  0.00  0.00     0.081 C 
BRANCH   6   7
HETATM    7  C           1     -22.018  -4.254  -9.732  0.00  0.00    -0.056 A 
HETATM    8  C           1     -23.411  -4.195  -9.774  0.00  0.00     0.007 A 
HETATM    9  C           1     -24.049  -3.529 -10.820  0.00  0.00     0.001 A 
HETATM   10  C           1     -23.294  -2.922 -11.824  0.00  0.00     0.000 A 
HETATM   11  C           1     -21.901  -2.981 -11.781  0.00  0.00     0.001 A 
HETATM   12  C           1     -21.263  -3.647 -10.735  0.00  0.00     0.007 A 
ENDBRANCH   6   7
ENDBRANCH   5   6
BRANCH   5  13
HETATM   13  N           1     -21.587  -2.956  -7.202  0.00  0.00    -0.066 N 
HETATM   14  H           1     -20.572  -2.788  -7.018  0.00  0.00     0.275 HD
HETATM   15  H           1     -22.155  -2.542  -6.429  0.00  0.00     0.275 HD
HETATM   16  H           1     -21.854  -2.508  -8.108  0.00  0.00     0.275 HD
ENDBRANCH   5  13
ENDBRANCH   1   5
BRANCH   3  17
HETATM   17  C           1     -20.845  -7.032  -4.646  0.00  0.00     0.185 C 
BRANCH  17  18
HETATM   18  C           1     -20.209  -8.301  -5.156  0.00  0.00     0.196 C 
HETATM   19  O           1     -20.639  -9.412  -4.776  0.00  0.00    -0.646 OA
HETATM   20  O           1     -19.253  -8.242  -5.959  0.00  0.00    -0.646 OA
ENDBRANCH  17  18
BRANCH  17  21
HETATM   21  C           1     -21.842  -7.372  -3.545  0.00  0.00     0.036 C 
BRANCH  21  22
HETATM   22  C           1     -21.787  -6.303  -2.461  0.00  0.00     0.003 C 
BRANCH  22  23
HETATM   23 Se           1     -22.303  -7.084  -0.752  0.00  0.00     0.000 Se
HETATM   24  C           1     -20.989  -8.521  -0.825  0.00  0.00     0.000 C 
ENDBRANCH  22  23
ENDBRANCH  21  22
ENDBRANCH  17  21
ENDBRANCH   3  17
TORSDOF 9
ENDMDL
MODEL 3
REMARK VINA RESULT:      -6.5      3.988      8.140
REMARK  9 active torsions:
REMARK  status: ('A' for Active; 'I' for Inactive)
REMARK       I    between atoms: C_1  and  N_7 
REMARK    1  A    between atoms: C_1  and  C_12 
REMARK    2  A    between atoms: C_2  and  C_24 
REMARK    3  A    between atoms: N_7  and  C_24 
REMARK    4  A    between atoms: C_8  and  Se_9 
REMARK    5  A    between atoms: C_8  and  C_17 
REMARK    6  A    between atoms: C_12  and  C_13 
REMARK    7  A    between atoms: C_12  and  N_23 
REMARK    8  A    between atoms: C_13  and  C_14 
REMARK    9  A    between atoms: C_17  and  C_24 
ROOT
HETATM    1  C           1     -21.561  -5.780  -5.671  0.00  0.00     0.249 C 
HETATM    2  O           1     -22.770  -5.757  -5.647  0.00  0.00    -0.271 OA
HETATM    3  N           1     -20.878  -6.641  -4.855  0.00  0.00    -0.345 N 
HETATM    4  H           1     -19.866  -6.660  -4.875  0.00  0.00     0.163 HD
ENDROOT
BRANCH   1   5
HETATM    5  C           1     -20.807  -4.861  -6.599  0.00  0.00     0.278 C 
BRANCH   5   6
HETATM    6  C           1     -20.541  -5.576  -7.918  0.00  0.00     0.081 C 
BRANCH   6   7
HETATM    7  C           1     -21.093  -4.764  -9.048  0.00  0.00    -0.056 A 
HETATM    8  C           1     -20.277  -4.426 -10.127  0.00  0.00     0.007 A 
HETATM    9  C           1     -20.792  -3.671 -11.180  0.00  0.00     0.001 A 
HETATM   10  C           1     -22.122  -3.253 -11.154  0.00  0.00     0.000 A 
HETATM   11  C           1     -22.939  -3.592 -10.075  0.00  0.00     0.001 A 
HETATM   12  C           1     -22.424  -4.348  -9.022  0.00  0.00     0.007 A 
ENDBRANCH   6   7
ENDBRANCH   5   6
BRANCH   5  13
HETATM   13  N           1     -19.503  -4.474  -5.969  0.00  0.00    -0.066 N 
HETATM   14  H           1     -19.664  -4.207  -4.971  0.00  0.00     0.275 HD
HETATM   15  H           1     -19.094  -3.663  -6.485  0.00  0.00     0.275 HD
HETATM   16  H           1     -18.842  -5.282  -6.010  0.00  0.00     0.275 HD
ENDBRANCH   5  13
ENDBRANCH   1   5
BRANCH   3  17
HETATM   17  C           1     -21.602  -7.525  -3.962  0.00  0.00     0.185 C 
BRANCH  17  18
HETATM   18  C           1     -21.615  -6.936  -2.573  0.00  0.00     0.196 C 
HETATM   19  O           1     -20.801  -7.343  -1.715  0.00  0.00    -0.646 OA
HETATM   20  O           1     -22.438  -6.043  -2.280  0.00  0.00    -0.646 OA
ENDBRANCH  17  18
BRANCH  17  21
HETATM   21  C           1     -20.919  -8.886  -3.930  0.00  0.00     0.036 C 
BRANCH  21  22
HETATM   22  C           1     -21.959  -9.973  -3.695  0.00  0.00     0.003 C 
BRANCH  22  23
HETATM   23 Se           1     -21.458 -11.029  -2.136  0.00  0.00     0.000 Se
HETATM   24  C           1     -22.791 -10.228  -0.961  0.00  0.00     0.000 C 
ENDBRANCH  22  23
ENDBRANCH  21  22
ENDBRANCH  17  21
ENDBRANCH   3  17
TORSDOF 9
ENDMDL
MODEL 4
REMARK VINA RESULT:      -6.5      2.224      3.180
REMARK  9 active torsions:
REMARK  status: ('A' for Active; 'I' for Inactive)
REMARK       I    between atoms: C_1  and  N_7 
REMARK    1  A    between atoms: C_1  and  C_12 
REMARK    2  A    between atoms: C_2  and  C_24 
REMARK    3  A    between atoms: N_7  and  C_24 
REMARK    4  A    between atoms: C_8  and  Se_9 
REMARK    5  A    between atoms: C_8  and  C_17 
REMARK    6  A    between atoms: C_12  and  C_13 
REMARK    7  A    between atoms: C_12  and  N_23 
REMARK    8  A    between atoms: C_13  and  C_14 
REMARK    9  A    between atoms: C_17  and  C_24 
ROOT
HETATM    1  C           1     -20.768  -6.796  -6.510  0.00  0.00     0.249 C 
HETATM    2  O           1     -19.622  -6.819  -6.895  0.00  0.00    -0.271 OA
HETATM    3  N           1     -21.679  -5.979  -7.123  0.00  0.00    -0.345 N 
HETATM    4  H           1     -22.639  -5.960  -6.801  0.00  0.00     0.163 HD
ENDROOT
BRANCH   1   5
HETATM    5  C           1     -21.193  -7.668  -5.354  0.00  0.00     0.278 C 
BRANCH   5   6
HETATM    6  C           1     -20.174  -7.552  -4.228  0.00  0.00     0.081 C 
BRANCH   6   7
HETATM    7  C           1     -20.886  -7.488  -2.913  0.00  0.00    -0.056 A 
HETATM    8  C           1     -21.706  -6.399  -2.617  0.00  0.00     0.007 A 
HETATM    9  C           1     -22.370  -6.340  -1.392  0.00  0.00     0.001 A 
HETATM   10  C           1     -22.215  -7.369  -0.464  0.00  0.00     0.000 A 
HETATM   11  C           1     -21.397  -8.459  -0.761  0.00  0.00     0.001 A 
HETATM   12  C           1     -20.732  -8.518  -1.985  0.00  0.00     0.007 A 
ENDBRANCH   6   7
ENDBRANCH   5   6
BRANCH   5  13
HETATM   13  N           1     -21.275  -9.094  -5.808  0.00  0.00    -0.066 N 
HETATM   14  H           1     -21.589  -9.695  -5.013  0.00  0.00     0.275 HD
HETATM   15  H           1     -20.334  -9.411  -6.134  0.00  0.00     0.275 HD
HETATM   16  H           1     -21.960  -9.172  -6.594  0.00  0.00     0.275 HD
ENDBRANCH   5  13
ENDBRANCH   1   5
BRANCH   3  17
HETATM   17  C           1     -21.271  -5.141  -8.235  0.00  0.00     0.185 C 
BRANCH  17  18
HETATM   18  C           1     -20.624  -3.886  -7.706  0.00  0.00     0.196 C 
HETATM   19  O           1     -21.259  -3.131  -6.937  0.00  0.00    -0.646 OA
HETATM   20  O           1     -19.453  -3.600  -8.036  0.00  0.00    -0.646 OA
ENDBRANCH  17  18
BRANCH  17  21
HETATM   21  C           1     -22.493  -4.771  -9.066  0.00  0.00     0.036 C 
BRANCH  21  22
HETATM   22  C           1     -22.047  -4.306 -10.447  0.00  0.00     0.003 C 
BRANCH  22  23
HETATM   23 Se           1     -23.473  -3.271 -11.278  0.00  0.00     0.000 Se
HETATM   24  C           1     -24.669  -3.379  -9.743  0.00  0.00     0.000 C 
ENDBRANCH  22  23
ENDBRANCH  21  22
ENDBRANCH  17  21
ENDBRANCH   3  17
TORSDOF 9
ENDMDL
MODEL 5
REMARK VINA RESULT:      -6.5      3.859      7.840
REMARK  9 active torsions:
REMARK  status: ('A' for Active; 'I' for Inactive)
REMARK       I    between atoms: C_1  and  N_7 
REMARK    1  A    between atoms: C_1  and  C_12 
REMARK    2  A    between atoms: C_2  and  C_24 
REMARK    3  A    between atoms: N_7  and  C_24 
REMARK    4  A    between atoms: C_8  and  Se_9 
REMARK    5  A    between atoms: C_8  and  C_17 
REMARK    6  A    between atoms: C_12  and  C_13 
REMARK    7  A    between atoms: C_12  and  N_23 
REMARK    8  A    between atoms: C_13  and  C_14 
REMARK    9  A    between atoms: C_17  and  C_24 
ROOT
HETATM    1  C           1     -21.610  -5.846  -5.495  0.00  0.00     0.249 C 
HETATM    2  O           1     -22.817  -5.900  -5.521  0.00  0.00    -0.271 OA
HETATM    3  N           1     -20.907  -6.638  -4.628  0.00  0.00    -0.345 N 
HETATM    4  H           1     -19.896  -6.592  -4.607  0.00  0.00     0.163 HD
ENDROOT
BRANCH   1   5
HETATM    5  C           1     -20.878  -4.904  -6.420  0.00  0.00     0.278 C 
BRANCH   5   6
HETATM    6  C           1     -20.561  -5.619  -7.727  0.00  0.00     0.081 C 
BRANCH   6   7
HETATM    7  C           1     -21.084  -4.815  -8.877  0.00  0.00    -0.056 A 
HETATM    8  C           1     -20.244  -4.498  -9.944  0.00  0.00     0.007 A 
HETATM    9  C           1     -20.731  -3.750 -11.016  0.00  0.00     0.001 A 
HETATM   10  C           1     -22.058  -3.319 -11.020  0.00  0.00     0.000 A 
HETATM   11  C           1     -22.898  -3.638  -9.952  0.00  0.00     0.001 A 
HETATM   12  C           1     -22.411  -4.386  -8.881  0.00  0.00     0.007 A 
ENDBRANCH   6   7
ENDBRANCH   5   6
BRANCH   5  13
HETATM   13  N           1     -19.602  -4.459  -5.772  0.00  0.00    -0.066 N 
HETATM   14  H           1     -19.392  -3.475  -6.054  0.00  0.00     0.275 HD
HETATM   15  H           1     -18.820  -5.083  -6.075  0.00  0.00     0.275 HD
HETATM   16  H           1     -19.702  -4.508  -4.732  0.00  0.00     0.275 HD
ENDBRANCH   5  13
ENDBRANCH   1   5
BRANCH   3  17
HETATM   17  C           1     -21.610  -7.543  -3.739  0.00  0.00     0.185 C 
BRANCH  17  18
HETATM   18  C           1     -21.678  -6.939  -2.358  0.00  0.00     0.196 C 
HETATM   19  O           1     -21.050  -7.467  -1.414  0.00  0.00    -0.646 OA
HETATM   20  O           1     -22.362  -5.913  -2.158  0.00  0.00    -0.646 OA
ENDBRANCH  17  18
BRANCH  17  21
HETATM   21  C           1     -20.867  -8.872  -3.676  0.00  0.00     0.036 C 
BRANCH  21  22
HETATM   22  C           1     -20.046  -9.057  -4.945  0.00  0.00     0.003 C 
BRANCH  22  23
HETATM   23 Se           1     -18.577 -10.289  -4.597  0.00  0.00     0.000 Se
HETATM   24  C           1     -18.062  -9.456  -2.911  0.00  0.00     0.000 C 
ENDBRANCH  22  23
ENDBRANCH  21  22
ENDBRANCH  17  21
ENDBRANCH   3  17
TORSDOF 9
ENDMDL
MODEL 6
REMARK VINA RESULT:      -6.4      4.275      8.021
REMARK  9 active torsions:
REMARK  status: ('A' for Active; 'I' for Inactive)
REMARK       I    between atoms: C_1  and  N_7 
REMARK    1  A    between atoms: C_1  and  C_12 
REMARK    2  A    between atoms: C_2  and  C_24 
REMARK    3  A    between atoms: N_7  and  C_24 
REMARK    4  A    between atoms: C_8  and  Se_9 
REMARK    5  A    between atoms: C_8  and  C_17 
REMARK    6  A    between atoms: C_12  and  C_13 
REMARK    7  A    between atoms: C_12  and  N_23 
REMARK    8  A    between atoms: C_13  and  C_14 
REMARK    9  A    between atoms: C_17  and  C_24 
ROOT
HETATM    1  C           1     -20.556  -6.942  -5.993  0.00  0.00     0.249 C 
HETATM    2  O           1     -19.490  -6.940  -6.563  0.00  0.00    -0.271 OA
HETATM    3  N           1     -20.784  -7.825  -4.973  0.00  0.00    -0.345 N 
HETATM    4  H           1     -21.677  -7.826  -4.496  0.00  0.00     0.163 HD
ENDROOT
BRANCH   1   5
HETATM    5  C           1     -21.633  -5.971  -6.407  0.00  0.00     0.278 C 
BRANCH   5   6
HETATM    6  C           1     -20.999  -4.639  -6.789  0.00  0.00     0.081 C 
BRANCH   6   7
HETATM    7  C           1     -21.227  -4.376  -8.246  0.00  0.00    -0.056 A 
HETATM    8  C           1     -22.476  -3.940  -8.688  0.00  0.00     0.007 A 
HETATM    9  C           1     -22.689  -3.695 -10.044  0.00  0.00     0.001 A 
HETATM   10  C           1     -21.653  -3.885 -10.958  0.00  0.00     0.000 A 
HETATM   11  C           1     -20.403  -4.320 -10.515  0.00  0.00     0.001 A 
HETATM   12  C           1     -20.191  -4.566  -9.159  0.00  0.00     0.007 A 
ENDBRANCH   6   7
ENDBRANCH   5   6
BRANCH   5  13
HETATM   13  N           1     -22.583  -5.762  -5.266  0.00  0.00    -0.066 N 
HETATM   14  H           1     -22.371  -4.852  -4.798  0.00  0.00     0.275 HD
HETATM   15  H           1     -22.476  -6.541  -4.577  0.00  0.00     0.275 HD
HETATM   16  H           1     -23.564  -5.747  -5.625  0.00  0.00     0.275 HD
ENDBRANCH   5  13
ENDBRANCH   1   5
BRANCH   3  17
HETATM   17  C           1     -19.748  -8.759  -4.575  0.00  0.00     0.185 C 
BRANCH  17  18
HETATM   18  C           1     -20.010 -10.101  -5.211  0.00  0.00     0.196 C 
HETATM   19  O           1     -19.230 -11.055  -5.000  0.00  0.00    -0.646 OA
HETATM   20  O           1     -21.007 -10.260  -5.947  0.00  0.00    -0.646 OA
ENDBRANCH  17  18
BRANCH  17  21
HETATM   21  C           1     -19.753  -8.907  -3.058  0.00  0.00     0.036 C 
BRANCH  21  22
HETATM   22  C           1     -21.190  -8.946  -2.555  0.00  0.00     0.003 C 
BRANCH  22  23
HETATM   23 Se           1     -21.313  -7.995  -0.859  0.00  0.00     0.000 Se
HETATM   24  C           1     -22.253  -6.458  -1.600  0.00  0.00     0.000 C 
ENDBRANCH  22  23
ENDBRANCH  21  22
ENDBRANCH  17  21
ENDBRANCH   3  17
TORSDOF 9
ENDMDL
MODEL 7
REMARK VINA RESULT:      -6.1      5.363      8.809
REMARK  9 active torsions:
REMARK  status: ('A' for Active; 'I' for Inactive)
REMARK       I    between atoms: C_1  and  N_7 
REMARK    1  A    between atoms: C_1  and  C_12 
REMARK    2  A    between atoms: C_2  and  C_24 
REMARK    3  A    between atoms: N_7  and  C_24 
REMARK    4  A    between atoms: C_8  and  Se_9 
REMARK    5  A    between atoms: C_8  and  C_17 
REMARK    6  A    between atoms: C_12  and  C_13 
REMARK    7  A    between atoms: C_12  and  N_23 
REMARK    8  A    between atoms: C_13  and  C_14 
REMARK    9  A    between atoms: C_17  and  C_24 
ROOT
HETATM    1  C           1     -21.473  -8.382  -3.651  0.00  0.00     0.249 C 
HETATM    2  O           1     -21.979  -9.460  -3.853  0.00  0.00    -0.271 OA
HETATM    3  N           1     -21.390  -7.892  -2.376  0.00  0.00    -0.345 N 
HETATM    4  H           1     -20.966  -6.989  -2.208  0.00  0.00     0.163 HD
ENDROOT
BRANCH   1   5
HETATM    5  C           1     -20.931  -7.575  -4.806  0.00  0.00     0.278 C 
BRANCH   5   6
HETATM    6  C           1     -21.603  -6.209  -4.831  0.00  0.00     0.081 C 
BRANCH   6   7
HETATM    7  C           1     -21.092  -5.422  -5.999  0.00  0.00    -0.056 A 
HETATM    8  C           1     -21.990  -4.847  -6.898  0.00  0.00     0.007 A 
HETATM    9  C           1     -21.515  -4.114  -7.985  0.00  0.00     0.001 A 
HETATM   10  C           1     -20.142  -3.955  -8.172  0.00  0.00     0.000 A 
HETATM   11  C           1     -19.244  -4.528  -7.271  0.00  0.00     0.001 A 
HETATM   12  C           1     -19.719  -5.262  -6.185  0.00  0.00     0.007 A 
ENDBRANCH   6   7
ENDBRANCH   5   6
BRANCH   5  13
HETATM   13  N           1     -21.212  -8.294  -6.092  0.00  0.00    -0.066 N 
HETATM   14  H           1     -20.371  -8.243  -6.710  0.00  0.00     0.275 HD
HETATM   15  H           1     -22.024  -7.845  -6.571  0.00  0.00     0.275 HD
HETATM   16  H           1     -21.436  -9.295  -5.891  0.00  0.00     0.275 HD
ENDBRANCH   5  13
ENDBRANCH   1   5
BRANCH   3  17
HETATM   17  C           1     -21.910  -8.666  -1.266  0.00  0.00     0.185 C 
BRANCH  17  18
HETATM   18  C           1     -22.655  -7.755  -0.322  0.00  0.00     0.196 C 
HETATM   19  O           1     -23.301  -8.238   0.634  0.00  0.00    -0.646 OA
HETATM   20  O           1     -22.625  -6.518  -0.495  0.00  0.00    -0.646 OA
ENDBRANCH  17  18
BRANCH  17  21
HETATM   21  C           1     -20.756  -9.330  -0.524  0.00  0.00     0.036 C 
BRANCH  21  22
HETATM   22  C           1     -20.882 -10.844  -0.638  0.00  0.00     0.003 C 
BRANCH  22  23
HETATM   23 Se           1     -19.116 -11.627  -0.895  0.00  0.00     0.000 Se
HETATM   24  C           1     -18.623 -10.440  -2.360  0.00  0.00     0.000 C 
ENDBRANCH  22  23
ENDBRANCH  21  22
ENDBRANCH  17  21
ENDBRANCH   3  17
TORSDOF 9
ENDMDL
MODEL 8
REMARK VINA RESULT:      -6.0      2.239      3.546
REMARK  9 active torsions:
REMARK  status: ('A' for Active; 'I' for Inactive)
REMARK       I    between atoms: C_1  and  N_7 
REMARK    1  A    between atoms: C_1  and  C_12 
REMARK    2  A    between atoms: C_2  and  C_24 
REMARK    3  A    between atoms: N_7  and  C_24 
REMARK    4  A    between atoms: C_8  and  Se_9 
REMARK    5  A    between atoms: C_8  and  C_17 
REMARK    6  A    between atoms: C_12  and  C_13 
REMARK    7  A    between atoms: C_12  and  N_23 
REMARK    8  A    between atoms: C_13  and  C_14 
REMARK    9  A    between atoms: C_17  and  C_24 
ROOT
HETATM    1  C           1     -21.277  -6.431  -4.872  0.00  0.00     0.249 C 
HETATM    2  O           1     -21.232  -5.563  -4.032  0.00  0.00    -0.271 OA
HETATM    3  N           1     -21.167  -6.107  -6.197  0.00  0.00    -0.345 N 
HETATM    4  H           1     -21.205  -6.834  -6.900  0.00  0.00     0.163 HD
ENDROOT
BRANCH   1   5
HETATM    5  C           1     -21.453  -7.872  -4.459  0.00  0.00     0.278 C 
BRANCH   5   6
HETATM    6  C           1     -20.588  -8.161  -3.239  0.00  0.00     0.081 C 
BRANCH   6   7
HETATM    7  C           1     -21.465  -8.425  -2.055  0.00  0.00    -0.056 A 
HETATM    8  C           1     -21.810  -7.380  -1.197  0.00  0.00     0.007 A 
HETATM    9  C           1     -22.628  -7.625  -0.094  0.00  0.00     0.001 A 
HETATM   10  C           1     -23.100  -8.915   0.151  0.00  0.00     0.000 A 
HETATM   11  C           1     -22.755  -9.959  -0.708  0.00  0.00     0.001 A 
HETATM   12  C           1     -21.938  -9.714  -1.810  0.00  0.00     0.007 A 
ENDBRANCH   6   7
ENDBRANCH   5   6
BRANCH   5  13
HETATM   13  N           1     -21.042  -8.769  -5.587  0.00  0.00    -0.066 N 
HETATM   14  H           1     -21.873  -8.983  -6.184  0.00  0.00     0.275 HD
HETATM   15  H           1     -20.652  -9.658  -5.201  0.00  0.00     0.275 HD
HETATM   16  H           1     -20.313  -8.291  -6.166  0.00  0.00     0.275 HD
ENDBRANCH   5  13
ENDBRANCH   1   5
BRANCH   3  17
HETATM   17  C           1     -20.997  -4.723  -6.595  0.00  0.00     0.185 C 
BRANCH  17  18
HETATM   18  C           1     -22.308  -4.184  -7.113  0.00  0.00     0.196 C 
HETATM   19  O           1     -22.316  -3.219  -7.908  0.00  0.00    -0.646 OA
HETATM   20  O           1     -23.385  -4.702  -6.747  0.00  0.00    -0.646 OA
ENDBRANCH  17  18
BRANCH  17  21
HETATM   21  C           1     -19.944  -4.635  -7.692  0.00  0.00     0.036 C 
BRANCH  21  22
HETATM   22  C           1     -20.415  -5.413  -8.913  0.00  0.00     0.003 C 
BRANCH  22  23
HETATM   23 Se           1     -20.147  -4.336 -10.515  0.00  0.00     0.000 Se
HETATM   24  C           1     -22.000  -4.459 -11.106  0.00  0.00     0.000 C 
ENDBRANCH  22  23
ENDBRANCH  21  22
ENDBRANCH  17  21
ENDBRANCH   3  17
TORSDOF 9
ENDMDL
MODEL 9
REMARK VINA RESULT:      -6.0      4.649      8.091
REMARK  9 active torsions:
REMARK  status: ('A' for Active; 'I' for Inactive)
REMARK       I    between atoms: C_1  and  N_7 
REMARK    1  A    between atoms: C_1  and  C_12 
REMARK    2  A    between atoms: C_2  and  C_24 
REMARK    3  A    between atoms: N_7  and  C_24 
REMARK    4  A    between atoms: C_8  and  Se_9 
REMARK    5  A    between atoms: C_8  and  C_17 
REMARK    6  A    between atoms: C_12  and  C_13 
REMARK    7  A    between atoms: C_12  and  N_23 
REMARK    8  A    between atoms: C_13  and  C_14 
REMARK    9  A    between atoms: C_17  and  C_24 
ROOT
HETATM    1  C           1     -20.544  -7.462  -5.360  0.00  0.00     0.249 C 
HETATM    2  O           1     -19.708  -7.552  -6.229  0.00  0.00    -0.271 OA
HETATM    3  N           1     -20.794  -8.528  -4.538  0.00  0.00    -0.345 N 
HETATM    4  H           1     -21.494  -8.452  -3.811  0.00  0.00     0.163 HD
ENDROOT
BRANCH   1   5
HETATM    5  C           1     -21.311  -6.175  -5.182  0.00  0.00     0.278 C 
BRANCH   5   6
HETATM    6  C           1     -20.467  -5.008  -5.677  0.00  0.00     0.081 C 
BRANCH   6   7
HETATM    7  C           1     -20.906  -4.623  -7.056  0.00  0.00    -0.056 A 
HETATM    8  C           1     -19.960  -4.460  -8.068  0.00  0.00     0.007 A 
HETATM    9  C           1     -20.368  -4.103  -9.352  0.00  0.00     0.001 A 
HETATM   10  C           1     -21.722  -3.907  -9.625  0.00  0.00     0.000 A 
HETATM   11  C           1     -22.668  -4.071  -8.612  0.00  0.00     0.001 A 
HETATM   12  C           1     -22.260  -4.428  -7.328  0.00  0.00     0.007 A 
ENDBRANCH   6   7
ENDBRANCH   5   6
BRANCH   5  13
HETATM   13  N           1     -21.629  -5.981  -3.730  0.00  0.00    -0.066 N 
HETATM   14  H           1     -21.900  -4.985  -3.562  0.00  0.00     0.275 HD
HETATM   15  H           1     -20.789  -6.215  -3.154  0.00  0.00     0.275 HD
HETATM   16  H           1     -22.422  -6.606  -3.459  0.00  0.00     0.275 HD
ENDBRANCH   5  13
ENDBRANCH   1   5
BRANCH   3  17
HETATM   17  C           1     -20.057  -9.765  -4.709  0.00  0.00     0.185 C 
BRANCH  17  18
HETATM   18  C           1     -20.939 -10.786  -5.386  0.00  0.00     0.196 C 
HETATM   19  O           1     -20.709 -11.124  -6.568  0.00  0.00    -0.646 OA
HETATM   20  O           1     -21.898 -11.293  -4.765  0.00  0.00    -0.646 OA
ENDBRANCH  17  18
BRANCH  17  21
HETATM   21  C           1     -19.626 -10.292  -3.347  0.00  0.00     0.036 C 
BRANCH  21  22
HETATM   22  C           1     -18.445 -11.239  -3.518  0.00  0.00     0.003 C 
BRANCH  22  23
HETATM   23 Se           1     -17.029 -10.342  -4.512  0.00  0.00     0.000 Se
HETATM   24  C           1     -16.227  -9.513  -2.941  0.00  0.00     0.000 C 
ENDBRANCH  22  23
ENDBRANCH  21  22
ENDBRANCH  17  21
ENDBRANCH   3  17
TORSDOF 9
ENDMDL
