MODEL 1
REMARK VINA RESULT:      -8.3      0.000      0.000
REMARK  5 active torsions:
REMARK  status: ('A' for Active; 'I' for Inactive)
REMARK    1  A    between atoms: C_1  and  C_2 
REMARK       I    between atoms: C_9  and  N_19 
REMARK    2  A    between atoms: C_9  and  C_11 
REMARK    3  A    between atoms: C_11  and  C_13 
REMARK    4  A    between atoms: C_11  and  N_21 
REMARK    5  A    between atoms: C_13  and  C_18 
ROOT
HETATM    1  C           1     -20.865  -5.153  -5.960  0.00  0.00     0.279 C 
ENDROOT
BRANCH   1   2
HETATM    2  C           1     -20.903  -6.615  -5.589  0.00  0.00     0.251 C 
HETATM    3  N           1     -21.324  -6.994  -4.342  0.00  0.00    -0.336 N 
HETATM    4  C           1     -20.707  -7.976  -3.456  0.00  0.00     0.188 C 
HETATM    5  C           1     -22.488  -6.504  -3.609  0.00  0.00     0.127 C 
HETATM    6  C           1     -20.814  -7.341  -2.081  0.00  0.00     0.038 C 
HETATM    7  C           1     -21.989  -6.375  -2.181  0.00  0.00     0.022 C 
HETATM    8  O           1     -20.565  -7.451  -6.392  0.00  0.00    -0.271 OA
BRANCH   4   9
HETATM    9  C           1     -21.454  -9.286  -3.503  0.00  0.00     0.196 C 
HETATM   10  O           1     -21.602  -9.882  -4.592  0.00  0.00    -0.646 OA
HETATM   11  O           1     -21.925  -9.776  -2.454  0.00  0.00    -0.646 OA
ENDBRANCH   4   9
ENDBRANCH   1   2
BRANCH   1  12
HETATM   12  C           1     -20.658  -5.013  -7.462  0.00  0.00     0.083 C 
BRANCH  12  13
HETATM   13  C           1     -21.919  -4.517  -8.097  0.00  0.00    -0.028 A 
HETATM   14  C           1     -23.141  -4.385  -7.479  0.00  0.00     0.096 A 
HETATM   15  N           1     -24.028  -3.900  -8.403  0.00  0.00    -0.365 N 
HETATM   16  C           1     -23.400  -3.715  -9.614  0.00  0.00     0.042 A 
HETATM   17  H           1     -25.041  -3.700  -8.215  0.00  0.00     0.165 HD
HETATM   18  C           1     -23.904  -3.243 -10.832  0.00  0.00     0.030 A 
HETATM   19  C           1     -22.069  -4.097  -9.448  0.00  0.00    -0.002 A 
HETATM   20  C           1     -23.017  -3.161 -11.910  0.00  0.00     0.002 A 
HETATM   21  C           1     -21.682  -3.535 -11.773  0.00  0.00     0.001 A 
HETATM   22  C           1     -21.194  -4.004 -10.548  0.00  0.00     0.014 A 
ENDBRANCH  12  13
ENDBRANCH   1  12
BRANCH   1  23
HETATM   23  N           1     -19.736  -4.484  -5.235  0.00  0.00    -0.066 N 
HETATM   24  H           1     -19.398  -3.667  -5.794  0.00  0.00     0.275 HD
HETATM   25  H           1     -20.069  -4.151  -4.302  0.00  0.00     0.275 HD
HETATM   26  H           1     -18.953  -5.165  -5.105  0.00  0.00     0.275 HD
ENDBRANCH   1  23
TORSDOF 5
ENDMDL
MODEL 2
REMARK VINA RESULT:      -7.8      2.830      7.718
REMARK  5 active torsions:
REMARK  status: ('A' for Active; 'I' for Inactive)
REMARK    1  A    between atoms: C_1  and  C_2 
REMARK       I    between atoms: C_9  and  N_19 
REMARK    2  A    between atoms: C_9  and  C_11 
REMARK    3  A    between atoms: C_11  and  C_13 
REMARK    4  A    between atoms: C_11  and  N_21 
REMARK    5  A    between atoms: C_13  and  C_18 
ROOT
HETATM    1  C           1     -21.211  -4.816  -7.836  0.00  0.00     0.279 C 
ENDROOT
BRANCH   1   2
HETATM    2  C           1     -22.501  -4.307  -8.430  0.00  0.00     0.251 C 
HETATM    3  N           1     -22.588  -4.072  -9.777  0.00  0.00    -0.336 N 
HETATM    4  C           1     -23.174  -2.911 -10.440  0.00  0.00     0.188 C 
HETATM    5  C           1     -22.116  -4.927 -10.861  0.00  0.00     0.127 C 
HETATM    6  C           1     -22.213  -2.623 -11.581  0.00  0.00     0.038 C 
HETATM    7  C           1     -21.521  -3.952 -11.861  0.00  0.00     0.022 C 
HETATM    8  O           1     -23.457  -4.108  -7.719  0.00  0.00    -0.271 OA
BRANCH   4   9
HETATM    9  C           1     -24.552  -3.231 -10.965  0.00  0.00     0.196 C 
HETATM   10  O           1     -24.747  -3.316 -12.198  0.00  0.00    -0.646 OA
HETATM   11  O           1     -25.498  -3.413 -10.169  0.00  0.00    -0.646 OA
ENDBRANCH   4   9
ENDBRANCH   1   2
BRANCH   1  12
HETATM   12  C           1     -21.316  -4.818  -6.317  0.00  0.00     0.083 C 
BRANCH  12  13
HETATM   13  C           1     -20.770  -6.105  -5.780  0.00  0.00    -0.028 A 
HETATM   14  C           1     -20.001  -7.011  -6.472  0.00  0.00     0.096 A 
HETATM   15  N           1     -19.710  -8.048  -5.625  0.00  0.00    -0.365 N 
HETATM   16  C           1     -20.281  -7.828  -4.391  0.00  0.00     0.042 A 
HETATM   17  H           1     -19.136  -8.889  -5.879  0.00  0.00     0.165 HD
HETATM   18  C           1     -20.251  -8.608  -3.228  0.00  0.00     0.030 A 
HETATM   19  C           1     -20.955  -6.609  -4.463  0.00  0.00    -0.002 A 
HETATM   20  C           1     -20.933  -8.123  -2.108  0.00  0.00     0.002 A 
HETATM   21  C           1     -21.615  -6.909  -2.151  0.00  0.00     0.001 A 
HETATM   22  C           1     -21.634  -6.141  -3.321  0.00  0.00     0.014 A 
ENDBRANCH  12  13
ENDBRANCH   1  12
BRANCH   1  23
HETATM   23  N           1     -20.081  -3.925  -8.258  0.00  0.00    -0.066 N 
HETATM   24  H           1     -20.280  -2.944  -7.959  0.00  0.00     0.275 HD
HETATM   25  H           1     -19.195  -4.251  -7.810  0.00  0.00     0.275 HD
HETATM   26  H           1     -19.981  -3.959  -9.298  0.00  0.00     0.275 HD
ENDBRANCH   1  23
TORSDOF 5
ENDMDL
MODEL 3
REMARK VINA RESULT:      -7.6      1.578      2.193
REMARK  5 active torsions:
REMARK  status: ('A' for Active; 'I' for Inactive)
REMARK    1  A    between atoms: C_1  and  C_2 
REMARK       I    between atoms: C_9  and  N_19 
REMARK    2  A    between atoms: C_9  and  C_11 
REMARK    3  A    between atoms: C_11  and  C_13 
REMARK    4  A    between atoms: C_11  and  N_21 
REMARK    5  A    between atoms: C_13  and  C_18 
ROOT
HETATM    1  C           1     -20.307  -6.013  -6.050  0.00  0.00     0.279 C 
ENDROOT
BRANCH   1   2
HETATM    2  C           1     -20.800  -6.464  -4.697  0.00  0.00     0.251 C 
HETATM    3  N           1     -20.645  -7.770  -4.313  0.00  0.00    -0.336 N 
HETATM    4  C           1     -21.635  -8.632  -3.674  0.00  0.00     0.188 C 
HETATM    5  C           1     -19.454  -8.603  -4.453  0.00  0.00     0.127 C 
HETATM    6  C           1     -21.441  -9.974  -4.358  0.00  0.00     0.038 C 
HETATM    7  C           1     -20.004  -9.956  -4.866  0.00  0.00     0.022 C 
HETATM    8  O           1     -21.329  -5.675  -3.952  0.00  0.00    -0.271 OA
BRANCH   4   9
HETATM    9  C           1     -21.374  -8.741  -2.192  0.00  0.00     0.196 C 
HETATM   10  O           1     -21.181  -7.708  -1.513  0.00  0.00    -0.646 OA
HETATM   11  O           1     -21.353  -9.863  -1.641  0.00  0.00    -0.646 OA
ENDBRANCH   4   9
ENDBRANCH   1   2
BRANCH   1  12
HETATM   12  C           1     -20.599  -4.529  -6.229  0.00  0.00     0.083 C 
BRANCH  12  13
HETATM   13  C           1     -21.660  -4.350  -7.270  0.00  0.00    -0.028 A 
HETATM   14  C           1     -23.017  -4.319  -7.048  0.00  0.00     0.096 A 
HETATM   15  N           1     -23.636  -4.138  -8.256  0.00  0.00    -0.365 N 
HETATM   16  C           1     -22.699  -4.052  -9.262  0.00  0.00     0.042 A 
HETATM   17  H           1     -24.674  -4.075  -8.396  0.00  0.00     0.165 HD
HETATM   18  C           1     -22.866  -3.871 -10.640  0.00  0.00     0.030 A 
HETATM   19  C           1     -21.445  -4.183  -8.666  0.00  0.00    -0.002 A 
HETATM   20  C           1     -21.712  -3.822 -11.430  0.00  0.00     0.002 A 
HETATM   21  C           1     -20.447  -3.950 -10.861  0.00  0.00     0.001 A 
HETATM   22  C           1     -20.298  -4.130  -9.481  0.00  0.00     0.014 A 
ENDBRANCH  12  13
ENDBRANCH   1  12
BRANCH   1  23
HETATM   23  N           1     -21.009  -6.793  -7.122  0.00  0.00    -0.066 N 
HETATM   24  H           1     -20.373  -6.907  -7.943  0.00  0.00     0.275 HD
HETATM   25  H           1     -21.270  -7.735  -6.752  0.00  0.00     0.275 HD
HETATM   26  H           1     -21.871  -6.281  -7.417  0.00  0.00     0.275 HD
ENDBRANCH   1  23
TORSDOF 5
ENDMDL
MODEL 4
REMARK VINA RESULT:      -7.5      2.126      3.103
REMARK  5 active torsions:
REMARK  status: ('A' for Active; 'I' for Inactive)
REMARK    1  A    between atoms: C_1  and  C_2 
REMARK       I    between atoms: C_9  and  N_19 
REMARK    2  A    between atoms: C_9  and  C_11 
REMARK    3  A    between atoms: C_11  and  C_13 
REMARK    4  A    between atoms: C_11  and  N_21 
REMARK    5  A    between atoms: C_13  and  C_18 
ROOT
HETATM    1  C           1     -21.040  -6.805  -5.084  0.00  0.00     0.279 C 
ENDROOT
BRANCH   1   2
HETATM    2  C           1     -21.533  -6.924  -3.663  0.00  0.00     0.251 C 
HETATM    3  N           1     -21.098  -7.954  -2.872  0.00  0.00    -0.336 N 
HETATM    4  C           1     -21.901  -8.803  -1.996  0.00  0.00     0.188 C 
HETATM    5  C           1     -19.731  -8.444  -2.721  0.00  0.00     0.127 C 
HETATM    6  C           1     -21.319 -10.190  -2.202  0.00  0.00     0.038 C 
HETATM    7  C           1     -19.889  -9.953  -2.675  0.00  0.00     0.022 C 
HETATM    8  O           1     -22.308  -6.110  -3.222  0.00  0.00    -0.271 OA
BRANCH   4   9
HETATM    9  C           1     -21.763  -8.370  -0.557  0.00  0.00     0.196 C 
HETATM   10  O           1     -22.113  -7.220  -0.214  0.00  0.00    -0.646 OA
HETATM   11  O           1     -21.301  -9.162   0.293  0.00  0.00    -0.646 OA
ENDBRANCH   4   9
ENDBRANCH   1   2
BRANCH   1  12
HETATM   12  C           1     -21.806  -5.699  -5.798  0.00  0.00     0.083 C 
BRANCH  12  13
HETATM   13  C           1     -20.959  -5.131  -6.893  0.00  0.00    -0.028 A 
HETATM   14  C           1     -19.608  -4.880  -6.826  0.00  0.00     0.096 A 
HETATM   15  N           1     -19.217  -4.364  -8.033  0.00  0.00    -0.365 N 
HETATM   16  C           1     -20.295  -4.276  -8.884  0.00  0.00     0.042 A 
HETATM   17  H           1     -18.237  -4.077  -8.275  0.00  0.00     0.165 HD
HETATM   18  C           1     -20.371  -3.813 -10.204  0.00  0.00     0.030 A 
HETATM   19  C           1     -21.407  -4.753  -8.189  0.00  0.00    -0.002 A 
HETATM   20  C           1     -21.623  -3.842 -10.828  0.00  0.00     0.002 A 
HETATM   21  C           1     -22.749  -4.314 -10.157  0.00  0.00     0.001 A 
HETATM   22  C           1     -22.656  -4.772  -8.838  0.00  0.00     0.014 A 
ENDBRANCH  12  13
ENDBRANCH   1  12
BRANCH   1  23
HETATM   23  N           1     -21.259  -8.106  -5.798  0.00  0.00    -0.066 N 
HETATM   24  H           1     -21.549  -8.837  -5.110  0.00  0.00     0.275 HD
HETATM   25  H           1     -22.009  -7.987  -6.515  0.00  0.00     0.275 HD
HETATM   26  H           1     -20.371  -8.400  -6.266  0.00  0.00     0.275 HD
ENDBRANCH   1  23
TORSDOF 5
ENDMDL
MODEL 5
REMARK VINA RESULT:      -7.3      2.482      7.689
REMARK  5 active torsions:
REMARK  status: ('A' for Active; 'I' for Inactive)
REMARK    1  A    between atoms: C_1  and  C_2 
REMARK       I    between atoms: C_9  and  N_19 
REMARK    2  A    between atoms: C_9  and  C_11 
REMARK    3  A    between atoms: C_11  and  C_13 
REMARK    4  A    between atoms: C_11  and  N_21 
REMARK    5  A    between atoms: C_13  and  C_18 
ROOT
HETATM    1  C           1     -21.127  -7.536  -5.452  0.00  0.00     0.279 C 
ENDROOT
BRANCH   1   2
HETATM    2  C           1     -20.417  -6.735  -6.515  0.00  0.00     0.251 C 
HETATM    3  N           1     -21.046  -5.670  -7.104  0.00  0.00    -0.336 N 
HETATM    4  C           1     -21.094  -5.341  -8.525  0.00  0.00     0.188 C 
HETATM    5  C           1     -21.815  -4.617  -6.447  0.00  0.00     0.127 C 
HETATM    6  C           1     -22.524  -4.878  -8.742  0.00  0.00     0.038 C 
HETATM    7  C           1     -22.997  -4.398  -7.374  0.00  0.00     0.022 C 
HETATM    8  O           1     -19.294  -7.031  -6.845  0.00  0.00    -0.271 OA
BRANCH   4   9
HETATM    9  C           1     -20.116  -4.239  -8.853  0.00  0.00     0.196 C 
HETATM   10  O           1     -19.210  -3.945  -8.044  0.00  0.00    -0.646 OA
HETATM   11  O           1     -20.212  -3.620  -9.935  0.00  0.00    -0.646 OA
ENDBRANCH   4   9
ENDBRANCH   1   2
BRANCH   1  12
HETATM   12  C           1     -20.254  -7.619  -4.207  0.00  0.00     0.083 C 
BRANCH  12  13
HETATM   13  C           1     -21.059  -7.237  -3.005  0.00  0.00    -0.028 A 
HETATM   14  C           1     -21.804  -6.089  -2.859  0.00  0.00     0.096 A 
HETATM   15  N           1     -22.384  -6.121  -1.618  0.00  0.00    -0.365 N 
HETATM   16  C           1     -22.027  -7.274  -0.956  0.00  0.00     0.042 A 
HETATM   17  H           1     -23.011  -5.374  -1.229  0.00  0.00     0.165 HD
HETATM   18  C           1     -22.377  -7.728   0.322  0.00  0.00     0.030 A 
HETATM   19  C           1     -21.191  -7.995  -1.809  0.00  0.00    -0.002 A 
HETATM   20  C           1     -21.854  -8.958   0.735  0.00  0.00     0.002 A 
HETATM   21  C           1     -21.017  -9.700  -0.096  0.00  0.00     0.001 A 
HETATM   22  C           1     -20.678  -9.231  -1.370  0.00  0.00     0.014 A 
ENDBRANCH  12  13
ENDBRANCH   1  12
BRANCH   1  23
HETATM   23  N           1     -21.397  -8.919  -5.966  0.00  0.00    -0.066 N 
HETATM   24  H           1     -21.692  -9.534  -5.175  0.00  0.00     0.275 HD
HETATM   25  H           1     -22.159  -8.882  -6.680  0.00  0.00     0.275 HD
HETATM   26  H           1     -20.528  -9.304  -6.401  0.00  0.00     0.275 HD
ENDBRANCH   1  23
TORSDOF 5
ENDMDL
MODEL 6
REMARK VINA RESULT:      -7.1      4.927      7.323
REMARK  5 active torsions:
REMARK  status: ('A' for Active; 'I' for Inactive)
REMARK    1  A    between atoms: C_1  and  C_2 
REMARK       I    between atoms: C_9  and  N_19 
REMARK    2  A    between atoms: C_9  and  C_11 
REMARK    3  A    between atoms: C_11  and  C_13 
REMARK    4  A    between atoms: C_11  and  N_21 
REMARK    5  A    between atoms: C_13  and  C_18 
ROOT
HETATM    1  C           1     -19.768  -8.261  -4.921  0.00  0.00     0.279 C 
ENDROOT
BRANCH   1   2
HETATM    2  C           1     -19.113  -9.591  -5.204  0.00  0.00     0.251 C 
HETATM    3  N           1     -18.011  -9.976  -4.487  0.00  0.00    -0.336 N 
HETATM    4  C           1     -16.780 -10.570  -5.000  0.00  0.00     0.188 C 
HETATM    5  C           1     -17.812  -9.883  -3.044  0.00  0.00     0.127 C 
HETATM    6  C           1     -15.687  -9.890  -4.195  0.00  0.00     0.038 C 
HETATM    7  C           1     -16.366  -9.442  -2.905  0.00  0.00     0.022 C 
HETATM    8  O           1     -19.560 -10.315  -6.060  0.00  0.00    -0.271 OA
BRANCH   4   9
HETATM    9  C           1     -16.768 -12.061  -4.772  0.00  0.00     0.196 C 
HETATM   10  O           1     -17.732 -12.760  -5.154  0.00  0.00    -0.646 OA
HETATM   11  O           1     -15.795 -12.600  -4.201  0.00  0.00    -0.646 OA
ENDBRANCH   4   9
ENDBRANCH   1   2
BRANCH   1  12
HETATM   12  C           1     -21.245  -8.475  -4.617  0.00  0.00     0.083 C 
BRANCH  12  13
HETATM   13  C           1     -21.636  -7.651  -3.431  0.00  0.00    -0.028 A 
HETATM   14  C           1     -21.919  -6.305  -3.436  0.00  0.00     0.096 A 
HETATM   15  N           1     -22.231  -5.937  -2.154  0.00  0.00    -0.365 N 
HETATM   16  C           1     -22.154  -7.025  -1.315  0.00  0.00     0.042 A 
HETATM   17  H           1     -22.491  -4.965  -1.854  0.00  0.00     0.165 HD
HETATM   18  C           1     -22.384  -7.124   0.063  0.00  0.00     0.030 A 
HETATM   19  C           1     -21.780  -8.119  -2.096  0.00  0.00    -0.002 A 
HETATM   20  C           1     -22.226  -8.381   0.656  0.00  0.00     0.002 A 
HETATM   21  C           1     -21.854  -9.490  -0.099  0.00  0.00     0.001 A 
HETATM   22  C           1     -21.628  -9.375  -1.476  0.00  0.00     0.014 A 
ENDBRANCH  12  13
ENDBRANCH   1  12
BRANCH   1  23
HETATM   23  N           1     -19.629  -7.371  -6.120  0.00  0.00    -0.066 N 
HETATM   24  H           1     -18.616  -7.183  -6.300  0.00  0.00     0.275 HD
HETATM   25  H           1     -20.047  -7.842  -6.954  0.00  0.00     0.275 HD
HETATM   26  H           1     -20.125  -6.468  -5.943  0.00  0.00     0.275 HD
ENDBRANCH   1  23
TORSDOF 5
ENDMDL
MODEL 7
REMARK VINA RESULT:      -7.0      2.738      7.334
REMARK  5 active torsions:
REMARK  status: ('A' for Active; 'I' for Inactive)
REMARK    1  A    between atoms: C_1  and  C_2 
REMARK       I    between atoms: C_9  and  N_19 
REMARK    2  A    between atoms: C_9  and  C_11 
REMARK    3  A    between atoms: C_11  and  C_13 
REMARK    4  A    between atoms: C_11  and  N_21 
REMARK    5  A    between atoms: C_13  and  C_18 
ROOT
HETATM    1  C           1     -19.945  -5.527  -6.563  0.00  0.00     0.279 C 
ENDROOT
BRANCH   1   2
HETATM    2  C           1     -20.009  -5.018  -7.982  0.00  0.00     0.251 C 
HETATM    3  N           1     -21.177  -4.493  -8.469  0.00  0.00    -0.336 N 
HETATM    4  C           1     -21.801  -4.757  -9.762  0.00  0.00     0.188 C 
HETATM    5  C           1     -22.070  -3.546  -7.807  0.00  0.00     0.127 C 
HETATM    6  C           1     -23.281  -4.855  -9.437  0.00  0.00     0.038 C 
HETATM    7  C           1     -23.459  -4.054  -8.153  0.00  0.00     0.022 C 
HETATM    8  O           1     -19.032  -5.073  -8.689  0.00  0.00    -0.271 OA
BRANCH   4   9
HETATM    9  C           1     -21.535  -3.628 -10.727  0.00  0.00     0.196 C 
HETATM   10  O           1     -20.359  -3.313 -11.011  0.00  0.00    -0.646 OA
HETATM   11  O           1     -22.490  -3.008 -11.243  0.00  0.00    -0.646 OA
ENDBRANCH   4   9
ENDBRANCH   1   2
BRANCH   1  12
HETATM   12  C           1     -21.054  -6.545  -6.336  0.00  0.00     0.083 C 
BRANCH  12  13
HETATM   13  C           1     -20.717  -7.396  -5.152  0.00  0.00    -0.028 A 
HETATM   14  C           1     -19.902  -8.505  -5.155  0.00  0.00     0.096 A 
HETATM   15  N           1     -19.853  -8.993  -3.876  0.00  0.00    -0.365 N 
HETATM   16  C           1     -20.625  -8.217  -3.041  0.00  0.00     0.042 A 
HETATM   17  H           1     -19.306  -9.837  -3.576  0.00  0.00     0.165 HD
HETATM   18  C           1     -20.872  -8.335  -1.668  0.00  0.00     0.030 A 
HETATM   19  C           1     -21.181  -7.203  -3.822  0.00  0.00    -0.002 A 
HETATM   20  C           1     -21.713  -7.386  -1.079  0.00  0.00     0.002 A 
HETATM   21  C           1     -22.282  -6.362  -1.833  0.00  0.00     0.001 A 
HETATM   22  C           1     -22.024  -6.258  -3.206  0.00  0.00     0.014 A 
ENDBRANCH  12  13
ENDBRANCH   1  12
BRANCH   1  23
HETATM   23  N           1     -20.119  -4.379  -5.613  0.00  0.00    -0.066 N 
HETATM   24  H           1     -20.330  -3.509  -6.152  0.00  0.00     0.275 HD
HETATM   25  H           1     -20.909  -4.583  -4.961  0.00  0.00     0.275 HD
HETATM   26  H           1     -19.239  -4.244  -5.065  0.00  0.00     0.275 HD
ENDBRANCH   1  23
TORSDOF 5
ENDMDL
MODEL 8
REMARK VINA RESULT:      -6.9      4.259      6.921
REMARK  5 active torsions:
REMARK  status: ('A' for Active; 'I' for Inactive)
REMARK    1  A    between atoms: C_1  and  C_2 
REMARK       I    between atoms: C_9  and  N_19 
REMARK    2  A    between atoms: C_9  and  C_11 
REMARK    3  A    between atoms: C_11  and  C_13 
REMARK    4  A    between atoms: C_11  and  N_21 
REMARK    5  A    between atoms: C_13  and  C_18 
ROOT
HETATM    1  C           1     -19.482 -10.012  -5.098  0.00  0.00     0.279 C 
ENDROOT
BRANCH   1   2
HETATM    2  C           1     -19.183 -10.840  -3.873  0.00  0.00     0.251 C 
HETATM    3  N           1     -18.045 -10.602  -3.148  0.00  0.00    -0.336 N 
HETATM    4  C           1     -17.104 -11.586  -2.622  0.00  0.00     0.188 C 
HETATM    5  C           1     -17.509  -9.309  -2.733  0.00  0.00     0.127 C 
HETATM    6  C           1     -15.745 -10.954  -2.866  0.00  0.00     0.038 C 
HETATM    7  C           1     -16.012  -9.454  -2.935  0.00  0.00     0.022 C 
HETATM    8  O           1     -19.946 -11.710  -3.530  0.00  0.00    -0.271 OA
BRANCH   4   9
HETATM    9  C           1     -17.334 -11.814  -1.149  0.00  0.00     0.196 C 
HETATM   10  O           1     -16.371 -11.775  -0.352  0.00  0.00    -0.646 OA
HETATM   11  O           1     -18.487 -12.042  -0.723  0.00  0.00    -0.646 OA
ENDBRANCH   4   9
ENDBRANCH   1   2
BRANCH   1  12
HETATM   12  C           1     -20.983  -9.772  -5.197  0.00  0.00     0.083 C 
BRANCH  12  13
HETATM   13  C           1     -21.311  -8.422  -4.639  0.00  0.00    -0.028 A 
HETATM   14  C           1     -21.394  -7.248  -5.351  0.00  0.00     0.096 A 
HETATM   15  N           1     -21.716  -6.247  -4.473  0.00  0.00    -0.365 N 
HETATM   16  C           1     -21.842  -6.754  -3.200  0.00  0.00     0.042 A 
HETATM   17  H           1     -21.846  -5.239  -4.734  0.00  0.00     0.165 HD
HETATM   18  C           1     -22.155  -6.109  -1.996  0.00  0.00     0.030 A 
HETATM   19  C           1     -21.591  -8.124  -3.277  0.00  0.00    -0.002 A 
HETATM   20  C           1     -22.213  -6.893  -0.840  0.00  0.00     0.002 A 
HETATM   21  C           1     -21.968  -8.264  -0.887  0.00  0.00     0.001 A 
HETATM   22  C           1     -21.656  -8.893  -2.098  0.00  0.00     0.014 A 
ENDBRANCH  12  13
ENDBRANCH   1  12
BRANCH   1  23
HETATM   23  N           1     -19.012 -10.743  -6.321  0.00  0.00    -0.066 N 
HETATM   24  H           1     -19.688 -11.506  -6.553  0.00  0.00     0.275 HD
HETATM   25  H           1     -18.953 -10.076  -7.123  0.00  0.00     0.275 HD
HETATM   26  H           1     -18.069 -11.156  -6.139  0.00  0.00     0.275 HD
ENDBRANCH   1  23
TORSDOF 5
ENDMDL
MODEL 9
REMARK VINA RESULT:      -6.7      5.236      7.675
REMARK  5 active torsions:
REMARK  status: ('A' for Active; 'I' for Inactive)
REMARK    1  A    between atoms: C_1  and  C_2 
REMARK       I    between atoms: C_9  and  N_19 
REMARK    2  A    between atoms: C_9  and  C_11 
REMARK    3  A    between atoms: C_11  and  C_13 
REMARK    4  A    between atoms: C_11  and  N_21 
REMARK    5  A    between atoms: C_13  and  C_18 
ROOT
HETATM    1  C           1     -19.842  -8.584  -4.919  0.00  0.00     0.279 C 
ENDROOT
BRANCH   1   2
HETATM    2  C           1     -18.979  -9.756  -5.316  0.00  0.00     0.251 C 
HETATM    3  N           1     -17.866 -10.067  -4.580  0.00  0.00    -0.336 N 
HETATM    4  C           1     -16.536 -10.403  -5.077  0.00  0.00     0.188 C 
HETATM    5  C           1     -17.753 -10.135  -3.126  0.00  0.00     0.127 C 
HETATM    6  C           1     -15.599  -9.682  -4.124  0.00  0.00     0.038 C 
HETATM    7  C           1     -16.399  -9.510  -2.838  0.00  0.00     0.022 C 
HETATM    8  O           1     -19.268 -10.420  -6.282  0.00  0.00    -0.271 OA
BRANCH   4   9
HETATM    9  C           1     -16.307 -11.894  -5.032  0.00  0.00     0.196 C 
HETATM   10  O           1     -17.176 -12.674  -5.478  0.00  0.00    -0.646 OA
HETATM   11  O           1     -15.248 -12.350  -4.549  0.00  0.00    -0.646 OA
ENDBRANCH   4   9
ENDBRANCH   1   2
BRANCH   1  12
HETATM   12  C           1     -21.287  -9.043  -4.771  0.00  0.00     0.083 C 
BRANCH  12  13
HETATM   13  C           1     -21.511  -9.544  -3.378  0.00  0.00    -0.028 A 
HETATM   14  C           1     -21.480 -10.858  -2.974  0.00  0.00     0.096 A 
HETATM   15  N           1     -21.735 -10.889  -1.628  0.00  0.00    -0.365 N 
HETATM   16  C           1     -21.931  -9.613  -1.152  0.00  0.00     0.042 A 
HETATM   17  H           1     -21.775 -11.761  -1.044  0.00  0.00     0.165 HD
HETATM   18  C           1     -22.215  -9.164   0.144  0.00  0.00     0.030 A 
HETATM   19  C           1     -21.795  -8.745  -2.236  0.00  0.00    -0.002 A 
HETATM   20  C           1     -22.365  -7.786   0.332  0.00  0.00     0.002 A 
HETATM   21  C           1     -22.234  -6.897  -0.732  0.00  0.00     0.001 A 
HETATM   22  C           1     -21.950  -7.362  -2.021  0.00  0.00     0.014 A 
ENDBRANCH  12  13
ENDBRANCH   1  12
BRANCH   1  23
HETATM   23  N           1     -19.761  -7.523  -5.976  0.00  0.00    -0.066 N 
HETATM   24  H           1     -18.775  -7.186  -6.057  0.00  0.00     0.275 HD
HETATM   25  H           1     -20.068  -7.920  -6.892  0.00  0.00     0.275 HD
HETATM   26  H           1     -20.382  -6.724  -5.715  0.00  0.00     0.275 HD
ENDBRANCH   1  23
TORSDOF 5
ENDMDL
