MODEL 1
REMARK VINA RESULT:      -7.9      0.000      0.000
REMARK  7 active torsions:
REMARK  status: ('A' for Active; 'I' for Inactive)
REMARK    1  A    between atoms: C_2  and  C_12 
REMARK    2  A    between atoms: C_4  and  C_16 
REMARK    3  A    between atoms: C_4  and  N_21 
REMARK    4  A    between atoms: O_5  and  C_6 
REMARK    5  A    between atoms: C_10  and  C_11 
REMARK    6  A    between atoms: C_11  and  C_12 
REMARK    7  A    between atoms: C_11  and  N_17 
REMARK       I    between atoms: C_16  and  N_17 
ROOT
HETATM    1  C           1     -35.789  -1.200 -12.190  0.00  0.00     0.189 C 
ENDROOT
BRANCH   1   2
HETATM    2  C           1     -36.693  -0.506 -11.200  0.00  0.00     0.197 C 
HETATM    3  O           1     -36.306   0.535 -10.625  0.00  0.00    -0.646 OA
HETATM    4  O           1     -37.826  -0.971 -10.954  0.00  0.00    -0.646 OA
ENDBRANCH   1   2
BRANCH   1   5
HETATM    5  C           1     -34.433  -1.459 -11.546  0.00  0.00     0.074 C 
BRANCH   5   6
HETATM    6  C           1     -34.238  -2.932 -11.368  0.00  0.00    -0.056 A 
HETATM    7  C           1     -33.012  -3.518 -11.687  0.00  0.00     0.010 A 
HETATM    8  C           1     -32.832  -4.891 -11.522  0.00  0.00     0.037 A 
HETATM    9  C           1     -33.877  -5.679 -11.038  0.00  0.00     0.065 A 
HETATM   10  C           1     -35.102  -5.094 -10.720  0.00  0.00     0.037 A 
HETATM   11  C           1     -35.283  -3.720 -10.886  0.00  0.00     0.010 A 
BRANCH   9  12
HETATM   12  O           1     -33.701  -7.013 -10.878  0.00  0.00    -0.361 OA
HETATM   13  H           1     -33.573  -7.406 -11.757  0.00  0.00     0.217 HD
ENDBRANCH   9  12
ENDBRANCH   5   6
ENDBRANCH   1   5
BRANCH   1  14
HETATM   14  N           1     -35.617  -0.358 -13.358  0.00  0.00    -0.344 N 
HETATM   15  H           1     -34.765   0.177 -13.475  0.00  0.00     0.163 HD
HETATM   16  C           1     -36.604  -0.287 -14.303  0.00  0.00     0.248 C 
HETATM   17  O           1     -37.620  -0.926 -14.164  0.00  0.00    -0.271 OA
BRANCH  16  18
HETATM   18  C           1     -36.424   0.588 -15.518  0.00  0.00     0.270 C 
HETATM   19  C           1     -35.392   1.667 -15.220  0.00  0.00     0.050 C 
BRANCH  18  20
HETATM   20  N           1     -37.733   1.233 -15.869  0.00  0.00    -0.067 N 
HETATM   21  H           1     -37.593   1.885 -16.673  0.00  0.00     0.275 HD
HETATM   22  H           1     -38.424   0.495 -16.133  0.00  0.00     0.275 HD
HETATM   23  H           1     -38.089   1.767 -15.045  0.00  0.00     0.275 HD
ENDBRANCH  18  20
ENDBRANCH  16  18
ENDBRANCH   1  14
TORSDOF 7
ENDMDL
MODEL 2
REMARK VINA RESULT:      -6.8     13.262     16.468
REMARK  7 active torsions:
REMARK  status: ('A' for Active; 'I' for Inactive)
REMARK    1  A    between atoms: C_2  and  C_12 
REMARK    2  A    between atoms: C_4  and  C_16 
REMARK    3  A    between atoms: C_4  and  N_21 
REMARK    4  A    between atoms: O_5  and  C_6 
REMARK    5  A    between atoms: C_10  and  C_11 
REMARK    6  A    between atoms: C_11  and  C_12 
REMARK    7  A    between atoms: C_11  and  N_17 
REMARK       I    between atoms: C_16  and  N_17 
ROOT
HETATM    1  C           1     -21.035  -5.232  -6.616  0.00  0.00     0.189 C 
ENDROOT
BRANCH   1   2
HETATM    2  C           1     -19.647  -5.520  -7.133  0.00  0.00     0.197 C 
HETATM    3  O           1     -19.315  -6.691  -7.416  0.00  0.00    -0.646 OA
HETATM    4  O           1     -18.827  -4.587  -7.277  0.00  0.00    -0.646 OA
ENDBRANCH   1   2
BRANCH   1   5
HETATM    5  C           1     -21.516  -3.897  -7.170  0.00  0.00     0.074 C 
BRANCH   5   6
HETATM    6  C           1     -22.076  -4.099  -8.544  0.00  0.00    -0.056 A 
HETATM    7  C           1     -23.444  -4.311  -8.716  0.00  0.00     0.010 A 
HETATM    8  C           1     -23.964  -4.500  -9.997  0.00  0.00     0.037 A 
HETATM    9  C           1     -23.117  -4.477 -11.104  0.00  0.00     0.065 A 
HETATM   10  C           1     -21.749  -4.267 -10.932  0.00  0.00     0.037 A 
HETATM   11  C           1     -21.228  -4.077  -9.651  0.00  0.00     0.010 A 
BRANCH   9  12
HETATM   12  O           1     -23.623  -4.661 -12.348  0.00  0.00    -0.361 OA
HETATM   13  H           1     -24.555  -4.387 -12.336  0.00  0.00     0.217 HD
ENDBRANCH   9  12
ENDBRANCH   5   6
ENDBRANCH   1   5
BRANCH   1  14
HETATM   14  N           1     -21.008  -5.172  -5.168  0.00  0.00    -0.344 N 
HETATM   15  H           1     -20.774  -4.305  -4.701  0.00  0.00     0.163 HD
HETATM   16  C           1     -21.300  -6.288  -4.431  0.00  0.00     0.248 C 
HETATM   17  O           1     -21.581  -7.323  -4.988  0.00  0.00    -0.271 OA
BRANCH  16  18
HETATM   18  C           1     -21.273  -6.225  -2.924  0.00  0.00     0.270 C 
HETATM   19  C           1     -20.861  -7.581  -2.366  0.00  0.00     0.050 C 
BRANCH  18  20
HETATM   20  N           1     -22.639  -5.870  -2.414  0.00  0.00    -0.067 N 
HETATM   21  H           1     -22.957  -4.981  -2.862  0.00  0.00     0.275 HD
HETATM   22  H           1     -23.308  -6.638  -2.647  0.00  0.00     0.275 HD
HETATM   23  H           1     -22.602  -5.744  -1.377  0.00  0.00     0.275 HD
ENDBRANCH  18  20
ENDBRANCH  16  18
ENDBRANCH   1  14
TORSDOF 7
ENDMDL
MODEL 3
REMARK VINA RESULT:      -6.3     11.627     13.621
REMARK  7 active torsions:
REMARK  status: ('A' for Active; 'I' for Inactive)
REMARK    1  A    between atoms: C_2  and  C_12 
REMARK    2  A    between atoms: C_4  and  C_16 
REMARK    3  A    between atoms: C_4  and  N_21 
REMARK    4  A    between atoms: O_5  and  C_6 
REMARK    5  A    between atoms: C_10  and  C_11 
REMARK    6  A    between atoms: C_11  and  C_12 
REMARK    7  A    between atoms: C_11  and  N_17 
REMARK       I    between atoms: C_16  and  N_17 
ROOT
HETATM    1  C           1     -22.986  -3.752 -10.019  0.00  0.00     0.189 C 
ENDROOT
BRANCH   1   2
HETATM    2  C           1     -24.466  -3.856  -9.738  0.00  0.00     0.197 C 
HETATM    3  O           1     -25.015  -4.979  -9.691  0.00  0.00    -0.646 OA
HETATM    4  O           1     -25.142  -2.821  -9.554  0.00  0.00    -0.646 OA
ENDBRANCH   1   2
BRANCH   1   5
HETATM    5  C           1     -22.279  -3.169  -8.802  0.00  0.00     0.074 C 
BRANCH   5   6
HETATM    6  C           1     -21.661  -4.276  -8.006  0.00  0.00    -0.056 A 
HETATM    7  C           1     -22.327  -4.793  -6.895  0.00  0.00     0.010 A 
HETATM    8  C           1     -21.750  -5.824  -6.154  0.00  0.00     0.037 A 
HETATM    9  C           1     -20.507  -6.338  -6.524  0.00  0.00     0.065 A 
HETATM   10  C           1     -19.841  -5.821  -7.634  0.00  0.00     0.037 A 
HETATM   11  C           1     -20.418  -4.789  -8.376  0.00  0.00     0.010 A 
BRANCH   9  12
HETATM   12  O           1     -19.947  -7.340  -5.803  0.00  0.00    -0.361 OA
HETATM   13  H           1     -19.975  -8.148  -6.341  0.00  0.00     0.217 HD
ENDBRANCH   9  12
ENDBRANCH   5   6
ENDBRANCH   1   5
BRANCH   1  14
HETATM   14  N           1     -22.773  -2.886 -11.163  0.00  0.00    -0.344 N 
HETATM   15  H           1     -22.355  -1.973 -11.035  0.00  0.00     0.163 HD
HETATM   16  C           1     -23.135  -3.304 -12.414  0.00  0.00     0.248 C 
HETATM   17  O           1     -23.633  -4.395 -12.567  0.00  0.00    -0.271 OA
BRANCH  16  18
HETATM   18  C           1     -22.911  -2.404 -13.604  0.00  0.00     0.270 C 
HETATM   19  C           1     -24.228  -1.750 -14.002  0.00  0.00     0.050 C 
BRANCH  18  20
HETATM   20  N           1     -22.390  -3.216 -14.754  0.00  0.00    -0.067 N 
HETATM   21  H           1     -22.465  -2.657 -15.634  0.00  0.00     0.275 HD
HETATM   22  H           1     -21.390  -3.463 -14.581  0.00  0.00     0.275 HD
HETATM   23  H           1     -22.954  -4.090 -14.847  0.00  0.00     0.275 HD
ENDBRANCH  18  20
ENDBRANCH  16  18
ENDBRANCH   1  14
TORSDOF 7
ENDMDL
MODEL 4
REMARK VINA RESULT:      -6.2     16.227     18.008
REMARK  7 active torsions:
REMARK  status: ('A' for Active; 'I' for Inactive)
REMARK    1  A    between atoms: C_2  and  C_12 
REMARK    2  A    between atoms: C_4  and  C_16 
REMARK    3  A    between atoms: C_4  and  N_21 
REMARK    4  A    between atoms: O_5  and  C_6 
REMARK    5  A    between atoms: C_10  and  C_11 
REMARK    6  A    between atoms: C_11  and  C_12 
REMARK    7  A    between atoms: C_11  and  N_17 
REMARK       I    between atoms: C_16  and  N_17 
ROOT
HETATM    1  C           1     -20.193  -7.622  -4.907  0.00  0.00     0.189 C 
ENDROOT
BRANCH   1   2
HETATM    2  C           1     -19.088  -8.635  -5.082  0.00  0.00     0.197 C 
HETATM    3  O           1     -18.567  -9.170  -4.079  0.00  0.00    -0.646 OA
HETATM    4  O           1     -18.693  -8.939  -6.228  0.00  0.00    -0.646 OA
ENDBRANCH   1   2
BRANCH   1   5
HETATM    5  C           1     -21.476  -8.336  -4.500  0.00  0.00     0.074 C 
BRANCH   5   6
HETATM    6  C           1     -21.689  -8.177  -3.027  0.00  0.00    -0.056 A 
HETATM    7  C           1     -21.656  -9.295  -2.193  0.00  0.00     0.010 A 
HETATM    8  C           1     -21.856  -9.146  -0.820  0.00  0.00     0.037 A 
HETATM    9  C           1     -22.088  -7.880  -0.282  0.00  0.00     0.065 A 
HETATM   10  C           1     -22.122  -6.763  -1.116  0.00  0.00     0.037 A 
HETATM   11  C           1     -21.923  -6.911  -2.490  0.00  0.00     0.010 A 
BRANCH   9  12
HETATM   12  O           1     -22.282  -7.736   1.051  0.00  0.00    -0.361 OA
HETATM   13  H           1     -21.419  -7.562   1.463  0.00  0.00     0.217 HD
ENDBRANCH   9  12
ENDBRANCH   5   6
ENDBRANCH   1   5
BRANCH   1  14
HETATM   14  N           1     -20.407  -6.921  -6.159  0.00  0.00    -0.344 N 
HETATM   15  H           1     -20.438  -7.438  -7.029  0.00  0.00     0.163 HD
HETATM   16  C           1     -20.568  -5.563  -6.164  0.00  0.00     0.248 C 
HETATM   17  O           1     -20.531  -4.946  -5.125  0.00  0.00    -0.271 OA
BRANCH  16  18
HETATM   18  C           1     -20.791  -4.834  -7.466  0.00  0.00     0.270 C 
HETATM   19  C           1     -19.461  -4.303  -7.987  0.00  0.00     0.050 C 
BRANCH  18  20
HETATM   20  N           1     -21.732  -3.687  -7.242  0.00  0.00    -0.067 N 
HETATM   21  H           1     -22.716  -4.016  -7.366  0.00  0.00     0.275 HD
HETATM   22  H           1     -21.607  -3.318  -6.272  0.00  0.00     0.275 HD
HETATM   23  H           1     -21.529  -2.929  -7.932  0.00  0.00     0.275 HD
ENDBRANCH  18  20
ENDBRANCH  16  18
ENDBRANCH   1  14
TORSDOF 7
ENDMDL
MODEL 5
REMARK VINA RESULT:      -6.2     12.041     14.381
REMARK  7 active torsions:
REMARK  status: ('A' for Active; 'I' for Inactive)
REMARK    1  A    between atoms: C_2  and  C_12 
REMARK    2  A    between atoms: C_4  and  C_16 
REMARK    3  A    between atoms: C_4  and  N_21 
REMARK    4  A    between atoms: O_5  and  C_6 
REMARK    5  A    between atoms: C_10  and  C_11 
REMARK    6  A    between atoms: C_11  and  C_12 
REMARK    7  A    between atoms: C_11  and  N_17 
REMARK       I    between atoms: C_16  and  N_17 
ROOT
HETATM    1  C           1     -23.005  -3.881  -9.182  0.00  0.00     0.189 C 
ENDROOT
BRANCH   1   2
HETATM    2  C           1     -24.494  -3.811  -9.416  0.00  0.00     0.197 C 
HETATM    3  O           1     -25.068  -2.701  -9.461  0.00  0.00    -0.646 OA
HETATM    4  O           1     -25.155  -4.862  -9.563  0.00  0.00    -0.646 OA
ENDBRANCH   1   2
BRANCH   1   5
HETATM    5  C           1     -22.338  -4.570 -10.366  0.00  0.00     0.074 C 
BRANCH   5   6
HETATM    6  C           1     -22.745  -3.888 -11.634  0.00  0.00    -0.056 A 
HETATM    7  C           1     -22.267  -2.609 -11.923  0.00  0.00     0.010 A 
HETATM    8  C           1     -22.647  -1.973 -13.106  0.00  0.00     0.037 A 
HETATM    9  C           1     -23.505  -2.616 -13.998  0.00  0.00     0.065 A 
HETATM   10  C           1     -23.983  -3.894 -13.710  0.00  0.00     0.037 A 
HETATM   11  C           1     -23.603  -4.530 -12.527  0.00  0.00     0.010 A 
BRANCH   9  12
HETATM   12  O           1     -23.874  -1.998 -15.146  0.00  0.00    -0.361 OA
HETATM   13  H           1     -24.661  -2.451 -15.492  0.00  0.00     0.217 HD
ENDBRANCH   9  12
ENDBRANCH   5   6
ENDBRANCH   1   5
BRANCH   1  14
HETATM   14  N           1     -22.742  -4.636  -7.973  0.00  0.00    -0.344 N 
HETATM   15  H           1     -23.454  -5.245  -7.591  0.00  0.00     0.163 HD
HETATM   16  C           1     -21.529  -4.527  -7.347  0.00  0.00     0.248 C 
HETATM   17  O           1     -20.678  -3.800  -7.803  0.00  0.00    -0.271 OA
BRANCH  16  18
HETATM   18  C           1     -21.255  -5.314  -6.090  0.00  0.00     0.270 C 
HETATM   19  C           1     -20.079  -4.693  -5.347  0.00  0.00     0.050 C 
BRANCH  18  20
HETATM   20  N           1     -20.924  -6.732  -6.450  0.00  0.00    -0.067 N 
HETATM   21  H           1     -20.235  -7.113  -5.762  0.00  0.00     0.275 HD
HETATM   22  H           1     -21.795  -7.310  -6.427  0.00  0.00     0.275 HD
HETATM   23  H           1     -20.511  -6.761  -7.409  0.00  0.00     0.275 HD
ENDBRANCH  18  20
ENDBRANCH  16  18
ENDBRANCH   1  14
TORSDOF 7
ENDMDL
MODEL 6
REMARK VINA RESULT:      -6.1     11.502     13.285
REMARK  7 active torsions:
REMARK  status: ('A' for Active; 'I' for Inactive)
REMARK    1  A    between atoms: C_2  and  C_12 
REMARK    2  A    between atoms: C_4  and  C_16 
REMARK    3  A    between atoms: C_4  and  N_21 
REMARK    4  A    between atoms: O_5  and  C_6 
REMARK    5  A    between atoms: C_10  and  C_11 
REMARK    6  A    between atoms: C_11  and  C_12 
REMARK    7  A    between atoms: C_11  and  N_17 
REMARK       I    between atoms: C_16  and  N_17 
ROOT
HETATM    1  C           1     -22.941  -3.166 -12.280  0.00  0.00     0.189 C 
ENDROOT
BRANCH   1   2
HETATM    2  C           1     -23.987  -3.898 -11.476  0.00  0.00     0.197 C 
HETATM    3  O           1     -24.925  -3.264 -10.946  0.00  0.00    -0.646 OA
HETATM    4  O           1     -23.916  -5.139 -11.340  0.00  0.00    -0.646 OA
ENDBRANCH   1   2
BRANCH   1   5
HETATM    5  C           1     -21.975  -2.461 -11.335  0.00  0.00     0.074 C 
BRANCH   5   6
HETATM    6  C           1     -21.432  -3.449 -10.350  0.00  0.00    -0.056 A 
HETATM    7  C           1     -21.965  -3.515  -9.062  0.00  0.00     0.010 A 
HETATM    8  C           1     -21.458  -4.435  -8.145  0.00  0.00     0.037 A 
HETATM    9  C           1     -20.417  -5.288  -8.515  0.00  0.00     0.065 A 
HETATM   10  C           1     -19.884  -5.221  -9.801  0.00  0.00     0.037 A 
HETATM   11  C           1     -20.391  -4.300 -10.720  0.00  0.00     0.010 A 
BRANCH   9  12
HETATM   12  O           1     -19.925  -6.181  -7.623  0.00  0.00    -0.361 OA
HETATM   13  H           1     -18.962  -6.229  -7.746  0.00  0.00     0.217 HD
ENDBRANCH   9  12
ENDBRANCH   5   6
ENDBRANCH   1   5
BRANCH   1  14
HETATM   14  N           1     -23.586  -2.185 -13.131  0.00  0.00    -0.344 N 
HETATM   15  H           1     -24.223  -1.508 -12.730  0.00  0.00     0.163 HD
HETATM   16  C           1     -23.333  -2.172 -14.476  0.00  0.00     0.248 C 
HETATM   17  O           1     -22.572  -2.980 -14.955  0.00  0.00    -0.271 OA
BRANCH  16  18
HETATM   18  C           1     -24.003  -1.151 -15.361  0.00  0.00     0.270 C 
HETATM   19  C           1     -22.944  -0.293 -16.040  0.00  0.00     0.050 C 
BRANCH  18  20
HETATM   20  N           1     -24.895  -0.277 -14.529  0.00  0.00    -0.067 N 
HETATM   21  H           1     -25.401   0.394 -15.150  0.00  0.00     0.275 HD
HETATM   22  H           1     -25.587  -0.871 -14.018  0.00  0.00     0.275 HD
HETATM   23  H           1     -24.317   0.255 -13.840  0.00  0.00     0.275 HD
ENDBRANCH  18  20
ENDBRANCH  16  18
ENDBRANCH   1  14
TORSDOF 7
ENDMDL
MODEL 7
REMARK VINA RESULT:      -6.1     15.236     17.910
REMARK  7 active torsions:
REMARK  status: ('A' for Active; 'I' for Inactive)
REMARK    1  A    between atoms: C_2  and  C_12 
REMARK    2  A    between atoms: C_4  and  C_16 
REMARK    3  A    between atoms: C_4  and  N_21 
REMARK    4  A    between atoms: O_5  and  C_6 
REMARK    5  A    between atoms: C_10  and  C_11 
REMARK    6  A    between atoms: C_11  and  C_12 
REMARK    7  A    between atoms: C_11  and  N_17 
REMARK       I    between atoms: C_16  and  N_17 
ROOT
HETATM    1  C           1     -21.558  -7.859  -3.888  0.00  0.00     0.189 C 
ENDROOT
BRANCH   1   2
HETATM    2  C           1     -21.339  -9.176  -4.593  0.00  0.00     0.197 C 
HETATM    3  O           1     -21.914 -10.207  -4.182  0.00  0.00    -0.646 OA
HETATM    4  O           1     -20.584  -9.235  -5.587  0.00  0.00    -0.646 OA
ENDBRANCH   1   2
BRANCH   1   5
HETATM    5  C           1     -20.445  -6.890  -4.267  0.00  0.00     0.074 C 
BRANCH   5   6
HETATM    6  C           1     -20.945  -5.938  -5.308  0.00  0.00    -0.056 A 
HETATM    7  C           1     -20.063  -5.047  -5.921  0.00  0.00     0.010 A 
HETATM    8  C           1     -20.530  -4.160  -6.890  0.00  0.00     0.037 A 
HETATM    9  C           1     -21.879  -4.163  -7.246  0.00  0.00     0.065 A 
HETATM   10  C           1     -22.761  -5.051  -6.633  0.00  0.00     0.037 A 
HETATM   11  C           1     -22.294  -5.940  -5.663  0.00  0.00     0.010 A 
BRANCH   9  12
HETATM   12  O           1     -22.333  -3.300  -8.188  0.00  0.00    -0.361 OA
HETATM   13  H           1     -21.883  -2.448  -8.056  0.00  0.00     0.217 HD
ENDBRANCH   9  12
ENDBRANCH   5   6
ENDBRANCH   1   5
BRANCH   1  14
HETATM   14  N           1     -21.545  -8.072  -2.454  0.00  0.00    -0.344 N 
HETATM   15  H           1     -21.092  -8.891  -2.068  0.00  0.00     0.163 HD
HETATM   16  C           1     -22.146  -7.167  -1.622  0.00  0.00     0.248 C 
HETATM   17  O           1     -22.687  -6.190  -2.083  0.00  0.00    -0.271 OA
BRANCH  16  18
HETATM   18  C           1     -22.132  -7.388  -0.130  0.00  0.00     0.270 C 
HETATM   19  C           1     -21.112  -8.466   0.216  0.00  0.00     0.050 C 
BRANCH  18  20
HETATM   20  N           1     -23.493  -7.827   0.323  0.00  0.00    -0.067 N 
HETATM   21  H           1     -23.441  -8.809   0.677  0.00  0.00     0.275 HD
HETATM   22  H           1     -23.825  -7.198   1.088  0.00  0.00     0.275 HD
HETATM   23  H           1     -24.159  -7.781  -0.480  0.00  0.00     0.275 HD
ENDBRANCH  18  20
ENDBRANCH  16  18
ENDBRANCH   1  14
TORSDOF 7
ENDMDL
MODEL 8
REMARK VINA RESULT:      -6.0     13.209     15.677
REMARK  7 active torsions:
REMARK  status: ('A' for Active; 'I' for Inactive)
REMARK    1  A    between atoms: C_2  and  C_12 
REMARK    2  A    between atoms: C_4  and  C_16 
REMARK    3  A    between atoms: C_4  and  N_21 
REMARK    4  A    between atoms: O_5  and  C_6 
REMARK    5  A    between atoms: C_10  and  C_11 
REMARK    6  A    between atoms: C_11  and  C_12 
REMARK    7  A    between atoms: C_11  and  N_17 
REMARK       I    between atoms: C_16  and  N_17 
ROOT
HETATM    1  C           1     -20.914  -5.038  -7.449  0.00  0.00     0.189 C 
ENDROOT
BRANCH   1   2
HETATM    2  C           1     -19.626  -4.286  -7.680  0.00  0.00     0.197 C 
HETATM    3  O           1     -18.590  -4.616  -7.064  0.00  0.00    -0.646 OA
HETATM    4  O           1     -19.596  -3.332  -8.488  0.00  0.00    -0.646 OA
ENDBRANCH   1   2
BRANCH   1   5
HETATM    5  C           1     -20.600  -6.495  -7.130  0.00  0.00     0.074 C 
BRANCH   5   6
HETATM    6  C           1     -20.939  -6.776  -5.699  0.00  0.00    -0.056 A 
HETATM    7  C           1     -21.036  -5.725  -4.785  0.00  0.00     0.010 A 
HETATM    8  C           1     -21.351  -5.988  -3.452  0.00  0.00     0.037 A 
HETATM    9  C           1     -21.569  -7.301  -3.033  0.00  0.00     0.065 A 
HETATM   10  C           1     -21.472  -8.350  -3.945  0.00  0.00     0.037 A 
HETATM   11  C           1     -21.157  -8.088  -5.279  0.00  0.00     0.010 A 
BRANCH   9  12
HETATM   12  O           1     -21.876  -7.555  -1.737  0.00  0.00    -0.361 OA
HETATM   13  H           1     -22.807  -7.829  -1.697  0.00  0.00     0.217 HD
ENDBRANCH   9  12
ENDBRANCH   5   6
ENDBRANCH   1   5
BRANCH   1  14
HETATM   14  N           1     -21.733  -4.971  -8.644  0.00  0.00    -0.344 N 
HETATM   15  H           1     -21.348  -5.252  -9.537  0.00  0.00     0.163 HD
HETATM   16  C           1     -23.026  -4.531  -8.564  0.00  0.00     0.248 C 
HETATM   17  O           1     -23.485  -4.196  -7.497  0.00  0.00    -0.271 OA
BRANCH  16  18
HETATM   18  C           1     -23.878  -4.462  -9.807  0.00  0.00     0.270 C 
HETATM   19  C           1     -23.177  -3.611 -10.858  0.00  0.00     0.050 C 
BRANCH  18  20
HETATM   20  N           1     -25.204  -3.846  -9.470  0.00  0.00    -0.067 N 
HETATM   21  H           1     -25.760  -3.721 -10.346  0.00  0.00     0.275 HD
HETATM   22  H           1     -25.722  -4.473  -8.814  0.00  0.00     0.275 HD
HETATM   23  H           1     -25.052  -2.917  -9.018  0.00  0.00     0.275 HD
ENDBRANCH  18  20
ENDBRANCH  16  18
ENDBRANCH   1  14
TORSDOF 7
ENDMDL
MODEL 9
REMARK VINA RESULT:      -5.9     17.943     19.445
REMARK  7 active torsions:
REMARK  status: ('A' for Active; 'I' for Inactive)
REMARK    1  A    between atoms: C_2  and  C_12 
REMARK    2  A    between atoms: C_4  and  C_16 
REMARK    3  A    between atoms: C_4  and  N_21 
REMARK    4  A    between atoms: O_5  and  C_6 
REMARK    5  A    between atoms: C_10  and  C_11 
REMARK    6  A    between atoms: C_11  and  C_12 
REMARK    7  A    between atoms: C_11  and  N_17 
REMARK       I    between atoms: C_16  and  N_17 
ROOT
HETATM    1  C           1     -21.681  -8.118  -1.909  0.00  0.00     0.189 C 
ENDROOT
BRANCH   1   2
HETATM    2  C           1     -22.027  -6.659  -2.079  0.00  0.00     0.197 C 
HETATM    3  O           1     -21.931  -6.121  -3.203  0.00  0.00    -0.646 OA
HETATM    4  O           1     -22.408  -5.988  -1.095  0.00  0.00    -0.646 OA
ENDBRANCH   1   2
BRANCH   1   5
HETATM    5  C           1     -21.456  -8.418  -0.432  0.00  0.00     0.074 C 
BRANCH   5   6
HETATM    6  C           1     -21.992  -9.779  -0.113  0.00  0.00    -0.056 A 
HETATM    7  C           1     -23.337 -10.071  -0.341  0.00  0.00     0.010 A 
HETATM    8  C           1     -23.835 -11.339  -0.042  0.00  0.00     0.037 A 
HETATM    9  C           1     -22.989 -12.314   0.485  0.00  0.00     0.065 A 
HETATM   10  C           1     -21.645 -12.023   0.714  0.00  0.00     0.037 A 
HETATM   11  C           1     -21.146 -10.754   0.415  0.00  0.00     0.010 A 
BRANCH   9  12
HETATM   12  O           1     -23.474 -13.546   0.775  0.00  0.00    -0.361 OA
HETATM   13  H           1     -24.200 -13.441   1.413  0.00  0.00     0.217 HD
ENDBRANCH   9  12
ENDBRANCH   5   6
ENDBRANCH   1   5
BRANCH   1  14
HETATM   14  N           1     -20.472  -8.416  -2.652  0.00  0.00    -0.344 N 
HETATM   15  H           1     -19.618  -7.911  -2.453  0.00  0.00     0.163 HD
HETATM   16  C           1     -20.484  -9.383  -3.621  0.00  0.00     0.248 C 
HETATM   17  O           1     -21.504  -9.987  -3.858  0.00  0.00    -0.271 OA
BRANCH  16  18
HETATM   18  C           1     -19.226  -9.694  -4.393  0.00  0.00     0.270 C 
HETATM   19  C           1     -18.011  -9.432  -3.512  0.00  0.00     0.050 C 
BRANCH  18  20
HETATM   20  N           1     -19.157  -8.819  -5.610  0.00  0.00    -0.067 N 
HETATM   21  H           1     -19.062  -7.821  -5.315  0.00  0.00     0.275 HD
HETATM   22  H           1     -18.331  -9.093  -6.189  0.00  0.00     0.275 HD
HETATM   23  H           1     -20.030  -8.934  -6.172  0.00  0.00     0.275 HD
ENDBRANCH  18  20
ENDBRANCH  16  18
ENDBRANCH   1  14
TORSDOF 7
ENDMDL
