MODEL 1
REMARK VINA RESULT:      -6.8      0.000      0.000
REMARK  10 active torsions:
REMARK  status: ('A' for Active; 'I' for Inactive)
REMARK    1  A    between atoms: N_2  and  C_9 
REMARK    2  A    between atoms: C_6  and  C_20 
REMARK    3  A    between atoms: C_9  and  C_10 
REMARK    4  A    between atoms: C_9  and  C_12 
REMARK       I    between atoms: C_10  and  N_13 
REMARK    5  A    between atoms: C_11  and  C_12 
REMARK    6  A    between atoms: N_13  and  C_20 
REMARK    7  A    between atoms: O_15  and  P_17 
REMARK    8  A    between atoms: P_17  and  O_18 
REMARK    9  A    between atoms: O_18  and  C_19 
REMARK   10  A    between atoms: C_19  and  C_20 
ROOT
HETATM    1  O           1     -21.870  -3.339  -7.674  0.00  0.00    -0.271 OA
HETATM    2  H           1     -21.694  -5.473  -9.967  0.00  0.00     0.163 HD
HETATM    3  C           1     -21.578  -4.380  -8.213  0.00  0.00     0.249 C 
HETATM    4  N           1     -21.938  -4.601  -9.515  0.00  0.00    -0.343 N 
ENDROOT
BRANCH   4   5
HETATM    5  C           1     -22.672  -3.586 -10.247  0.00  0.00     0.210 C 
BRANCH   5   6
HETATM    6  C           1     -24.154  -3.807 -10.062  0.00  0.00     0.198 C 
HETATM    7  O           1     -24.902  -2.841  -9.797  0.00  0.00    -0.646 OA
HETATM    8  O           1     -24.633  -4.956 -10.174  0.00  0.00    -0.646 OA
ENDBRANCH   5   6
BRANCH   5   9
HETATM    9  C           1     -22.326  -3.679 -11.727  0.00  0.00     0.217 C 
BRANCH   9  10
HETATM   10  O           1     -22.733  -2.505 -12.378  0.00  0.00    -0.287 OA
BRANCH  10  11
HETATM   11  P           1     -23.569  -2.707 -13.745  0.00  0.00     0.406 P 
HETATM   12  O           1     -22.631  -2.828 -14.884  0.00  0.00    -0.624 OA
HETATM   13  O           1     -24.386  -3.936 -13.646  0.00  0.00    -0.624 OA
BRANCH  11  14
HETATM   14  O           1     -24.537  -1.435 -13.975  0.00  0.00    -0.300 OA
HETATM   15  H           1     -24.821  -1.504 -14.871  0.00  0.00     0.223 HD
ENDBRANCH  11  14
ENDBRANCH  10  11
ENDBRANCH   9  10
ENDBRANCH   5   9
ENDBRANCH   4   5
BRANCH   3  16
HETATM   16  C           1     -20.815  -5.436  -7.453  0.00  0.00     0.284 C 
BRANCH  16  17
HETATM   17  N           1     -19.405  -4.973  -7.230  0.00  0.00    -0.066 N 
HETATM   18  H           1     -19.146  -5.117  -6.228  0.00  0.00     0.275 HD
HETATM   19  H           1     -18.759  -5.522  -7.840  0.00  0.00     0.275 HD
HETATM   20  H           1     -19.332  -3.958  -7.467  0.00  0.00     0.275 HD
ENDBRANCH  16  17
BRANCH  16  21
HETATM   21  C           1     -21.487  -5.679  -6.108  0.00  0.00     0.155 C 
BRANCH  21  22
HETATM   22  C           1     -21.206  -7.088  -5.649  0.00  0.00     0.175 C 
HETATM   23  O           1     -20.218  -7.707  -6.101  0.00  0.00    -0.648 OA
HETATM   24  O           1     -21.960  -7.637  -4.818  0.00  0.00    -0.648 OA
ENDBRANCH  21  22
ENDBRANCH  16  21
ENDBRANCH   3  16
TORSDOF 10
ENDMDL
MODEL 2
REMARK VINA RESULT:      -6.7     13.495     15.800
REMARK  10 active torsions:
REMARK  status: ('A' for Active; 'I' for Inactive)
REMARK    1  A    between atoms: N_2  and  C_9 
REMARK    2  A    between atoms: C_6  and  C_20 
REMARK    3  A    between atoms: C_9  and  C_10 
REMARK    4  A    between atoms: C_9  and  C_12 
REMARK       I    between atoms: C_10  and  N_13 
REMARK    5  A    between atoms: C_11  and  C_12 
REMARK    6  A    between atoms: N_13  and  C_20 
REMARK    7  A    between atoms: O_15  and  P_17 
REMARK    8  A    between atoms: P_17  and  O_18 
REMARK    9  A    between atoms: O_18  and  C_19 
REMARK   10  A    between atoms: C_19  and  C_20 
ROOT
HETATM    1  O           1     -37.995  -0.681 -13.173  0.00  0.00    -0.271 OA
HETATM    2  H           1     -35.435   0.457 -11.762  0.00  0.00     0.163 HD
HETATM    3  C           1     -36.905  -0.169 -13.078  0.00  0.00     0.249 C 
HETATM    4  N           1     -36.348   0.028 -11.843  0.00  0.00    -0.343 N 
ENDROOT
BRANCH   4   5
HETATM    5  C           1     -37.067  -0.375 -10.650  0.00  0.00     0.210 C 
BRANCH   5   6
HETATM    6  C           1     -37.126   0.783  -9.683  0.00  0.00     0.198 C 
HETATM    7  O           1     -36.226   0.930  -8.828  0.00  0.00    -0.646 OA
HETATM    8  O           1     -38.075   1.594  -9.737  0.00  0.00    -0.646 OA
ENDBRANCH   5   6
BRANCH   5   9
HETATM    9  C           1     -36.347  -1.547  -9.995  0.00  0.00     0.217 C 
BRANCH   9  10
HETATM   10  O           1     -36.230  -2.598 -10.916  0.00  0.00    -0.287 OA
BRANCH  10  11
HETATM   11  P           1     -34.732  -2.941 -11.413  0.00  0.00     0.406 P 
HETATM   12  O           1     -34.223  -4.116 -10.671  0.00  0.00    -0.624 OA
HETATM   13  O           1     -34.749  -3.242 -12.861  0.00  0.00    -0.624 OA
BRANCH  11  14
HETATM   14  O           1     -33.772  -1.672 -11.139  0.00  0.00    -0.300 OA
HETATM   15  H           1     -34.221  -1.164 -10.483  0.00  0.00     0.223 HD
ENDBRANCH  11  14
ENDBRANCH  10  11
ENDBRANCH   9  10
ENDBRANCH   5   9
ENDBRANCH   4   5
BRANCH   3  16
HETATM   16  C           1     -36.156   0.251 -14.318  0.00  0.00     0.284 C 
BRANCH  16  17
HETATM   17  N           1     -35.239  -0.856 -14.748  0.00  0.00    -0.066 N 
HETATM   18  H           1     -35.519  -1.191 -15.698  0.00  0.00     0.275 HD
HETATM   19  H           1     -34.257  -0.500 -14.780  0.00  0.00     0.275 HD
HETATM   20  H           1     -35.303  -1.645 -14.066  0.00  0.00     0.275 HD
ENDBRANCH  16  17
BRANCH  16  21
HETATM   21  C           1     -37.149   0.548 -15.434  0.00  0.00     0.155 C 
BRANCH  21  22
HETATM   22  C           1     -37.203  -0.621 -16.386  0.00  0.00     0.175 C 
HETATM   23  O           1     -36.375  -0.706 -17.319  0.00  0.00    -0.648 OA
HETATM   24  O           1     -38.075  -1.505 -16.243  0.00  0.00    -0.648 OA
ENDBRANCH  21  22
ENDBRANCH  16  21
ENDBRANCH   3  16
TORSDOF 10
ENDMDL
MODEL 3
REMARK VINA RESULT:      -6.7      9.360     11.729
REMARK  10 active torsions:
REMARK  status: ('A' for Active; 'I' for Inactive)
REMARK    1  A    between atoms: N_2  and  C_9 
REMARK    2  A    between atoms: C_6  and  C_20 
REMARK    3  A    between atoms: C_9  and  C_10 
REMARK    4  A    between atoms: C_9  and  C_12 
REMARK       I    between atoms: C_10  and  N_13 
REMARK    5  A    between atoms: C_11  and  C_12 
REMARK    6  A    between atoms: N_13  and  C_20 
REMARK    7  A    between atoms: O_15  and  P_17 
REMARK    8  A    between atoms: P_17  and  O_18 
REMARK    9  A    between atoms: O_18  and  C_19 
REMARK   10  A    between atoms: C_19  and  C_20 
ROOT
HETATM    1  O           1     -28.527  -5.145 -19.004  0.00  0.00    -0.271 OA
HETATM    2  H           1     -27.822  -8.200 -18.897  0.00  0.00     0.163 HD
HETATM    3  C           1     -28.682  -6.321 -18.776  0.00  0.00     0.249 C 
HETATM    4  N           1     -27.692  -7.214 -19.088  0.00  0.00    -0.343 N 
ENDROOT
BRANCH   4   5
HETATM    5  C           1     -26.460  -6.749 -19.693  0.00  0.00     0.210 C 
BRANCH   5   6
HETATM    6  C           1     -26.046  -7.703 -20.788  0.00  0.00     0.198 C 
HETATM    7  O           1     -24.848  -7.770 -21.139  0.00  0.00    -0.646 OA
HETATM    8  O           1     -26.901  -8.426 -21.342  0.00  0.00    -0.646 OA
ENDBRANCH   5   6
BRANCH   5   9
HETATM    9  C           1     -25.367  -6.687 -18.634  0.00  0.00     0.217 C 
BRANCH   9  10
HETATM   10  O           1     -25.862  -6.050 -17.487  0.00  0.00    -0.287 OA
BRANCH  10  11
HETATM   11  P           1     -25.443  -6.712 -16.074  0.00  0.00     0.406 P 
HETATM   12  O           1     -24.979  -5.653 -15.151  0.00  0.00    -0.624 OA
HETATM   13  O           1     -26.613  -7.401 -15.487  0.00  0.00    -0.624 OA
BRANCH  11  14
HETATM   14  O           1     -24.255  -7.779 -16.313  0.00  0.00    -0.300 OA
HETATM   15  H           1     -23.578  -7.295 -16.756  0.00  0.00     0.223 HD
ENDBRANCH  11  14
ENDBRANCH  10  11
ENDBRANCH   9  10
ENDBRANCH   5   9
ENDBRANCH   4   5
BRANCH   3  16
HETATM   16  C           1     -29.964  -6.806 -18.146  0.00  0.00     0.284 C 
BRANCH  16  17
HETATM   17  N           1     -29.867  -8.280 -17.884  0.00  0.00    -0.066 N 
HETATM   18  H           1     -29.793  -8.447 -16.855  0.00  0.00     0.275 HD
HETATM   19  H           1     -30.720  -8.755 -18.254  0.00  0.00     0.275 HD
HETATM   20  H           1     -29.019  -8.662 -18.361  0.00  0.00     0.275 HD
ENDBRANCH  16  17
BRANCH  16  21
HETATM   21  C           1     -30.193  -6.072 -16.831  0.00  0.00     0.155 C 
BRANCH  21  22
HETATM   22  C           1     -31.365  -5.133 -16.974  0.00  0.00     0.175 C 
HETATM   23  O           1     -31.172  -3.900 -17.049  0.00  0.00    -0.648 OA
HETATM   24  O           1     -32.528  -5.587 -17.018  0.00  0.00    -0.648 OA
ENDBRANCH  21  22
ENDBRANCH  16  21
ENDBRANCH   3  16
TORSDOF 10
ENDMDL
MODEL 4
REMARK VINA RESULT:      -6.7     11.776     14.716
REMARK  10 active torsions:
REMARK  status: ('A' for Active; 'I' for Inactive)
REMARK    1  A    between atoms: N_2  and  C_9 
REMARK    2  A    between atoms: C_6  and  C_20 
REMARK    3  A    between atoms: C_9  and  C_10 
REMARK    4  A    between atoms: C_9  and  C_12 
REMARK       I    between atoms: C_10  and  N_13 
REMARK    5  A    between atoms: C_11  and  C_12 
REMARK    6  A    between atoms: N_13  and  C_20 
REMARK    7  A    between atoms: O_15  and  P_17 
REMARK    8  A    between atoms: P_17  and  O_18 
REMARK    9  A    between atoms: O_18  and  C_19 
REMARK   10  A    between atoms: C_19  and  C_20 
ROOT
HETATM    1  O           1     -36.632  -1.287 -11.869  0.00  0.00    -0.271 OA
HETATM    2  H           1     -34.232  -1.725 -13.841  0.00  0.00     0.163 HD
HETATM    3  C           1     -35.902  -1.072 -12.806  0.00  0.00     0.249 C 
HETATM    4  N           1     -34.844  -1.905 -13.055  0.00  0.00    -0.343 N 
ENDROOT
BRANCH   4   5
HETATM    5  C           1     -34.599  -3.043 -12.191  0.00  0.00     0.210 C 
BRANCH   5   6
HETATM    6  C           1     -33.395  -2.766 -11.324  0.00  0.00     0.198 C 
HETATM    7  O           1     -32.401  -3.522 -11.374  0.00  0.00    -0.646 OA
HETATM    8  O           1     -33.392  -1.780 -10.556  0.00  0.00    -0.646 OA
ENDBRANCH   5   6
BRANCH   5   9
HETATM    9  C           1     -34.337  -4.278 -13.043  0.00  0.00     0.217 C 
BRANCH   9  10
HETATM   10  O           1     -33.463  -3.949 -14.089  0.00  0.00    -0.287 OA
BRANCH  10  11
HETATM   11  P           1     -34.069  -4.064 -15.582  0.00  0.00     0.406 P 
HETATM   12  O           1     -34.877  -2.861 -15.880  0.00  0.00    -0.624 OA
HETATM   13  O           1     -32.962  -4.170 -16.557  0.00  0.00    -0.624 OA
BRANCH  11  14
HETATM   14  O           1     -35.002  -5.379 -15.682  0.00  0.00    -0.300 OA
HETATM   15  H           1     -34.743  -5.917 -14.953  0.00  0.00     0.223 HD
ENDBRANCH  11  14
ENDBRANCH  10  11
ENDBRANCH   9  10
ENDBRANCH   5   9
ENDBRANCH   4   5
BRANCH   3  16
HETATM   16  C           1     -36.156   0.113 -13.705  0.00  0.00     0.284 C 
BRANCH  16  17
HETATM   17  N           1     -35.131   0.139 -14.800  0.00  0.00    -0.066 N 
HETATM   18  H           1     -35.377  -0.572 -15.525  0.00  0.00     0.275 HD
HETATM   19  H           1     -35.113   1.088 -15.236  0.00  0.00     0.275 HD
HETATM   20  H           1     -34.190  -0.080 -14.401  0.00  0.00     0.275 HD
ENDBRANCH  16  17
BRANCH  16  21
HETATM   21  C           1     -37.547  -0.003 -14.316  0.00  0.00     0.155 C 
BRANCH  21  22
HETATM   22  C           1     -37.480   0.322 -15.788  0.00  0.00     0.175 C 
HETATM   23  O           1     -37.354   1.508 -16.161  0.00  0.00    -0.648 OA
HETATM   24  O           1     -37.549  -0.595 -16.634  0.00  0.00    -0.648 OA
ENDBRANCH  21  22
ENDBRANCH  16  21
ENDBRANCH   3  16
TORSDOF 10
ENDMDL
MODEL 5
REMARK VINA RESULT:      -6.2     10.181     11.998
REMARK  10 active torsions:
REMARK  status: ('A' for Active; 'I' for Inactive)
REMARK    1  A    between atoms: N_2  and  C_9 
REMARK    2  A    between atoms: C_6  and  C_20 
REMARK    3  A    between atoms: C_9  and  C_10 
REMARK    4  A    between atoms: C_9  and  C_12 
REMARK       I    between atoms: C_10  and  N_13 
REMARK    5  A    between atoms: C_11  and  C_12 
REMARK    6  A    between atoms: N_13  and  C_20 
REMARK    7  A    between atoms: O_15  and  P_17 
REMARK    8  A    between atoms: P_17  and  O_18 
REMARK    9  A    between atoms: O_18  and  C_19 
REMARK   10  A    between atoms: C_19  and  C_20 
ROOT
HETATM    1  O           1     -26.148  -5.994 -17.351  0.00  0.00    -0.271 OA
HETATM    2  H           1     -27.667  -7.058 -19.881  0.00  0.00     0.163 HD
HETATM    3  C           1     -26.296  -6.385 -18.484  0.00  0.00     0.249 C 
HETATM    4  N           1     -27.543  -6.731 -18.932  0.00  0.00    -0.343 N 
ENDROOT
BRANCH   4   5
HETATM    5  C           1     -28.685  -6.630 -18.045  0.00  0.00     0.210 C 
BRANCH   5   6
HETATM    6  C           1     -29.436  -7.939 -18.041  0.00  0.00     0.198 C 
HETATM    7  O           1     -29.652  -8.533 -16.962  0.00  0.00    -0.646 OA
HETATM    8  O           1     -29.842  -8.429 -19.116  0.00  0.00    -0.646 OA
ENDBRANCH   5   6
BRANCH   5   9
HETATM    9  C           1     -29.606  -5.518 -18.530  0.00  0.00     0.217 C 
BRANCH   9  10
HETATM   10  O           1     -30.908  -5.750 -18.063  0.00  0.00    -0.287 OA
BRANCH  10  11
HETATM   11  P           1     -31.449  -4.728 -16.935  0.00  0.00     0.406 P 
HETATM   12  O           1     -30.637  -4.873 -15.707  0.00  0.00    -0.624 OA
HETATM   13  O           1     -31.341  -3.340 -17.436  0.00  0.00    -0.624 OA
BRANCH  11  14
HETATM   14  O           1     -32.994  -5.062 -16.605  0.00  0.00    -0.300 OA
HETATM   15  H           1     -33.092  -5.978 -16.802  0.00  0.00     0.223 HD
ENDBRANCH  11  14
ENDBRANCH  10  11
ENDBRANCH   9  10
ENDBRANCH   5   9
ENDBRANCH   4   5
BRANCH   3  16
HETATM   16  C           1     -25.107  -6.491 -19.408  0.00  0.00     0.284 C 
BRANCH  16  17
HETATM   17  N           1     -24.385  -7.781 -19.148  0.00  0.00    -0.066 N 
HETATM   18  H           1     -24.942  -8.576 -19.535  0.00  0.00     0.275 HD
HETATM   19  H           1     -23.449  -7.753 -19.611  0.00  0.00     0.275 HD
HETATM   20  H           1     -24.263  -7.909 -18.118  0.00  0.00     0.275 HD
ENDBRANCH  16  17
BRANCH  16  21
HETATM   21  C           1     -25.585  -6.461 -20.854  0.00  0.00     0.155 C 
BRANCH  21  22
HETATM   22  C           1     -25.506  -7.848 -21.441  0.00  0.00     0.175 C 
HETATM   23  O           1     -24.483  -8.206 -22.065  0.00  0.00    -0.648 OA
HETATM   24  O           1     -26.463  -8.640 -21.303  0.00  0.00    -0.648 OA
ENDBRANCH  21  22
ENDBRANCH  16  21
ENDBRANCH   3  16
TORSDOF 10
ENDMDL
MODEL 6
REMARK VINA RESULT:      -6.2     13.280     14.767
REMARK  10 active torsions:
REMARK  status: ('A' for Active; 'I' for Inactive)
REMARK    1  A    between atoms: N_2  and  C_9 
REMARK    2  A    between atoms: C_6  and  C_20 
REMARK    3  A    between atoms: C_9  and  C_10 
REMARK    4  A    between atoms: C_9  and  C_12 
REMARK       I    between atoms: C_10  and  N_13 
REMARK    5  A    between atoms: C_11  and  C_12 
REMARK    6  A    between atoms: N_13  and  C_20 
REMARK    7  A    between atoms: O_15  and  P_17 
REMARK    8  A    between atoms: P_17  and  O_18 
REMARK    9  A    between atoms: O_18  and  C_19 
REMARK   10  A    between atoms: C_19  and  C_20 
ROOT
HETATM    1  O           1     -37.980  -0.673  -9.935  0.00  0.00    -0.271 OA
HETATM    2  H           1     -34.846  -0.545  -9.918  0.00  0.00     0.163 HD
HETATM    3  C           1     -36.872  -0.452  -9.507  0.00  0.00     0.249 C 
HETATM    4  N           1     -35.774  -0.730 -10.277  0.00  0.00    -0.343 N 
ENDROOT
BRANCH   4   5
HETATM    5  C           1     -35.941  -1.290 -11.603  0.00  0.00     0.210 C 
BRANCH   5   6
HETATM    6  C           1     -35.082  -2.523 -11.740  0.00  0.00     0.198 C 
HETATM    7  O           1     -35.208  -3.466 -10.928  0.00  0.00    -0.646 OA
HETATM    8  O           1     -34.246  -2.602 -12.665  0.00  0.00    -0.646 OA
ENDBRANCH   5   6
BRANCH   5   9
HETATM    9  C           1     -35.520  -0.260 -12.645  0.00  0.00     0.217 C 
BRANCH   9  10
HETATM   10  O           1     -36.356  -0.359 -13.766  0.00  0.00    -0.287 OA
BRANCH  10  11
HETATM   11  P           1     -35.619  -0.340 -15.203  0.00  0.00     0.406 P 
HETATM   12  O           1     -36.552   0.174 -16.230  0.00  0.00    -0.624 OA
HETATM   13  O           1     -34.429   0.537 -15.135  0.00  0.00    -0.624 OA
BRANCH  11  14
HETATM   14  O           1     -35.160  -1.839 -15.591  0.00  0.00    -0.300 OA
HETATM   15  H           1     -35.755  -2.106 -16.272  0.00  0.00     0.223 HD
ENDBRANCH  11  14
ENDBRANCH  10  11
ENDBRANCH   9  10
ENDBRANCH   5   9
ENDBRANCH   4   5
BRANCH   3  16
HETATM   16  C           1     -36.698   0.130  -8.126  0.00  0.00     0.284 C 
BRANCH  16  17
HETATM   17  N           1     -36.268   1.563  -8.238  0.00  0.00    -0.066 N 
HETATM   18  H           1     -35.344   1.688  -7.766  0.00  0.00     0.275 HD
HETATM   19  H           1     -36.181   1.821  -9.247  0.00  0.00     0.275 HD
HETATM   20  H           1     -36.979   2.176  -7.780  0.00  0.00     0.275 HD
ENDBRANCH  16  17
BRANCH  16  21
HETATM   21  C           1     -38.019   0.055  -7.373  0.00  0.00     0.155 C 
BRANCH  21  22
HETATM   22  C           1     -37.755   0.068  -5.888  0.00  0.00     0.175 C 
HETATM   23  O           1     -38.075  -0.917  -5.187  0.00  0.00    -0.648 OA
HETATM   24  O           1     -37.216   1.063  -5.358  0.00  0.00    -0.648 OA
ENDBRANCH  21  22
ENDBRANCH  16  21
ENDBRANCH   3  16
TORSDOF 10
ENDMDL
MODEL 7
REMARK VINA RESULT:      -6.1      2.939      7.136
REMARK  10 active torsions:
REMARK  status: ('A' for Active; 'I' for Inactive)
REMARK    1  A    between atoms: N_2  and  C_9 
REMARK    2  A    between atoms: C_6  and  C_20 
REMARK    3  A    between atoms: C_9  and  C_10 
REMARK    4  A    between atoms: C_9  and  C_12 
REMARK       I    between atoms: C_10  and  N_13 
REMARK    5  A    between atoms: C_11  and  C_12 
REMARK    6  A    between atoms: N_13  and  C_20 
REMARK    7  A    between atoms: O_15  and  P_17 
REMARK    8  A    between atoms: P_17  and  O_18 
REMARK    9  A    between atoms: O_18  and  C_19 
REMARK   10  A    between atoms: C_19  and  C_20 
ROOT
HETATM    1  O           1     -23.235  -3.261  -8.344  0.00  0.00    -0.271 OA
HETATM    2  H           1     -22.152  -6.068  -9.230  0.00  0.00     0.163 HD
HETATM    3  C           1     -23.202  -4.307  -8.946  0.00  0.00     0.249 C 
HETATM    4  N           1     -22.180  -5.192  -8.725  0.00  0.00    -0.343 N 
ENDROOT
BRANCH   4   5
HETATM    5  C           1     -21.137  -4.871  -7.770  0.00  0.00     0.210 C 
BRANCH   5   6
HETATM    6  C           1     -19.891  -4.448  -8.509  0.00  0.00     0.198 C 
HETATM    7  O           1     -18.849  -4.178  -7.874  0.00  0.00    -0.646 OA
HETATM    8  O           1     -19.902  -4.367  -9.756  0.00  0.00    -0.646 OA
ENDBRANCH   5   6
BRANCH   5   9
HETATM    9  C           1     -20.832  -6.099  -6.921  0.00  0.00     0.217 C 
BRANCH   9  10
HETATM   10  O           1     -20.851  -5.747  -5.564  0.00  0.00    -0.287 OA
BRANCH  10  11
HETATM   11  P           1     -21.985  -6.462  -4.663  0.00  0.00     0.406 P 
HETATM   12  O           1     -23.325  -6.081  -5.164  0.00  0.00    -0.624 OA
HETATM   13  O           1     -21.827  -7.930  -4.744  0.00  0.00    -0.624 OA
BRANCH  11  14
HETATM   14  O           1     -21.828  -5.988  -3.127  0.00  0.00    -0.300 OA
HETATM   15  H           1     -22.594  -6.320  -2.691  0.00  0.00     0.223 HD
ENDBRANCH  11  14
ENDBRANCH  10  11
ENDBRANCH   9  10
ENDBRANCH   5   9
ENDBRANCH   4   5
BRANCH   3  16
HETATM   16  C           1     -24.286  -4.642  -9.941  0.00  0.00     0.284 C 
BRANCH  16  17
HETATM   17  N           1     -25.366  -3.603  -9.872  0.00  0.00    -0.066 N 
HETATM   18  H           1     -24.964  -2.706  -9.517  0.00  0.00     0.275 HD
HETATM   19  H           1     -25.764  -3.453 -10.826  0.00  0.00     0.275 HD
HETATM   20  H           1     -26.120  -3.928  -9.225  0.00  0.00     0.275 HD
ENDBRANCH  16  17
BRANCH  16  21
HETATM   21  C           1     -23.696  -4.667 -11.345  0.00  0.00     0.155 C 
BRANCH  21  22
HETATM   22  C           1     -23.981  -3.356 -12.035  0.00  0.00     0.175 C 
HETATM   23  O           1     -23.172  -2.408 -11.936  0.00  0.00    -0.648 OA
HETATM   24  O           1     -25.026  -3.218 -12.706  0.00  0.00    -0.648 OA
ENDBRANCH  21  22
ENDBRANCH  16  21
ENDBRANCH   3  16
TORSDOF 10
ENDMDL
MODEL 8
REMARK VINA RESULT:      -5.9      2.250      3.683
REMARK  10 active torsions:
REMARK  status: ('A' for Active; 'I' for Inactive)
REMARK    1  A    between atoms: N_2  and  C_9 
REMARK    2  A    between atoms: C_6  and  C_20 
REMARK    3  A    between atoms: C_9  and  C_10 
REMARK    4  A    between atoms: C_9  and  C_12 
REMARK       I    between atoms: C_10  and  N_13 
REMARK    5  A    between atoms: C_11  and  C_12 
REMARK    6  A    between atoms: N_13  and  C_20 
REMARK    7  A    between atoms: O_15  and  P_17 
REMARK    8  A    between atoms: P_17  and  O_18 
REMARK    9  A    between atoms: O_18  and  C_19 
REMARK   10  A    between atoms: C_19  and  C_20 
ROOT
HETATM    1  O           1     -20.968  -7.102  -6.865  0.00  0.00    -0.271 OA
HETATM    2  H           1     -21.693  -4.147  -6.101  0.00  0.00     0.163 HD
HETATM    3  C           1     -21.163  -6.148  -6.151  0.00  0.00     0.249 C 
HETATM    4  N           1     -21.529  -4.947  -6.699  0.00  0.00    -0.343 N 
ENDROOT
BRANCH   4   5
HETATM    5  C           1     -21.681  -4.821  -8.135  0.00  0.00     0.210 C 
BRANCH   5   6
HETATM    6  C           1     -20.359  -4.424  -8.747  0.00  0.00     0.198 C 
HETATM    7  O           1     -20.124  -4.680  -9.948  0.00  0.00    -0.646 OA
HETATM    8  O           1     -19.500  -3.839  -8.052  0.00  0.00    -0.646 OA
ENDBRANCH   5   6
BRANCH   5   9
HETATM    9  C           1     -22.724  -3.754  -8.443  0.00  0.00     0.217 C 
BRANCH   9  10
HETATM   10  O           1     -23.752  -4.314  -9.215  0.00  0.00    -0.287 OA
BRANCH  10  11
HETATM   11  P           1     -23.752  -3.924 -10.783  0.00  0.00     0.406 P 
HETATM   12  O           1     -23.698  -5.157 -11.598  0.00  0.00    -0.624 OA
HETATM   13  O           1     -24.986  -3.173 -11.105  0.00  0.00    -0.624 OA
BRANCH  11  14
HETATM   14  O           1     -22.464  -3.005 -11.107  0.00  0.00    -0.300 OA
HETATM   15  H           1     -21.722  -3.523 -10.844  0.00  0.00     0.223 HD
ENDBRANCH  11  14
ENDBRANCH  10  11
ENDBRANCH   9  10
ENDBRANCH   5   9
ENDBRANCH   4   5
BRANCH   3  16
HETATM   16  C           1     -21.005  -6.277  -4.656  0.00  0.00     0.284 C 
BRANCH  16  17
HETATM   17  N           1     -22.351  -6.175  -4.000  0.00  0.00    -0.066 N 
HETATM   18  H           1     -22.228  -6.073  -2.968  0.00  0.00     0.275 HD
HETATM   19  H           1     -22.856  -5.341  -4.375  0.00  0.00     0.275 HD
HETATM   20  H           1     -22.903  -7.039  -4.202  0.00  0.00     0.275 HD
ENDBRANCH  16  17
BRANCH  16  21
HETATM   21  C           1     -20.383  -7.628  -4.327  0.00  0.00     0.155 C 
BRANCH  21  22
HETATM   22  C           1     -20.940  -8.135  -3.020  0.00  0.00     0.175 C 
HETATM   23  O           1     -21.751  -9.087  -3.012  0.00  0.00    -0.648 OA
HETATM   24  O           1     -20.591  -7.603  -1.944  0.00  0.00    -0.648 OA
ENDBRANCH  21  22
ENDBRANCH  16  21
ENDBRANCH   3  16
TORSDOF 10
ENDMDL
MODEL 9
REMARK VINA RESULT:      -5.9      1.671      2.261
REMARK  10 active torsions:
REMARK  status: ('A' for Active; 'I' for Inactive)
REMARK    1  A    between atoms: N_2  and  C_9 
REMARK    2  A    between atoms: C_6  and  C_20 
REMARK    3  A    between atoms: C_9  and  C_10 
REMARK    4  A    between atoms: C_9  and  C_12 
REMARK       I    between atoms: C_10  and  N_13 
REMARK    5  A    between atoms: C_11  and  C_12 
REMARK    6  A    between atoms: N_13  and  C_20 
REMARK    7  A    between atoms: O_15  and  P_17 
REMARK    8  A    between atoms: P_17  and  O_18 
REMARK    9  A    between atoms: O_18  and  C_19 
REMARK   10  A    between atoms: C_19  and  C_20 
ROOT
HETATM    1  O           1     -23.806  -3.339  -8.541  0.00  0.00    -0.271 OA
HETATM    2  H           1     -21.211  -4.129 -10.116  0.00  0.00     0.163 HD
HETATM    3  C           1     -22.650  -3.645  -8.709  0.00  0.00     0.249 C 
HETATM    4  N           1     -22.180  -3.873  -9.975  0.00  0.00    -0.343 N 
ENDROOT
BRANCH   4   5
HETATM    5  C           1     -23.071  -3.748 -11.112  0.00  0.00     0.210 C 
BRANCH   5   6
HETATM    6  C           1     -23.791  -5.056 -11.331  0.00  0.00     0.198 C 
HETATM    7  O           1     -23.738  -5.620 -12.446  0.00  0.00    -0.646 OA
HETATM    8  O           1     -24.441  -5.575 -10.399  0.00  0.00    -0.646 OA
ENDBRANCH   5   6
BRANCH   5   9
HETATM    9  C           1     -22.260  -3.401 -12.355  0.00  0.00     0.217 C 
BRANCH   9  10
HETATM   10  O           1     -22.807  -2.264 -12.967  0.00  0.00    -0.287 OA
BRANCH  10  11
HETATM   11  P           1     -23.402  -2.477 -14.453  0.00  0.00     0.406 P 
HETATM   12  O           1     -24.435  -1.452 -14.723  0.00  0.00    -0.624 OA
HETATM   13  O           1     -22.311  -2.352 -15.444  0.00  0.00    -0.624 OA
BRANCH  11  14
HETATM   14  O           1     -24.061  -3.948 -14.561  0.00  0.00    -0.300 OA
HETATM   15  H           1     -23.595  -4.470 -13.930  0.00  0.00     0.223 HD
ENDBRANCH  11  14
ENDBRANCH  10  11
ENDBRANCH   9  10
ENDBRANCH   5   9
ENDBRANCH   4   5
BRANCH   3  16
HETATM   16  C           1     -21.722  -3.775  -7.526  0.00  0.00     0.284 C 
BRANCH  16  17
HETATM   17  N           1     -22.300  -4.749  -6.542  0.00  0.00    -0.066 N 
HETATM   18  H           1     -22.442  -5.673  -7.010  0.00  0.00     0.275 HD
HETATM   19  H           1     -21.641  -4.863  -5.740  0.00  0.00     0.275 HD
HETATM   20  H           1     -23.217  -4.389  -6.194  0.00  0.00     0.275 HD
ENDBRANCH  16  17
BRANCH  16  21
HETATM   21  C           1     -20.364  -4.278  -7.999  0.00  0.00     0.155 C 
BRANCH  21  22
HETATM   22  C           1     -19.790  -5.222  -6.972  0.00  0.00     0.175 C 
HETATM   23  O           1     -19.724  -6.446  -7.216  0.00  0.00    -0.648 OA
HETATM   24  O           1     -19.381  -4.780  -5.877  0.00  0.00    -0.648 OA
ENDBRANCH  21  22
ENDBRANCH  16  21
ENDBRANCH   3  16
TORSDOF 10
ENDMDL
