MODEL 1
REMARK VINA RESULT:      -7.8      0.000      0.000
REMARK  15 active torsions:
REMARK  status: ('A' for Active; 'I' for Inactive)
REMARK    1  A    between atoms: C_8  and  N_9 
REMARK    2  A    between atoms: C_8  and  C_36 
REMARK    3  A    between atoms: N_9  and  C_28 
REMARK    4  A    between atoms: N_14  and  C_15 
REMARK       I    between atoms: N_14  and  C_40 
REMARK    5  A    between atoms: C_15  and  C_16 
REMARK    6  A    between atoms: C_16  and  C_18 
REMARK    7  A    between atoms: C_18  and  C_19 
REMARK    8  A    between atoms: C_19  and  C_20 
REMARK    9  A    between atoms: C_19  and  N_26 
REMARK       I    between atoms: C_20  and  N_21 
REMARK   10  A    between atoms: N_21  and  C_35 
REMARK   11  A    between atoms: C_24  and  C_35 
REMARK       I    between atoms: N_25  and  C_40 
REMARK   12  A    between atoms: C_28  and  C_34 
REMARK   13  A    between atoms: C_28  and  C_29 
REMARK   14  A    between atoms: C_29  and  C_30 
REMARK   15  A    between atoms: C_35  and  C_36 
ROOT
HETATM    1  C           1     -21.577  -7.642  -1.223  0.00  0.00     0.187 C 
ENDROOT
BRANCH   1   2
HETATM    2  N           1     -21.920  -8.788  -2.043  0.00  0.00    -0.345 N 
HETATM    3  H           1     -22.786  -8.795  -2.564  0.00  0.00     0.163 HD
HETATM    4  C           1     -21.072  -9.860  -2.108  0.00  0.00     0.249 C 
HETATM    5  O           1     -20.038  -9.852  -1.484  0.00  0.00    -0.271 OA
BRANCH   4   6
HETATM    6  C           1     -21.429 -11.053  -2.960  0.00  0.00     0.274 C 
BRANCH   6   7
HETATM    7  C           1     -21.733 -10.592  -4.379  0.00  0.00     0.044 C 
BRANCH   7   8
HETATM    8  C           1     -21.659 -11.783  -5.327  0.00  0.00     0.023 C 
BRANCH   8   9
HETATM    9  C           1     -20.204 -12.051  -5.693  0.00  0.00     0.138 C 
BRANCH   9  10
HETATM   10  N           1     -19.564 -10.798  -6.115  0.00  0.00    -0.227 N 
HETATM   11  H           1     -20.146 -10.022  -6.518  0.00  0.00     0.177 HD
HETATM   12  C           1     -18.312 -10.653  -5.994  0.00  0.00     0.665 C 
HETATM   13  N           1     -17.762  -9.573  -6.357  0.00  0.00    -0.235 N 
HETATM   14  N           1     -17.592 -11.614  -5.495  0.00  0.00    -0.235 N 
HETATM   15  H           1     -18.342  -8.796  -6.760  0.00  0.00     0.174 HD
HETATM   16  H           1     -16.723  -9.453  -6.257  0.00  0.00     0.174 HD
HETATM   17  H           1     -18.047 -12.506  -5.195  0.00  0.00     0.174 HD
HETATM   18  H           1     -16.559 -11.495  -5.395  0.00  0.00     0.174 HD
ENDBRANCH   9  10
ENDBRANCH   8   9
ENDBRANCH   7   8
ENDBRANCH   6   7
BRANCH   6  19
HETATM   19  N           1     -22.637 -11.733  -2.386  0.00  0.00    -0.067 N 
HETATM   20  H           1     -23.502 -11.288  -2.769  0.00  0.00     0.275 HD
HETATM   21  H           1     -22.623 -12.745  -2.646  0.00  0.00     0.275 HD
HETATM   22  H           1     -22.628 -11.639  -1.346  0.00  0.00     0.275 HD
ENDBRANCH   6  19
ENDBRANCH   4   6
ENDBRANCH   1   2
BRANCH   1  23
HETATM   23  C           1     -22.237  -7.774   0.127  0.00  0.00     0.196 C 
HETATM   24  O           1     -23.463  -7.558   0.247  0.00  0.00    -0.646 OA
HETATM   25  O           1     -21.560  -8.099   1.126  0.00  0.00    -0.646 OA
ENDBRANCH   1  23
BRANCH   1  26
HETATM   26  C           1     -22.061  -6.368  -1.904  0.00  0.00     0.066 C 
BRANCH  26  27
HETATM   27  C           1     -22.078  -6.572  -3.413  0.00  0.00     0.273 C 
BRANCH  27  28
HETATM   28  N           1     -21.160  -5.653  -4.031  0.00  0.00     0.098 N 
HETATM   29  H           1     -20.228  -5.786  -3.638  0.00  0.00     0.317 HD
BRANCH  28  30
HETATM   30  C           1     -21.132  -5.944  -5.439  0.00  0.00     0.324 C 
BRANCH  30  31
HETATM   31  C           1     -20.084  -6.993  -5.714  0.00  0.00     0.207 C 
HETATM   32  O           1     -19.799  -7.837  -4.838  0.00  0.00    -0.646 OA
HETATM   33  O           1     -19.499  -7.018  -6.819  0.00  0.00    -0.646 OA
ENDBRANCH  30  31
BRANCH  30  34
HETATM   34  C           1     -20.798  -4.675  -6.212  0.00  0.00     0.087 C 
BRANCH  34  35
HETATM   35  C           1     -21.818  -4.459  -7.285  0.00  0.00    -0.028 A 
HETATM   36  C           1     -21.552  -4.277  -8.671  0.00  0.00    -0.002 A 
HETATM   37  C           1     -20.378  -4.239  -9.446  0.00  0.00     0.014 A 
HETATM   38  C           1     -22.783  -4.111  -9.307  0.00  0.00     0.042 A 
HETATM   39  C           1     -20.475  -4.035 -10.828  0.00  0.00     0.001 A 
HETATM   40  C           1     -21.719  -3.872 -11.437  0.00  0.00     0.002 A 
HETATM   41  C           1     -22.898  -3.906 -10.688  0.00  0.00     0.030 A 
HETATM   42  N           1     -23.754  -4.190  -8.335  0.00  0.00    -0.365 N 
HETATM   43  H           1     -24.786  -4.101  -8.508  0.00  0.00     0.165 HD
HETATM   44  C           1     -23.182  -4.401  -7.108  0.00  0.00     0.096 A 
ENDBRANCH  34  35
ENDBRANCH  30  34
ENDBRANCH  28  30
ENDBRANCH  27  28
ENDBRANCH  26  27
ENDBRANCH   1  26
TORSDOF 15
ENDMDL
MODEL 2
REMARK VINA RESULT:      -7.7      2.646      8.362
REMARK  15 active torsions:
REMARK  status: ('A' for Active; 'I' for Inactive)
REMARK    1  A    between atoms: C_8  and  N_9 
REMARK    2  A    between atoms: C_8  and  C_36 
REMARK    3  A    between atoms: N_9  and  C_28 
REMARK    4  A    between atoms: N_14  and  C_15 
REMARK       I    between atoms: N_14  and  C_40 
REMARK    5  A    between atoms: C_15  and  C_16 
REMARK    6  A    between atoms: C_16  and  C_18 
REMARK    7  A    between atoms: C_18  and  C_19 
REMARK    8  A    between atoms: C_19  and  C_20 
REMARK    9  A    between atoms: C_19  and  N_26 
REMARK       I    between atoms: C_20  and  N_21 
REMARK   10  A    between atoms: N_21  and  C_35 
REMARK   11  A    between atoms: C_24  and  C_35 
REMARK       I    between atoms: N_25  and  C_40 
REMARK   12  A    between atoms: C_28  and  C_34 
REMARK   13  A    between atoms: C_28  and  C_29 
REMARK   14  A    between atoms: C_29  and  C_30 
REMARK   15  A    between atoms: C_35  and  C_36 
ROOT
HETATM    1  C           1     -22.012  -6.665  -4.941  0.00  0.00     0.187 C 
ENDROOT
BRANCH   1   2
HETATM    2  N           1     -21.344  -5.852  -5.939  0.00  0.00    -0.345 N 
HETATM    3  H           1     -20.347  -5.944  -6.082  0.00  0.00     0.163 HD
HETATM    4  C           1     -22.063  -4.960  -6.687  0.00  0.00     0.249 C 
HETATM    5  O           1     -23.254  -4.849  -6.516  0.00  0.00    -0.271 OA
BRANCH   4   6
HETATM    6  C           1     -21.369  -4.114  -7.726  0.00  0.00     0.274 C 
BRANCH   6   7
HETATM    7  C           1     -22.317  -3.857  -8.889  0.00  0.00     0.044 C 
BRANCH   7   8
HETATM    8  C           1     -21.541  -3.906 -10.199  0.00  0.00     0.023 C 
BRANCH   8   9
HETATM    9  C           1     -22.442  -4.437 -11.306  0.00  0.00     0.138 C 
BRANCH   9  10
HETATM   10  N           1     -23.346  -3.370 -11.758  0.00  0.00    -0.227 N 
HETATM   11  H           1     -24.106  -3.022 -11.121  0.00  0.00     0.177 HD
HETATM   12  C           1     -23.211  -2.871 -12.913  0.00  0.00     0.665 C 
HETATM   13  N           1     -23.989  -1.952 -13.302  0.00  0.00    -0.235 N 
HETATM   14  N           1     -22.270  -3.303 -13.701  0.00  0.00    -0.235 N 
HETATM   15  H           1     -24.748  -1.603 -12.666  0.00  0.00     0.174 HD
HETATM   16  H           1     -23.876  -1.539 -14.261  0.00  0.00     0.174 HD
HETATM   17  H           1     -21.627  -4.063 -13.380  0.00  0.00     0.174 HD
HETATM   18  H           1     -22.158  -2.892 -14.654  0.00  0.00     0.174 HD
ENDBRANCH   9  10
ENDBRANCH   8   9
ENDBRANCH   7   8
ENDBRANCH   6   7
BRANCH   6  19
HETATM   19  N           1     -20.152  -4.835  -8.225  0.00  0.00    -0.067 N 
HETATM   20  H           1     -19.333  -4.598  -7.620  0.00  0.00     0.275 HD
HETATM   21  H           1     -20.321  -5.866  -8.192  0.00  0.00     0.275 HD
HETATM   22  H           1     -19.954  -4.545  -9.208  0.00  0.00     0.275 HD
ENDBRANCH   6  19
ENDBRANCH   4   6
ENDBRANCH   1   2
BRANCH   1  23
HETATM   23  C           1     -21.766  -6.080  -3.571  0.00  0.00     0.196 C 
HETATM   24  O           1     -22.619  -6.224  -2.668  0.00  0.00    -0.646 OA
HETATM   25  O           1     -20.712  -5.451  -3.340  0.00  0.00    -0.646 OA
ENDBRANCH   1  23
BRANCH   1  26
HETATM   26  C           1     -21.464  -8.084  -4.993  0.00  0.00     0.066 C 
BRANCH  26  27
HETATM   27  C           1     -19.963  -8.042  -5.250  0.00  0.00     0.273 C 
BRANCH  27  28
HETATM   28  N           1     -19.391  -9.330  -4.960  0.00  0.00     0.098 N 
HETATM   29  H           1     -18.650  -9.532  -5.631  0.00  0.00     0.317 HD
BRANCH  28  30
HETATM   30  C           1     -18.836  -9.273  -3.635  0.00  0.00     0.324 C 
BRANCH  30  31
HETATM   31  C           1     -17.355  -9.551  -3.698  0.00  0.00     0.207 C 
HETATM   32  O           1     -16.672  -9.542  -2.652  0.00  0.00    -0.646 OA
HETATM   33  O           1     -16.810  -9.792  -4.798  0.00  0.00    -0.646 OA
ENDBRANCH  30  31
BRANCH  30  34
HETATM   34  C           1     -19.513 -10.317  -2.756  0.00  0.00     0.087 C 
BRANCH  34  35
HETATM   35  C           1     -20.468  -9.642  -1.823  0.00  0.00    -0.028 A 
HETATM   36  C           1     -21.695 -10.182  -1.344  0.00  0.00    -0.002 A 
HETATM   37  C           1     -22.375 -11.397  -1.546  0.00  0.00     0.014 A 
HETATM   38  C           1     -22.264  -9.224  -0.504  0.00  0.00     0.042 A 
HETATM   39  C           1     -23.600 -11.612  -0.902  0.00  0.00     0.001 A 
HETATM   40  C           1     -24.145 -10.637  -0.068  0.00  0.00     0.002 A 
HETATM   41  C           1     -23.488  -9.423   0.148  0.00  0.00     0.030 A 
HETATM   42  N           1     -21.408  -8.146  -0.480  0.00  0.00    -0.365 N 
HETATM   43  H           1     -21.567  -7.264   0.067  0.00  0.00     0.165 HD
HETATM   44  C           1     -20.319  -8.389  -1.275  0.00  0.00     0.096 A 
ENDBRANCH  34  35
ENDBRANCH  30  34
ENDBRANCH  28  30
ENDBRANCH  27  28
ENDBRANCH  26  27
ENDBRANCH   1  26
TORSDOF 15
ENDMDL
MODEL 3
REMARK VINA RESULT:      -7.7      3.039      8.989
REMARK  15 active torsions:
REMARK  status: ('A' for Active; 'I' for Inactive)
REMARK    1  A    between atoms: C_8  and  N_9 
REMARK    2  A    between atoms: C_8  and  C_36 
REMARK    3  A    between atoms: N_9  and  C_28 
REMARK    4  A    between atoms: N_14  and  C_15 
REMARK       I    between atoms: N_14  and  C_40 
REMARK    5  A    between atoms: C_15  and  C_16 
REMARK    6  A    between atoms: C_16  and  C_18 
REMARK    7  A    between atoms: C_18  and  C_19 
REMARK    8  A    between atoms: C_19  and  C_20 
REMARK    9  A    between atoms: C_19  and  N_26 
REMARK       I    between atoms: C_20  and  N_21 
REMARK   10  A    between atoms: N_21  and  C_35 
REMARK   11  A    between atoms: C_24  and  C_35 
REMARK       I    between atoms: N_25  and  C_40 
REMARK   12  A    between atoms: C_28  and  C_34 
REMARK   13  A    between atoms: C_28  and  C_29 
REMARK   14  A    between atoms: C_29  and  C_30 
REMARK   15  A    between atoms: C_35  and  C_36 
ROOT
HETATM    1  C           1     -20.965  -5.011  -7.274  0.00  0.00     0.187 C 
ENDROOT
BRANCH   1   2
HETATM    2  N           1     -21.703  -5.170  -8.513  0.00  0.00    -0.345 N 
HETATM    3  H           1     -21.282  -5.658  -9.293  0.00  0.00     0.163 HD
HETATM    4  C           1     -22.967  -4.659  -8.627  0.00  0.00     0.249 C 
HETATM    5  O           1     -23.470  -4.076  -7.696  0.00  0.00    -0.271 OA
BRANCH   4   6
HETATM    6  C           1     -23.735  -4.824  -9.915  0.00  0.00     0.274 C 
BRANCH   6   7
HETATM    7  C           1     -22.870  -4.371 -11.084  0.00  0.00     0.044 C 
BRANCH   7   8
HETATM    8  C           1     -23.763  -3.915 -12.231  0.00  0.00     0.023 C 
BRANCH   8   9
HETATM    9  C           1     -22.994  -2.946 -13.119  0.00  0.00     0.138 C 
BRANCH   9  10
HETATM   10  N           1     -23.879  -1.844 -13.525  0.00  0.00    -0.227 N 
HETATM   11  H           1     -24.615  -1.492 -12.864  0.00  0.00     0.177 HD
HETATM   12  C           1     -23.754  -1.320 -14.670  0.00  0.00     0.665 C 
HETATM   13  N           1     -24.515  -0.371 -15.019  0.00  0.00    -0.235 N 
HETATM   14  N           1     -22.842  -1.756 -15.489  0.00  0.00    -0.235 N 
HETATM   15  H           1     -25.251  -0.018 -14.359  0.00  0.00     0.174 HD
HETATM   16  H           1     -24.411   0.064 -15.970  0.00  0.00     0.174 HD
HETATM   17  H           1     -22.213  -2.540 -15.200  0.00  0.00     0.174 HD
HETATM   18  H           1     -22.738  -1.324 -16.434  0.00  0.00     0.174 HD
ENDBRANCH   9  10
ENDBRANCH   8   9
ENDBRANCH   7   8
ENDBRANCH   6   7
BRANCH   6  19
HETATM   19  N           1     -24.981  -3.990  -9.864  0.00  0.00    -0.067 N 
HETATM   20  H           1     -25.564  -4.283  -9.048  0.00  0.00     0.275 HD
HETATM   21  H           1     -24.721  -2.983  -9.763  0.00  0.00     0.275 HD
HETATM   22  H           1     -25.525  -4.123 -10.746  0.00  0.00     0.275 HD
ENDBRANCH   6  19
ENDBRANCH   4   6
ENDBRANCH   1   2
BRANCH   1  23
HETATM   23  C           1     -19.635  -4.360  -7.562  0.00  0.00     0.196 C 
HETATM   24  O           1     -18.678  -4.517  -6.773  0.00  0.00    -0.646 OA
HETATM   25  O           1     -19.489  -3.663  -8.590  0.00  0.00    -0.646 OA
ENDBRANCH   1  23
BRANCH   1  26
HETATM   26  C           1     -20.737  -6.377  -6.641  0.00  0.00     0.066 C 
BRANCH  26  27
HETATM   27  C           1     -21.596  -6.508  -5.390  0.00  0.00     0.273 C 
BRANCH  27  28
HETATM   28  N           1     -20.747  -6.663  -4.240  0.00  0.00     0.098 N 
HETATM   29  H           1     -20.651  -5.767  -3.763  0.00  0.00     0.317 HD
BRANCH  28  30
HETATM   30  C           1     -21.375  -7.610  -3.358  0.00  0.00     0.324 C 
BRANCH  30  31
HETATM   31  C           1     -21.958  -6.882  -2.173  0.00  0.00     0.207 C 
HETATM   32  O           1     -22.658  -5.862  -2.349  0.00  0.00    -0.646 OA
HETATM   33  O           1     -21.742  -7.299  -1.014  0.00  0.00    -0.646 OA
ENDBRANCH  30  31
BRANCH  30  34
HETATM   34  C           1     -20.340  -8.619  -2.876  0.00  0.00     0.087 C 
BRANCH  34  35
HETATM   35  C           1     -19.766  -9.346  -4.051  0.00  0.00    -0.028 A 
HETATM   36  C           1     -18.390  -9.637  -4.267  0.00  0.00    -0.002 A 
HETATM   37  C           1     -17.210  -9.381  -3.544  0.00  0.00     0.014 A 
HETATM   38  C           1     -18.301 -10.325  -5.477  0.00  0.00     0.042 A 
HETATM   39  C           1     -15.983  -9.819  -4.057  0.00  0.00     0.001 A 
HETATM   40  C           1     -15.924 -10.504  -5.270  0.00  0.00     0.002 A 
HETATM   41  C           1     -17.082 -10.770  -6.005  0.00  0.00     0.030 A 
HETATM   42  N           1     -19.581 -10.441  -5.972  0.00  0.00    -0.365 N 
HETATM   43  H           1     -19.835 -10.913  -6.875  0.00  0.00     0.165 HD
HETATM   44  C           1     -20.474  -9.853  -5.117  0.00  0.00     0.096 A 
ENDBRANCH  34  35
ENDBRANCH  30  34
ENDBRANCH  28  30
ENDBRANCH  27  28
ENDBRANCH  26  27
ENDBRANCH   1  26
TORSDOF 15
ENDMDL
MODEL 4
REMARK VINA RESULT:      -7.7      3.009      9.245
REMARK  15 active torsions:
REMARK  status: ('A' for Active; 'I' for Inactive)
REMARK    1  A    between atoms: C_8  and  N_9 
REMARK    2  A    between atoms: C_8  and  C_36 
REMARK    3  A    between atoms: N_9  and  C_28 
REMARK    4  A    between atoms: N_14  and  C_15 
REMARK       I    between atoms: N_14  and  C_40 
REMARK    5  A    between atoms: C_15  and  C_16 
REMARK    6  A    between atoms: C_16  and  C_18 
REMARK    7  A    between atoms: C_18  and  C_19 
REMARK    8  A    between atoms: C_19  and  C_20 
REMARK    9  A    between atoms: C_19  and  N_26 
REMARK       I    between atoms: C_20  and  N_21 
REMARK   10  A    between atoms: N_21  and  C_35 
REMARK   11  A    between atoms: C_24  and  C_35 
REMARK       I    between atoms: N_25  and  C_40 
REMARK   12  A    between atoms: C_28  and  C_34 
REMARK   13  A    between atoms: C_28  and  C_29 
REMARK   14  A    between atoms: C_29  and  C_30 
REMARK   15  A    between atoms: C_35  and  C_36 
ROOT
HETATM    1  C           1     -21.085  -4.854  -7.402  0.00  0.00     0.187 C 
ENDROOT
BRANCH   1   2
HETATM    2  N           1     -22.024  -4.651  -8.488  0.00  0.00    -0.345 N 
HETATM    3  H           1     -21.698  -4.647  -9.445  0.00  0.00     0.163 HD
HETATM    4  C           1     -23.353  -4.463  -8.217  0.00  0.00     0.249 C 
HETATM    5  O           1     -23.743  -4.466  -7.074  0.00  0.00    -0.271 OA
BRANCH   4   6
HETATM    6  C           1     -24.330  -4.250  -9.346  0.00  0.00     0.274 C 
BRANCH   6   7
HETATM    7  C           1     -23.613  -4.421 -10.679  0.00  0.00     0.044 C 
BRANCH   7   8
HETATM    8  C           1     -24.143  -3.399 -11.677  0.00  0.00     0.023 C 
BRANCH   8   9
HETATM    9  C           1     -22.975  -2.741 -12.400  0.00  0.00     0.138 C 
BRANCH   9  10
HETATM   10  N           1     -23.487  -1.768 -13.376  0.00  0.00    -0.227 N 
HETATM   11  H           1     -24.059  -0.950 -13.050  0.00  0.00     0.177 HD
HETATM   12  C           1     -23.239  -1.916 -14.609  0.00  0.00     0.665 C 
HETATM   13  N           1     -23.679  -1.078 -15.448  0.00  0.00    -0.235 N 
HETATM   14  N           1     -22.530  -2.929 -15.011  0.00  0.00    -0.235 N 
HETATM   15  H           1     -24.252  -0.260 -15.124  0.00  0.00     0.174 HD
HETATM   16  H           1     -23.473  -1.201 -16.471  0.00  0.00     0.174 HD
HETATM   17  H           1     -22.167  -3.621 -14.317  0.00  0.00     0.174 HD
HETATM   18  H           1     -22.325  -3.052 -16.028  0.00  0.00     0.174 HD
ENDBRANCH   9  10
ENDBRANCH   8   9
ENDBRANCH   7   8
ENDBRANCH   6   7
BRANCH   6  19
HETATM   19  N           1     -24.899  -2.865  -9.260  0.00  0.00    -0.067 N 
HETATM   20  H           1     -25.269  -2.698  -8.297  0.00  0.00     0.275 HD
HETATM   21  H           1     -24.149  -2.167  -9.470  0.00  0.00     0.275 HD
HETATM   22  H           1     -25.673  -2.763  -9.954  0.00  0.00     0.275 HD
ENDBRANCH   6  19
ENDBRANCH   4   6
ENDBRANCH   1   2
BRANCH   1  23
HETATM   23  C           1     -19.769  -4.202  -7.748  0.00  0.00     0.196 C 
HETATM   24  O           1     -19.704  -3.385  -8.693  0.00  0.00    -0.646 OA
HETATM   25  O           1     -18.742  -4.479  -7.091  0.00  0.00    -0.646 OA
ENDBRANCH   1  23
BRANCH   1  26
HETATM   26  C           1     -20.873  -6.347  -7.188  0.00  0.00     0.066 C 
BRANCH  26  27
HETATM   27  C           1     -21.248  -6.714  -5.758  0.00  0.00     0.273 C 
BRANCH  27  28
HETATM   28  N           1     -20.051  -6.893  -4.980  0.00  0.00     0.098 N 
HETATM   29  H           1     -19.996  -6.166  -4.267  0.00  0.00     0.317 HD
BRANCH  28  30
HETATM   30  C           1     -20.133  -8.181  -4.345  0.00  0.00     0.324 C 
BRANCH  30  31
HETATM   31  C           1     -19.727  -9.252  -5.327  0.00  0.00     0.207 C 
HETATM   32  O           1     -18.536  -9.343  -5.696  0.00  0.00    -0.646 OA
HETATM   33  O           1     -20.581 -10.048  -5.773  0.00  0.00    -0.646 OA
ENDBRANCH  30  31
BRANCH  30  34
HETATM   34  C           1     -21.562  -8.430  -3.883  0.00  0.00     0.087 C 
BRANCH  34  35
HETATM   35  C           1     -21.715  -7.984  -2.463  0.00  0.00    -0.028 A 
HETATM   36  C           1     -21.360  -8.733  -1.306  0.00  0.00    -0.002 A 
HETATM   37  C           1     -20.803 -10.008  -1.098  0.00  0.00     0.014 A 
HETATM   38  C           1     -21.668  -7.945  -0.197  0.00  0.00     0.042 A 
HETATM   39  C           1     -20.574 -10.452   0.210  0.00  0.00     0.001 A 
HETATM   40  C           1     -20.893  -9.644   1.300  0.00  0.00     0.002 A 
HETATM   41  C           1     -21.447  -8.373   1.118  0.00  0.00     0.030 A 
HETATM   42  N           1     -22.191  -6.764  -0.672  0.00  0.00    -0.365 N 
HETATM   43  H           1     -22.519  -5.967  -0.071  0.00  0.00     0.165 HD
HETATM   44  C           1     -22.224  -6.777  -2.041  0.00  0.00     0.096 A 
ENDBRANCH  34  35
ENDBRANCH  30  34
ENDBRANCH  28  30
ENDBRANCH  27  28
ENDBRANCH  26  27
ENDBRANCH   1  26
TORSDOF 15
ENDMDL
MODEL 5
REMARK VINA RESULT:      -7.5      2.148      8.111
REMARK  15 active torsions:
REMARK  status: ('A' for Active; 'I' for Inactive)
REMARK    1  A    between atoms: C_8  and  N_9 
REMARK    2  A    between atoms: C_8  and  C_36 
REMARK    3  A    between atoms: N_9  and  C_28 
REMARK    4  A    between atoms: N_14  and  C_15 
REMARK       I    between atoms: N_14  and  C_40 
REMARK    5  A    between atoms: C_15  and  C_16 
REMARK    6  A    between atoms: C_16  and  C_18 
REMARK    7  A    between atoms: C_18  and  C_19 
REMARK    8  A    between atoms: C_19  and  C_20 
REMARK    9  A    between atoms: C_19  and  N_26 
REMARK       I    between atoms: C_20  and  N_21 
REMARK   10  A    between atoms: N_21  and  C_35 
REMARK   11  A    between atoms: C_24  and  C_35 
REMARK       I    between atoms: N_25  and  C_40 
REMARK   12  A    between atoms: C_28  and  C_34 
REMARK   13  A    between atoms: C_28  and  C_29 
REMARK   14  A    between atoms: C_29  and  C_30 
REMARK   15  A    between atoms: C_35  and  C_36 
ROOT
HETATM    1  C           1     -20.967  -6.286  -5.253  0.00  0.00     0.187 C 
ENDROOT
BRANCH   1   2
HETATM    2  N           1     -21.518  -5.600  -6.406  0.00  0.00    -0.345 N 
HETATM    3  H           1     -22.493  -5.718  -6.646  0.00  0.00     0.163 HD
HETATM    4  C           1     -20.717  -4.795  -7.170  0.00  0.00     0.249 C 
HETATM    5  O           1     -19.552  -4.655  -6.884  0.00  0.00    -0.271 OA
BRANCH   4   6
HETATM    6  C           1     -21.290  -4.082  -8.370  0.00  0.00     0.274 C 
BRANCH   6   7
HETATM    7  C           1     -22.623  -4.714  -8.749  0.00  0.00     0.044 C 
BRANCH   7   8
HETATM    8  C           1     -23.683  -3.627  -8.873  0.00  0.00     0.023 C 
BRANCH   8   9
HETATM    9  C           1     -24.275  -3.651 -10.276  0.00  0.00     0.138 C 
BRANCH   9  10
HETATM   10  N           1     -23.295  -3.117 -11.232  0.00  0.00    -0.227 N 
HETATM   11  H           1     -22.888  -2.160 -11.086  0.00  0.00     0.177 HD
HETATM   12  C           1     -22.940  -3.810 -12.231  0.00  0.00     0.665 C 
HETATM   13  N           1     -22.095  -3.350 -13.053  0.00  0.00    -0.235 N 
HETATM   14  N           1     -23.444  -4.995 -12.411  0.00  0.00    -0.235 N 
HETATM   15  H           1     -21.689  -2.393 -12.908  0.00  0.00     0.174 HD
HETATM   16  H           1     -21.802  -3.925 -13.881  0.00  0.00     0.174 HD
HETATM   17  H           1     -24.141  -5.375 -11.731  0.00  0.00     0.174 HD
HETATM   18  H           1     -23.152  -5.567 -13.234  0.00  0.00     0.174 HD
ENDBRANCH   9  10
ENDBRANCH   8   9
ENDBRANCH   7   8
ENDBRANCH   6   7
BRANCH   6  19
HETATM   19  N           1     -20.336  -4.201  -9.523  0.00  0.00    -0.067 N 
HETATM   20  H           1     -20.837  -4.594 -10.351  0.00  0.00     0.275 HD
HETATM   21  H           1     -19.959  -3.254  -9.760  0.00  0.00     0.275 HD
HETATM   22  H           1     -19.548  -4.834  -9.259  0.00  0.00     0.275 HD
ENDBRANCH   6  19
ENDBRANCH   4   6
ENDBRANCH   1   2
BRANCH   1  23
HETATM   23  C           1     -20.565  -7.686  -5.646  0.00  0.00     0.196 C 
HETATM   24  O           1     -19.357  -7.971  -5.800  0.00  0.00    -0.646 OA
HETATM   25  O           1     -21.440  -8.563  -5.818  0.00  0.00    -0.646 OA
ENDBRANCH   1  23
BRANCH   1  26
HETATM   26  C           1     -22.016  -6.348  -4.151  0.00  0.00     0.066 C 
BRANCH  26  27
HETATM   27  C           1     -21.348  -6.140  -2.798  0.00  0.00     0.273 C 
BRANCH  27  28
HETATM   28  N           1     -22.248  -6.544  -1.752  0.00  0.00     0.098 N 
HETATM   29  H           1     -23.202  -6.558  -2.110  0.00  0.00     0.317 HD
BRANCH  28  30
HETATM   30  C           1     -21.871  -7.869  -1.339  0.00  0.00     0.324 C 
BRANCH  30  31
HETATM   31  C           1     -22.196  -8.050   0.123  0.00  0.00     0.207 C 
HETATM   32  O           1     -23.377  -7.949   0.518  0.00  0.00    -0.646 OA
HETATM   33  O           1     -21.284  -8.302   0.941  0.00  0.00    -0.646 OA
ENDBRANCH  30  31
BRANCH  30  34
HETATM   34  C           1     -20.375  -8.061  -1.555  0.00  0.00     0.087 C 
BRANCH  34  35
HETATM   35  C           1     -20.142  -9.296  -2.366  0.00  0.00    -0.028 A 
HETATM   36  C           1     -18.889  -9.744  -2.870  0.00  0.00    -0.002 A 
HETATM   37  C           1     -17.572  -9.252  -2.799  0.00  0.00     0.014 A 
HETATM   38  C           1     -19.127 -10.930  -3.566  0.00  0.00     0.042 A 
HETATM   39  C           1     -16.540  -9.961  -3.426  0.00  0.00     0.001 A 
HETATM   40  C           1     -16.807 -11.143  -4.115  0.00  0.00     0.002 A 
HETATM   41  C           1     -18.107 -11.652  -4.199  0.00  0.00     0.030 A 
HETATM   42  N           1     -20.477 -11.184  -3.482  0.00  0.00    -0.365 N 
HETATM   43  H           1     -20.960 -12.012  -3.913  0.00  0.00     0.165 HD
HETATM   44  C           1     -21.100 -10.202  -2.759  0.00  0.00     0.096 A 
ENDBRANCH  34  35
ENDBRANCH  30  34
ENDBRANCH  28  30
ENDBRANCH  27  28
ENDBRANCH  26  27
ENDBRANCH   1  26
TORSDOF 15
ENDMDL
MODEL 6
REMARK VINA RESULT:      -7.5      2.581      8.726
REMARK  15 active torsions:
REMARK  status: ('A' for Active; 'I' for Inactive)
REMARK    1  A    between atoms: C_8  and  N_9 
REMARK    2  A    between atoms: C_8  and  C_36 
REMARK    3  A    between atoms: N_9  and  C_28 
REMARK    4  A    between atoms: N_14  and  C_15 
REMARK       I    between atoms: N_14  and  C_40 
REMARK    5  A    between atoms: C_15  and  C_16 
REMARK    6  A    between atoms: C_16  and  C_18 
REMARK    7  A    between atoms: C_18  and  C_19 
REMARK    8  A    between atoms: C_19  and  C_20 
REMARK    9  A    between atoms: C_19  and  N_26 
REMARK       I    between atoms: C_20  and  N_21 
REMARK   10  A    between atoms: N_21  and  C_35 
REMARK   11  A    between atoms: C_24  and  C_35 
REMARK       I    between atoms: N_25  and  C_40 
REMARK   12  A    between atoms: C_28  and  C_34 
REMARK   13  A    between atoms: C_28  and  C_29 
REMARK   14  A    between atoms: C_29  and  C_30 
REMARK   15  A    between atoms: C_35  and  C_36 
ROOT
HETATM    1  C           1     -19.958  -8.347  -4.976  0.00  0.00     0.187 C 
ENDROOT
BRANCH   1   2
HETATM    2  N           1     -20.889  -7.699  -5.879  0.00  0.00    -0.345 N 
HETATM    3  H           1     -21.708  -8.196  -6.202  0.00  0.00     0.163 HD
HETATM    4  C           1     -20.657  -6.417  -6.296  0.00  0.00     0.249 C 
HETATM    5  O           1     -19.678  -5.824  -5.912  0.00  0.00    -0.271 OA
BRANCH   4   6
HETATM    6  C           1     -21.625  -5.743  -7.237  0.00  0.00     0.274 C 
BRANCH   6   7
HETATM    7  C           1     -20.861  -4.821  -8.178  0.00  0.00     0.044 C 
BRANCH   7   8
HETATM    8  C           1     -21.832  -3.849  -8.837  0.00  0.00     0.023 C 
BRANCH   8   9
HETATM    9  C           1     -22.357  -4.454 -10.133  0.00  0.00     0.138 C 
BRANCH   9  10
HETATM   10  N           1     -23.125  -3.442 -10.871  0.00  0.00    -0.227 N 
HETATM   11  H           1     -23.954  -2.981 -10.422  0.00  0.00     0.177 HD
HETATM   12  C           1     -22.787  -3.125 -12.050  0.00  0.00     0.665 C 
HETATM   13  N           1     -23.448  -2.253 -12.685  0.00  0.00    -0.235 N 
HETATM   14  N           1     -21.760  -3.696 -12.607  0.00  0.00    -0.235 N 
HETATM   15  H           1     -24.278  -1.792 -12.236  0.00  0.00     0.174 HD
HETATM   16  H           1     -23.168  -1.991 -13.664  0.00  0.00     0.174 HD
HETATM   17  H           1     -21.214  -4.416 -12.082  0.00  0.00     0.174 HD
HETATM   18  H           1     -21.481  -3.435 -13.579  0.00  0.00     0.174 HD
ENDBRANCH   9  10
ENDBRANCH   8   9
ENDBRANCH   7   8
ENDBRANCH   6   7
BRANCH   6  19
HETATM   19  N           1     -22.614  -4.939  -6.445  0.00  0.00    -0.067 N 
HETATM   20  H           1     -22.375  -4.994  -5.429  0.00  0.00     0.275 HD
HETATM   21  H           1     -22.580  -3.941  -6.757  0.00  0.00     0.275 HD
HETATM   22  H           1     -23.574  -5.320  -6.598  0.00  0.00     0.275 HD
ENDBRANCH   6  19
ENDBRANCH   4   6
ENDBRANCH   1   2
BRANCH   1  23
HETATM   23  C           1     -19.201  -9.421  -5.719  0.00  0.00     0.196 C 
HETATM   24  O           1     -18.082  -9.167  -6.216  0.00  0.00    -0.646 OA
HETATM   25  O           1     -19.693 -10.564  -5.837  0.00  0.00    -0.646 OA
ENDBRANCH   1  23
BRANCH   1  26
HETATM   26  C           1     -20.725  -8.974  -3.819  0.00  0.00     0.066 C 
BRANCH  26  27
HETATM   27  C           1     -19.876  -8.923  -2.556  0.00  0.00     0.273 C 
BRANCH  27  28
HETATM   28  N           1     -20.261  -7.785  -1.765  0.00  0.00     0.098 N 
HETATM   29  H           1     -19.892  -6.935  -2.189  0.00  0.00     0.317 HD
BRANCH  28  30
HETATM   30  C           1     -21.699  -7.729  -1.754  0.00  0.00     0.324 C 
BRANCH  30  31
HETATM   31  C           1     -22.153  -6.390  -2.280  0.00  0.00     0.207 C 
HETATM   32  O           1     -22.295  -5.427  -1.498  0.00  0.00    -0.646 OA
HETATM   33  O           1     -22.386  -6.244  -3.500  0.00  0.00    -0.646 OA
ENDBRANCH  30  31
BRANCH  30  34
HETATM   34  C           1     -22.202  -7.912  -0.328  0.00  0.00     0.087 C 
BRANCH  34  35
HETATM   35  C           1     -21.856  -9.287   0.152  0.00  0.00    -0.028 A 
HETATM   36  C           1     -22.565 -10.483  -0.147  0.00  0.00    -0.002 A 
HETATM   37  C           1     -23.710 -10.778  -0.910  0.00  0.00     0.014 A 
HETATM   38  C           1     -21.903 -11.526   0.501  0.00  0.00     0.042 A 
HETATM   39  C           1     -24.154 -12.103  -0.998  0.00  0.00     0.001 A 
HETATM   40  C           1     -23.472 -13.125  -0.340  0.00  0.00     0.002 A 
HETATM   41  C           1     -22.332 -12.857   0.424  0.00  0.00     0.030 A 
HETATM   42  N           1     -20.832 -10.973   1.167  0.00  0.00    -0.365 N 
HETATM   43  H           1     -20.144 -11.512   1.749  0.00  0.00     0.165 HD
HETATM   44  C           1     -20.794  -9.620   0.963  0.00  0.00     0.096 A 
ENDBRANCH  34  35
ENDBRANCH  30  34
ENDBRANCH  28  30
ENDBRANCH  27  28
ENDBRANCH  26  27
ENDBRANCH   1  26
TORSDOF 15
ENDMDL
MODEL 7
REMARK VINA RESULT:      -7.4      2.398      8.500
REMARK  15 active torsions:
REMARK  status: ('A' for Active; 'I' for Inactive)
REMARK    1  A    between atoms: C_8  and  N_9 
REMARK    2  A    between atoms: C_8  and  C_36 
REMARK    3  A    between atoms: N_9  and  C_28 
REMARK    4  A    between atoms: N_14  and  C_15 
REMARK       I    between atoms: N_14  and  C_40 
REMARK    5  A    between atoms: C_15  and  C_16 
REMARK    6  A    between atoms: C_16  and  C_18 
REMARK    7  A    between atoms: C_18  and  C_19 
REMARK    8  A    between atoms: C_19  and  C_20 
REMARK    9  A    between atoms: C_19  and  N_26 
REMARK       I    between atoms: C_20  and  N_21 
REMARK   10  A    between atoms: N_21  and  C_35 
REMARK   11  A    between atoms: C_24  and  C_35 
REMARK       I    between atoms: N_25  and  C_40 
REMARK   12  A    between atoms: C_28  and  C_34 
REMARK   13  A    between atoms: C_28  and  C_29 
REMARK   14  A    between atoms: C_29  and  C_30 
REMARK   15  A    between atoms: C_35  and  C_36 
ROOT
HETATM    1  C           1     -21.158  -5.604  -6.346  0.00  0.00     0.187 C 
ENDROOT
BRANCH   1   2
HETATM    2  N           1     -22.028  -5.481  -7.500  0.00  0.00    -0.345 N 
HETATM    3  H           1     -22.412  -6.310  -7.934  0.00  0.00     0.163 HD
HETATM    4  C           1     -22.329  -4.244  -8.001  0.00  0.00     0.249 C 
HETATM    5  O           1     -21.870  -3.254  -7.483  0.00  0.00    -0.271 OA
BRANCH   4   6
HETATM    6  C           1     -23.232  -4.116  -9.202  0.00  0.00     0.274 C 
BRANCH   6   7
HETATM    7  C           1     -22.573  -3.220 -10.242  0.00  0.00     0.044 C 
BRANCH   7   8
HETATM    8  C           1     -22.294  -4.026 -11.504  0.00  0.00     0.023 C 
BRANCH   8   9
HETATM    9  C           1     -23.551  -4.080 -12.362  0.00  0.00     0.138 C 
BRANCH   9  10
HETATM   10  N           1     -23.922  -2.720 -12.777  0.00  0.00    -0.227 N 
HETATM   11  H           1     -24.535  -2.132 -12.160  0.00  0.00     0.177 HD
HETATM   12  C           1     -23.501  -2.256 -13.878  0.00  0.00     0.665 C 
HETATM   13  N           1     -23.820  -1.085 -14.235  0.00  0.00    -0.235 N 
HETATM   14  N           1     -22.742  -2.985 -14.642  0.00  0.00    -0.235 N 
HETATM   15  H           1     -24.433  -0.496 -13.619  0.00  0.00     0.174 HD
HETATM   16  H           1     -23.471  -0.701 -15.149  0.00  0.00     0.174 HD
HETATM   17  H           1     -22.479  -3.953 -14.347  0.00  0.00     0.174 HD
HETATM   18  H           1     -22.395  -2.603 -15.550  0.00  0.00     0.174 HD
ENDBRANCH   9  10
ENDBRANCH   8   9
ENDBRANCH   7   8
ENDBRANCH   6   7
BRANCH   6  19
HETATM   19  N           1     -24.540  -3.512  -8.781  0.00  0.00    -0.067 N 
HETATM   20  H           1     -24.900  -4.012  -7.937  0.00  0.00     0.275 HD
HETATM   21  H           1     -24.398  -2.501  -8.552  0.00  0.00     0.275 HD
HETATM   22  H           1     -25.231  -3.599  -9.559  0.00  0.00     0.275 HD
ENDBRANCH   6  19
ENDBRANCH   4   6
ENDBRANCH   1   2
BRANCH   1  23
HETATM   23  C           1     -19.733  -5.783  -6.808  0.00  0.00     0.196 C 
HETATM   24  O           1     -19.286  -6.930  -7.027  0.00  0.00    -0.646 OA
HETATM   25  O           1     -18.999  -4.785  -6.972  0.00  0.00    -0.646 OA
ENDBRANCH   1  23
BRANCH   1  26
HETATM   26  C           1     -21.580  -6.811  -5.519  0.00  0.00     0.066 C 
BRANCH  26  27
HETATM   27  C           1     -22.103  -6.345  -4.166  0.00  0.00     0.273 C 
BRANCH  27  28
HETATM   28  N           1     -21.080  -6.523  -3.171  0.00  0.00     0.098 N 
HETATM   29  H           1     -21.127  -5.761  -2.495  0.00  0.00     0.317 HD
BRANCH  28  30
HETATM   30  C           1     -21.333  -7.772  -2.504  0.00  0.00     0.324 C 
BRANCH  30  31
HETATM   31  C           1     -21.800  -7.502  -1.095  0.00  0.00     0.207 C 
HETATM   32  O           1     -22.692  -6.654  -0.883  0.00  0.00    -0.646 OA
HETATM   33  O           1     -21.294  -8.128  -0.138  0.00  0.00    -0.646 OA
ENDBRANCH  30  31
BRANCH  30  34
HETATM   34  C           1     -20.052  -8.595  -2.466  0.00  0.00     0.087 C 
BRANCH  34  35
HETATM   35  C           1     -19.883  -9.316  -3.767  0.00  0.00    -0.028 A 
HETATM   36  C           1     -20.745 -10.321  -4.288  0.00  0.00    -0.002 A 
HETATM   37  C           1     -21.928 -10.929  -3.829  0.00  0.00     0.014 A 
HETATM   38  C           1     -20.217 -10.718  -5.516  0.00  0.00     0.042 A 
HETATM   39  C           1     -22.541 -11.914  -4.614  0.00  0.00     0.001 A 
HETATM   40  C           1     -21.991 -12.292  -5.837  0.00  0.00     0.002 A 
HETATM   41  C           1     -20.817 -11.702  -6.313  0.00  0.00     0.030 A 
HETATM   42  N           1     -19.076  -9.978  -5.725  0.00  0.00    -0.365 N 
HETATM   43  H           1     -18.455 -10.055  -6.569  0.00  0.00     0.165 HD
HETATM   44  C           1     -18.864  -9.126  -4.673  0.00  0.00     0.096 A 
ENDBRANCH  34  35
ENDBRANCH  30  34
ENDBRANCH  28  30
ENDBRANCH  27  28
ENDBRANCH  26  27
ENDBRANCH   1  26
TORSDOF 15
ENDMDL
MODEL 8
REMARK VINA RESULT:      -7.2      2.893      9.095
REMARK  15 active torsions:
REMARK  status: ('A' for Active; 'I' for Inactive)
REMARK    1  A    between atoms: C_8  and  N_9 
REMARK    2  A    between atoms: C_8  and  C_36 
REMARK    3  A    between atoms: N_9  and  C_28 
REMARK    4  A    between atoms: N_14  and  C_15 
REMARK       I    between atoms: N_14  and  C_40 
REMARK    5  A    between atoms: C_15  and  C_16 
REMARK    6  A    between atoms: C_16  and  C_18 
REMARK    7  A    between atoms: C_18  and  C_19 
REMARK    8  A    between atoms: C_19  and  C_20 
REMARK    9  A    between atoms: C_19  and  N_26 
REMARK       I    between atoms: C_20  and  N_21 
REMARK   10  A    between atoms: N_21  and  C_35 
REMARK   11  A    between atoms: C_24  and  C_35 
REMARK       I    between atoms: N_25  and  C_40 
REMARK   12  A    between atoms: C_28  and  C_34 
REMARK   13  A    between atoms: C_28  and  C_29 
REMARK   14  A    between atoms: C_29  and  C_30 
REMARK   15  A    between atoms: C_35  and  C_36 
ROOT
HETATM    1  C           1     -21.283  -5.103  -6.417  0.00  0.00     0.187 C 
ENDROOT
BRANCH   1   2
HETATM    2  N           1     -22.376  -5.257  -7.358  0.00  0.00    -0.345 N 
HETATM    3  H           1     -22.897  -6.124  -7.390  0.00  0.00     0.163 HD
HETATM    4  C           1     -22.700  -4.231  -8.203  0.00  0.00     0.249 C 
HETATM    5  O           1     -22.077  -3.197  -8.165  0.00  0.00    -0.271 OA
BRANCH   4   6
HETATM    6  C           1     -23.837  -4.391  -9.183  0.00  0.00     0.274 C 
BRANCH   6   7
HETATM    7  C           1     -23.281  -4.470 -10.598  0.00  0.00     0.044 C 
BRANCH   7   8
HETATM    8  C           1     -23.893  -3.363 -11.447  0.00  0.00     0.023 C 
BRANCH   8   9
HETATM    9  C           1     -22.783  -2.507 -12.044  0.00  0.00     0.138 C 
BRANCH   9  10
HETATM   10  N           1     -22.347  -3.089 -13.322  0.00  0.00    -0.227 N 
HETATM   11  H           1     -21.649  -3.873 -13.330  0.00  0.00     0.177 HD
HETATM   12  C           1     -22.814  -2.646 -14.412  0.00  0.00     0.665 C 
HETATM   13  N           1     -22.439  -3.148 -15.512  0.00  0.00    -0.235 N 
HETATM   14  N           1     -23.679  -1.675 -14.402  0.00  0.00    -0.235 N 
HETATM   15  H           1     -21.741  -3.931 -15.521  0.00  0.00     0.174 HD
HETATM   16  H           1     -22.826  -2.779 -16.416  0.00  0.00     0.174 HD
HETATM   17  H           1     -23.988  -1.260 -13.493  0.00  0.00     0.174 HD
HETATM   18  H           1     -24.064  -1.309 -15.301  0.00  0.00     0.174 HD
ENDBRANCH   9  10
ENDBRANCH   8   9
ENDBRANCH   7   8
ENDBRANCH   6   7
BRANCH   6  19
HETATM   19  N           1     -24.759  -3.213  -9.074  0.00  0.00    -0.067 N 
HETATM   20  H           1     -24.774  -2.696  -9.982  0.00  0.00     0.275 HD
HETATM   21  H           1     -25.724  -3.547  -8.848  0.00  0.00     0.275 HD
HETATM   22  H           1     -24.424  -2.577  -8.316  0.00  0.00     0.275 HD
ENDBRANCH   6  19
ENDBRANCH   4   6
ENDBRANCH   1   2
BRANCH   1  23
HETATM   23  C           1     -19.970  -5.301  -7.135  0.00  0.00     0.196 C 
HETATM   24  O           1     -19.044  -4.475  -6.983  0.00  0.00    -0.646 OA
HETATM   25  O           1     -19.809  -6.290  -7.882  0.00  0.00    -0.646 OA
ENDBRANCH   1  23
BRANCH   1  26
HETATM   26  C           1     -21.417  -6.140  -5.309  0.00  0.00     0.066 C 
BRANCH  26  27
HETATM   27  C           1     -20.128  -6.944  -5.205  0.00  0.00     0.273 C 
BRANCH  27  28
HETATM   28  N           1     -20.403  -8.328  -5.485  0.00  0.00     0.098 N 
HETATM   29  H           1     -20.141  -8.539  -6.448  0.00  0.00     0.317 HD
BRANCH  28  30
HETATM   30  C           1     -19.608  -9.121  -4.587  0.00  0.00     0.324 C 
BRANCH  30  31
HETATM   31  C           1     -18.511  -9.808  -5.362  0.00  0.00     0.207 C 
HETATM   32  O           1     -18.156  -9.361  -6.473  0.00  0.00    -0.646 OA
HETATM   33  O           1     -17.956 -10.825  -4.891  0.00  0.00    -0.646 OA
ENDBRANCH  30  31
BRANCH  30  34
HETATM   34  C           1     -20.491 -10.168  -3.919  0.00  0.00     0.087 C 
BRANCH  34  35
HETATM   35  C           1     -21.019  -9.626  -2.628  0.00  0.00    -0.028 A 
HETATM   36  C           1     -22.128 -10.135  -1.896  0.00  0.00    -0.002 A 
HETATM   37  C           1     -23.023 -11.203  -2.091  0.00  0.00     0.014 A 
HETATM   38  C           1     -22.272  -9.336  -0.761  0.00  0.00     0.042 A 
HETATM   39  C           1     -24.031 -11.434  -1.147  0.00  0.00     0.001 A 
HETATM   40  C           1     -24.152 -10.619  -0.023  0.00  0.00     0.002 A 
HETATM   41  C           1     -23.274  -9.552   0.193  0.00  0.00     0.030 A 
HETATM   42  N           1     -21.283  -8.379  -0.812  0.00  0.00    -0.365 N 
HETATM   43  H           1     -21.136  -7.629  -0.092  0.00  0.00     0.165 HD
HETATM   44  C           1     -20.520  -8.545  -1.937  0.00  0.00     0.096 A 
ENDBRANCH  34  35
ENDBRANCH  30  34
ENDBRANCH  28  30
ENDBRANCH  27  28
ENDBRANCH  26  27
ENDBRANCH   1  26
TORSDOF 15
ENDMDL
MODEL 9
REMARK VINA RESULT:      -7.2      1.461      2.660
REMARK  15 active torsions:
REMARK  status: ('A' for Active; 'I' for Inactive)
REMARK    1  A    between atoms: C_8  and  N_9 
REMARK    2  A    between atoms: C_8  and  C_36 
REMARK    3  A    between atoms: N_9  and  C_28 
REMARK    4  A    between atoms: N_14  and  C_15 
REMARK       I    between atoms: N_14  and  C_40 
REMARK    5  A    between atoms: C_15  and  C_16 
REMARK    6  A    between atoms: C_16  and  C_18 
REMARK    7  A    between atoms: C_18  and  C_19 
REMARK    8  A    between atoms: C_19  and  C_20 
REMARK    9  A    between atoms: C_19  and  N_26 
REMARK       I    between atoms: C_20  and  N_21 
REMARK   10  A    between atoms: N_21  and  C_35 
REMARK   11  A    between atoms: C_24  and  C_35 
REMARK       I    between atoms: N_25  and  C_40 
REMARK   12  A    between atoms: C_28  and  C_34 
REMARK   13  A    between atoms: C_28  and  C_29 
REMARK   14  A    between atoms: C_29  and  C_30 
REMARK   15  A    between atoms: C_35  and  C_36 
ROOT
HETATM    1  C           1     -20.704  -8.537  -2.096  0.00  0.00     0.187 C 
ENDROOT
BRANCH   1   2
HETATM    2  N           1     -20.269  -9.039  -3.386  0.00  0.00    -0.345 N 
HETATM    3  H           1     -20.920  -9.082  -4.158  0.00  0.00     0.163 HD
HETATM    4  C           1     -18.976  -9.457  -3.556  0.00  0.00     0.249 C 
HETATM    5  O           1     -18.198  -9.407  -2.634  0.00  0.00    -0.271 OA
BRANCH   4   6
HETATM    6  C           1     -18.524  -9.980  -4.897  0.00  0.00     0.274 C 
BRANCH   6   7
HETATM    7  C           1     -18.980 -11.424  -5.060  0.00  0.00     0.044 C 
BRANCH   7   8
HETATM    8  C           1     -19.607 -11.606  -6.437  0.00  0.00     0.023 C 
BRANCH   8   9
HETATM    9  C           1     -21.110 -11.804  -6.289  0.00  0.00     0.138 C 
BRANCH   9  10
HETATM   10  N           1     -21.436 -12.056  -4.878  0.00  0.00    -0.227 N 
HETATM   11  H           1     -20.964 -11.500  -4.123  0.00  0.00     0.177 HD
HETATM   12  C           1     -22.286 -12.944  -4.572  0.00  0.00     0.665 C 
HETATM   13  N           1     -22.567 -13.161  -3.358  0.00  0.00    -0.235 N 
HETATM   14  N           1     -22.871 -13.633  -5.508  0.00  0.00    -0.235 N 
HETATM   15  H           1     -22.095 -12.605  -2.602  0.00  0.00     0.174 HD
HETATM   16  H           1     -23.271 -13.898  -3.105  0.00  0.00     0.174 HD
HETATM   17  H           1     -22.639 -13.453  -6.511  0.00  0.00     0.174 HD
HETATM   18  H           1     -23.572 -14.365  -5.257  0.00  0.00     0.174 HD
ENDBRANCH   9  10
ENDBRANCH   8   9
ENDBRANCH   7   8
ENDBRANCH   6   7
BRANCH   6  19
HETATM   19  N           1     -17.026  -9.918  -4.977  0.00  0.00    -0.067 N 
HETATM   20  H           1     -16.716 -10.198  -5.934  0.00  0.00     0.275 HD
HETATM   21  H           1     -16.708  -8.942  -4.779  0.00  0.00     0.275 HD
HETATM   22  H           1     -16.613 -10.569  -4.272  0.00  0.00     0.275 HD
ENDBRANCH   6  19
ENDBRANCH   4   6
ENDBRANCH   1   2
BRANCH   1  23
HETATM   23  C           1     -21.921  -9.305  -1.644  0.00  0.00     0.196 C 
HETATM   24  O           1     -22.540  -8.948  -0.617  0.00  0.00    -0.646 OA
HETATM   25  O           1     -22.312 -10.299  -2.294  0.00  0.00    -0.646 OA
ENDBRANCH   1  23
BRANCH   1  26
HETATM   26  C           1     -21.051  -7.060  -2.219  0.00  0.00     0.066 C 
BRANCH  26  27
HETATM   27  C           1     -21.804  -6.819  -3.521  0.00  0.00     0.273 C 
BRANCH  27  28
HETATM   28  N           1     -21.198  -5.723  -4.228  0.00  0.00     0.098 N 
HETATM   29  H           1     -20.192  -5.729  -4.068  0.00  0.00     0.317 HD
BRANCH  28  30
HETATM   30  C           1     -21.462  -5.910  -5.630  0.00  0.00     0.324 C 
BRANCH  30  31
HETATM   31  C           1     -20.728  -7.134  -6.119  0.00  0.00     0.207 C 
HETATM   32  O           1     -19.532  -7.046  -6.472  0.00  0.00    -0.646 OA
HETATM   33  O           1     -21.316  -8.237  -6.172  0.00  0.00    -0.646 OA
ENDBRANCH  30  31
BRANCH  30  34
HETATM   34  C           1     -20.985  -4.688  -6.403  0.00  0.00     0.087 C 
BRANCH  34  35
HETATM   35  C           1     -21.959  -4.375  -7.495  0.00  0.00    -0.028 A 
HETATM   36  C           1     -21.641  -4.145  -8.862  0.00  0.00    -0.002 A 
HETATM   37  C           1     -20.443  -4.130  -9.600  0.00  0.00     0.014 A 
HETATM   38  C           1     -22.842  -3.890  -9.525  0.00  0.00     0.042 A 
HETATM   39  C           1     -20.487  -3.861 -10.974  0.00  0.00     0.001 A 
HETATM   40  C           1     -21.701  -3.609 -11.610  0.00  0.00     0.002 A 
HETATM   41  C           1     -22.904  -3.619 -10.898  0.00  0.00     0.030 A 
HETATM   42  N           1     -23.846  -3.964  -8.587  0.00  0.00    -0.365 N 
HETATM   43  H           1     -24.867  -3.817  -8.786  0.00  0.00     0.165 HD
HETATM   44  C           1     -23.324  -4.257  -7.355  0.00  0.00     0.096 A 
ENDBRANCH  34  35
ENDBRANCH  30  34
ENDBRANCH  28  30
ENDBRANCH  27  28
ENDBRANCH  26  27
ENDBRANCH   1  26
TORSDOF 15
ENDMDL
