MODEL 1
REMARK VINA RESULT:      -6.1      0.000      0.000
REMARK  10 active torsions:
REMARK  status: ('A' for Active; 'I' for Inactive)
REMARK    1  A    between atoms: C_1  and  N_12 
REMARK    2  A    between atoms: C_1  and  C_19 
REMARK    3  A    between atoms: N_4  and  C_9 
REMARK       I    between atoms: N_4  and  C_24 
REMARK    4  A    between atoms: C_7  and  C_19 
REMARK    5  A    between atoms: C_7  and  C_9 
REMARK    6  A    between atoms: C_9  and  C_13 
REMARK    7  A    between atoms: O_10  and  C_20 
REMARK    8  A    between atoms: C_20  and  C_23 
REMARK    9  A    between atoms: N_22  and  C_23 
REMARK   10  A    between atoms: C_23  and  C_24 
ROOT
HETATM    1  N           1     -34.821  -1.683 -12.866  0.00  0.00    -0.345 N 
HETATM    2  H           1     -35.268  -1.995 -13.719  0.00  0.00     0.163 HD
HETATM    3  O           1     -33.554  -2.189 -11.099  0.00  0.00    -0.271 OA
HETATM    4  C           1     -34.086  -2.562 -12.117  0.00  0.00     0.251 C 
ENDROOT
BRANCH   1   5
HETATM    5  C           1     -34.962  -0.305 -12.436  0.00  0.00     0.185 C 
BRANCH   5   6
HETATM    6  C           1     -34.957   0.609 -13.653  0.00  0.00     0.038 C 
BRANCH   6   7
HETATM    7  C           1     -35.385  -0.178 -14.884  0.00  0.00     0.030 C 
BRANCH   7   8
HETATM    8  C           1     -36.661   0.424 -15.456  0.00  0.00     0.230 C 
BRANCH   8   9
HETATM    9  N           1     -36.365   1.786 -16.011  0.00  0.00    -0.079 N 
HETATM   10  H           1     -37.150   2.436 -15.778  0.00  0.00     0.274 HD
HETATM   11  H           1     -35.479   2.148 -15.594  0.00  0.00     0.274 HD
HETATM   12  H           1     -36.263   1.724 -17.050  0.00  0.00     0.274 HD
ENDBRANCH   8   9
ENDBRANCH   7   8
ENDBRANCH   6   7
ENDBRANCH   5   6
BRANCH   5  13
HETATM   13  C           1     -36.262  -0.142 -11.688  0.00  0.00     0.196 C 
HETATM   14  O           1     -37.300  -0.698 -12.110  0.00  0.00    -0.646 OA
HETATM   15  O           1     -36.302   0.548 -10.647  0.00  0.00    -0.646 OA
ENDBRANCH   5  13
ENDBRANCH   1   5
BRANCH   4  16
HETATM   16  C           1     -33.941  -3.996 -12.565  0.00  0.00     0.302 C 
BRANCH  16  17
HETATM   17  C           1     -34.898  -4.876 -11.771  0.00  0.00     0.153 C 
HETATM   18  C           1     -34.108  -5.721 -10.781  0.00  0.00     0.042 C 
BRANCH  17  19
HETATM   19  O           1     -35.807  -4.068 -11.073  0.00  0.00    -0.393 OA
HETATM   20  H           1     -36.205  -3.495 -11.705  0.00  0.00     0.210 HD
ENDBRANCH  17  19
ENDBRANCH  16  17
BRANCH  16  21
HETATM   21  N           1     -32.531  -4.452 -12.327  0.00  0.00    -0.064 N 
HETATM   22  H           1     -31.983  -3.677 -11.888  0.00  0.00     0.275 HD
HETATM   23  H           1     -32.537  -5.279 -11.687  0.00  0.00     0.275 HD
HETATM   24  H           1     -32.093  -4.718 -13.236  0.00  0.00     0.275 HD
ENDBRANCH  16  21
ENDBRANCH   4  16
TORSDOF 10
ENDMDL
MODEL 2
REMARK VINA RESULT:      -5.8     11.895     13.630
REMARK  10 active torsions:
REMARK  status: ('A' for Active; 'I' for Inactive)
REMARK    1  A    between atoms: C_1  and  N_12 
REMARK    2  A    between atoms: C_1  and  C_19 
REMARK    3  A    between atoms: N_4  and  C_9 
REMARK       I    between atoms: N_4  and  C_24 
REMARK    4  A    between atoms: C_7  and  C_19 
REMARK    5  A    between atoms: C_7  and  C_9 
REMARK    6  A    between atoms: C_9  and  C_13 
REMARK    7  A    between atoms: O_10  and  C_20 
REMARK    8  A    between atoms: C_20  and  C_23 
REMARK    9  A    between atoms: N_22  and  C_23 
REMARK   10  A    between atoms: C_23  and  C_24 
ROOT
HETATM    1  N           1     -22.040  -4.729  -8.991  0.00  0.00    -0.345 N 
HETATM    2  H           1     -22.021  -5.692  -9.302  0.00  0.00     0.163 HD
HETATM    3  O           1     -21.495  -3.237  -7.422  0.00  0.00    -0.271 OA
HETATM    4  C           1     -21.472  -4.386  -7.794  0.00  0.00     0.251 C 
ENDROOT
BRANCH   1   5
HETATM    5  C           1     -22.668  -3.714  -9.813  0.00  0.00     0.185 C 
BRANCH   5   6
HETATM    6  C           1     -22.224  -3.885 -11.259  0.00  0.00     0.038 C 
BRANCH   6   7
HETATM    7  C           1     -22.551  -2.623 -12.045  0.00  0.00     0.030 C 
BRANCH   7   8
HETATM    8  C           1     -23.402  -2.983 -13.255  0.00  0.00     0.230 C 
BRANCH   8   9
HETATM    9  N           1     -22.539  -3.023 -14.481  0.00  0.00    -0.079 N 
HETATM   10  H           1     -23.133  -3.205 -15.321  0.00  0.00     0.274 HD
HETATM   11  H           1     -22.051  -2.107 -14.593  0.00  0.00     0.274 HD
HETATM   12  H           1     -21.832  -3.787 -14.383  0.00  0.00     0.274 HD
ENDBRANCH   8   9
ENDBRANCH   7   8
ENDBRANCH   6   7
ENDBRANCH   5   6
BRANCH   5  13
HETATM   13  C           1     -24.168  -3.853  -9.726  0.00  0.00     0.196 C 
HETATM   14  O           1     -24.706  -4.963  -9.934  0.00  0.00    -0.646 OA
HETATM   15  O           1     -24.873  -2.860  -9.444  0.00  0.00    -0.646 OA
ENDBRANCH   5  13
ENDBRANCH   1   5
BRANCH   4  16
HETATM   16  C           1     -20.819  -5.444  -6.938  0.00  0.00     0.302 C 
BRANCH  16  17
HETATM   17  C           1     -21.839  -6.004  -5.954  0.00  0.00     0.153 C 
HETATM   18  C           1     -21.272  -5.933  -4.542  0.00  0.00     0.042 C 
BRANCH  17  19
HETATM   19  O           1     -23.018  -5.248  -6.022  0.00  0.00    -0.393 OA
HETATM   20  H           1     -23.704  -5.836  -6.287  0.00  0.00     0.210 HD
ENDBRANCH  17  19
ENDBRANCH  16  17
BRANCH  16  21
HETATM   21  N           1     -19.676  -4.836  -6.179  0.00  0.00    -0.064 N 
HETATM   22  H           1     -19.314  -4.005  -6.701  0.00  0.00     0.275 HD
HETATM   23  H           1     -20.008  -4.536  -5.234  0.00  0.00     0.275 HD
HETATM   24  H           1     -18.913  -5.541  -6.074  0.00  0.00     0.275 HD
ENDBRANCH  16  21
ENDBRANCH   4  16
TORSDOF 10
ENDMDL
MODEL 3
REMARK VINA RESULT:      -5.7      2.370      6.248
REMARK  10 active torsions:
REMARK  status: ('A' for Active; 'I' for Inactive)
REMARK    1  A    between atoms: C_1  and  N_12 
REMARK    2  A    between atoms: C_1  and  C_19 
REMARK    3  A    between atoms: N_4  and  C_9 
REMARK       I    between atoms: N_4  and  C_24 
REMARK    4  A    between atoms: C_7  and  C_19 
REMARK    5  A    between atoms: C_7  and  C_9 
REMARK    6  A    between atoms: C_9  and  C_13 
REMARK    7  A    between atoms: O_10  and  C_20 
REMARK    8  A    between atoms: C_20  and  C_23 
REMARK    9  A    between atoms: N_22  and  C_23 
REMARK   10  A    between atoms: C_23  and  C_24 
ROOT
HETATM    1  N           1     -35.099  -3.469 -11.707  0.00  0.00    -0.345 N 
HETATM    2  H           1     -35.948  -3.775 -12.164  0.00  0.00     0.163 HD
HETATM    3  O           1     -33.920  -1.785 -10.835  0.00  0.00    -0.271 OA
HETATM    4  C           1     -34.934  -2.150 -11.381  0.00  0.00     0.251 C 
ENDROOT
BRANCH   1   5
HETATM    5  C           1     -34.056  -4.428 -11.399  0.00  0.00     0.185 C 
BRANCH   5   6
HETATM    6  C           1     -34.648  -5.831 -11.373  0.00  0.00     0.038 C 
BRANCH   6   7
HETATM    7  C           1     -34.666  -6.349  -9.941  0.00  0.00     0.030 C 
BRANCH   7   8
HETATM    8  C           1     -34.779  -7.867  -9.952  0.00  0.00     0.230 C 
BRANCH   8   9
HETATM    9  N           1     -33.482  -8.462 -10.412  0.00  0.00    -0.079 N 
HETATM   10  H           1     -32.693  -7.830 -10.145  0.00  0.00     0.274 HD
HETATM   11  H           1     -33.347  -9.395  -9.962  0.00  0.00     0.274 HD
HETATM   12  H           1     -33.500  -8.575 -11.451  0.00  0.00     0.274 HD
ENDBRANCH   8   9
ENDBRANCH   7   8
ENDBRANCH   6   7
ENDBRANCH   5   6
BRANCH   5  13
HETATM   13  C           1     -32.978  -4.355 -12.452  0.00  0.00     0.196 C 
HETATM   14  O           1     -31.809  -4.703 -12.175  0.00  0.00    -0.646 OA
HETATM   15  O           1     -33.254  -3.950 -13.602  0.00  0.00    -0.646 OA
ENDBRANCH   5  13
ENDBRANCH   1   5
BRANCH   4  16
HETATM   16  C           1     -36.019  -1.152 -11.702  0.00  0.00     0.302 C 
BRANCH  16  17
HETATM   17  C           1     -35.868  -0.683 -13.144  0.00  0.00     0.153 C 
HETATM   18  C           1     -35.103   0.633 -13.172  0.00  0.00     0.042 C 
BRANCH  17  19
HETATM   19  O           1     -35.164  -1.648 -13.879  0.00  0.00    -0.393 OA
HETATM   20  H           1     -34.443  -1.927 -13.342  0.00  0.00     0.210 HD
ENDBRANCH  17  19
ENDBRANCH  16  17
BRANCH  16  21
HETATM   21  N           1     -35.903   0.026 -10.781  0.00  0.00    -0.064 N 
HETATM   22  H           1     -36.848   0.268 -10.403  0.00  0.00     0.275 HD
HETATM   23  H           1     -35.264  -0.214  -9.989  0.00  0.00     0.275 HD
HETATM   24  H           1     -35.518   0.842 -11.305  0.00  0.00     0.275 HD
ENDBRANCH  16  21
ENDBRANCH   4  16
TORSDOF 10
ENDMDL
MODEL 4
REMARK VINA RESULT:      -5.6      2.011      5.271
REMARK  10 active torsions:
REMARK  status: ('A' for Active; 'I' for Inactive)
REMARK    1  A    between atoms: C_1  and  N_12 
REMARK    2  A    between atoms: C_1  and  C_19 
REMARK    3  A    between atoms: N_4  and  C_9 
REMARK       I    between atoms: N_4  and  C_24 
REMARK    4  A    between atoms: C_7  and  C_19 
REMARK    5  A    between atoms: C_7  and  C_9 
REMARK    6  A    between atoms: C_9  and  C_13 
REMARK    7  A    between atoms: O_10  and  C_20 
REMARK    8  A    between atoms: C_20  and  C_23 
REMARK    9  A    between atoms: N_22  and  C_23 
REMARK   10  A    between atoms: C_23  and  C_24 
ROOT
HETATM    1  N           1     -35.267  -1.013 -12.337  0.00  0.00    -0.345 N 
HETATM    2  H           1     -35.393  -0.185 -11.769  0.00  0.00     0.163 HD
HETATM    3  O           1     -35.195  -1.914 -14.379  0.00  0.00    -0.271 OA
HETATM    4  C           1     -35.344  -0.926 -13.701  0.00  0.00     0.251 C 
ENDROOT
BRANCH   1   5
HETATM    5  C           1     -35.006  -2.292 -11.706  0.00  0.00     0.185 C 
BRANCH   5   6
HETATM    6  C           1     -33.652  -2.247 -11.010  0.00  0.00     0.038 C 
BRANCH   6   7
HETATM    7  C           1     -32.841  -3.478 -11.393  0.00  0.00     0.030 C 
BRANCH   7   8
HETATM    8  C           1     -33.582  -4.261 -12.468  0.00  0.00     0.230 C 
BRANCH   8   9
HETATM    9  N           1     -34.126  -5.528 -11.879  0.00  0.00    -0.079 N 
HETATM   10  H           1     -33.769  -5.641 -10.903  0.00  0.00     0.274 HD
HETATM   11  H           1     -35.169  -5.486 -11.865  0.00  0.00     0.274 HD
HETATM   12  H           1     -33.816  -6.342 -12.458  0.00  0.00     0.274 HD
ENDBRANCH   8   9
ENDBRANCH   7   8
ENDBRANCH   6   7
ENDBRANCH   5   6
BRANCH   5  13
HETATM   13  C           1     -36.084  -2.583 -10.693  0.00  0.00     0.196 C 
HETATM   14  O           1     -36.605  -1.646 -10.048  0.00  0.00    -0.646 OA
HETATM   15  O           1     -36.459  -3.759 -10.499  0.00  0.00    -0.646 OA
ENDBRANCH   5  13
ENDBRANCH   1   5
BRANCH   4  16
HETATM   16  C           1     -35.617   0.406 -14.358  0.00  0.00     0.302 C 
BRANCH  16  17
HETATM   17  C           1     -36.849   0.291 -15.248  0.00  0.00     0.153 C 
HETATM   18  C           1     -38.075   0.026 -14.385  0.00  0.00     0.042 C 
BRANCH  17  19
HETATM   19  O           1     -37.027   1.487 -15.956  0.00  0.00    -0.393 OA
HETATM   20  H           1     -36.487   2.136 -15.538  0.00  0.00     0.210 HD
ENDBRANCH  17  19
ENDBRANCH  16  17
BRANCH  16  21
HETATM   21  N           1     -34.435   0.802 -15.191  0.00  0.00    -0.064 N 
HETATM   22  H           1     -33.886  -0.050 -15.446  0.00  0.00     0.275 HD
HETATM   23  H           1     -34.768   1.275 -16.063  0.00  0.00     0.275 HD
HETATM   24  H           1     -33.830   1.457 -14.649  0.00  0.00     0.275 HD
ENDBRANCH  16  21
ENDBRANCH   4  16
TORSDOF 10
ENDMDL
MODEL 5
REMARK VINA RESULT:      -5.3     12.396     15.133
REMARK  10 active torsions:
REMARK  status: ('A' for Active; 'I' for Inactive)
REMARK    1  A    between atoms: C_1  and  N_12 
REMARK    2  A    between atoms: C_1  and  C_19 
REMARK    3  A    between atoms: N_4  and  C_9 
REMARK       I    between atoms: N_4  and  C_24 
REMARK    4  A    between atoms: C_7  and  C_19 
REMARK    5  A    between atoms: C_7  and  C_9 
REMARK    6  A    between atoms: C_9  and  C_13 
REMARK    7  A    between atoms: O_10  and  C_20 
REMARK    8  A    between atoms: C_20  and  C_23 
REMARK    9  A    between atoms: N_22  and  C_23 
REMARK   10  A    between atoms: C_23  and  C_24 
ROOT
HETATM    1  N           1     -22.232  -5.265  -8.592  0.00  0.00    -0.345 N 
HETATM    2  H           1     -22.336  -6.214  -8.928  0.00  0.00     0.163 HD
HETATM    3  O           1     -22.954  -3.152  -8.637  0.00  0.00    -0.271 OA
HETATM    4  C           1     -23.078  -4.285  -9.037  0.00  0.00     0.251 C 
ENDROOT
BRANCH   1   5
HETATM    5  C           1     -21.187  -4.942  -7.641  0.00  0.00     0.185 C 
BRANCH   5   6
HETATM    6  C           1     -20.991  -6.113  -6.687  0.00  0.00     0.038 C 
BRANCH   6   7
HETATM    7  C           1     -21.062  -5.615  -5.250  0.00  0.00     0.030 C 
BRANCH   7   8
HETATM    8  C           1     -21.646  -6.705  -4.362  0.00  0.00     0.230 C 
BRANCH   8   9
HETATM    9  N           1     -22.137  -6.098  -3.081  0.00  0.00    -0.079 N 
HETATM   10  H           1     -21.367  -6.104  -2.375  0.00  0.00     0.274 HD
HETATM   11  H           1     -22.441  -5.114  -3.256  0.00  0.00     0.274 HD
HETATM   12  H           1     -22.944  -6.654  -2.719  0.00  0.00     0.274 HD
ENDBRANCH   8   9
ENDBRANCH   7   8
ENDBRANCH   6   7
ENDBRANCH   5   6
BRANCH   5  13
HETATM   13  C           1     -19.899  -4.674  -8.380  0.00  0.00     0.196 C 
HETATM   14  O           1     -19.856  -4.793  -9.624  0.00  0.00    -0.646 OA
HETATM   15  O           1     -18.876  -4.330  -7.750  0.00  0.00    -0.646 OA
ENDBRANCH   5  13
ENDBRANCH   1   5
BRANCH   4  16
HETATM   16  C           1     -24.166  -4.621 -10.028  0.00  0.00     0.302 C 
BRANCH  16  17
HETATM   17  C           1     -23.643  -4.419 -11.445  0.00  0.00     0.153 C 
HETATM   18  C           1     -24.233  -3.142 -12.026  0.00  0.00     0.042 C 
BRANCH  17  19
HETATM   19  O           1     -22.245  -4.318 -11.418  0.00  0.00    -0.393 OA
HETATM   20  H           1     -22.038  -3.492 -11.017  0.00  0.00     0.210 HD
ENDBRANCH  17  19
ENDBRANCH  16  17
BRANCH  16  21
HETATM   21  N           1     -25.344  -3.721  -9.800  0.00  0.00    -0.064 N 
HETATM   22  H           1     -25.882  -3.617 -10.690  0.00  0.00     0.275 HD
HETATM   23  H           1     -25.963  -4.138  -9.067  0.00  0.00     0.275 HD
HETATM   24  H           1     -25.011  -2.783  -9.483  0.00  0.00     0.275 HD
ENDBRANCH  16  21
ENDBRANCH   4  16
TORSDOF 10
ENDMDL
MODEL 6
REMARK VINA RESULT:      -5.3     11.951     14.401
REMARK  10 active torsions:
REMARK  status: ('A' for Active; 'I' for Inactive)
REMARK    1  A    between atoms: C_1  and  N_12 
REMARK    2  A    between atoms: C_1  and  C_19 
REMARK    3  A    between atoms: N_4  and  C_9 
REMARK       I    between atoms: N_4  and  C_24 
REMARK    4  A    between atoms: C_7  and  C_19 
REMARK    5  A    between atoms: C_7  and  C_9 
REMARK    6  A    between atoms: C_9  and  C_13 
REMARK    7  A    between atoms: O_10  and  C_20 
REMARK    8  A    between atoms: C_20  and  C_23 
REMARK    9  A    between atoms: N_22  and  C_23 
REMARK   10  A    between atoms: C_23  and  C_24 
ROOT
HETATM    1  N           1     -21.934  -3.421  -9.456  0.00  0.00    -0.345 N 
HETATM    2  H           1     -21.787  -2.428  -9.324  0.00  0.00     0.163 HD
HETATM    3  O           1     -22.425  -5.091 -10.855  0.00  0.00    -0.271 OA
HETATM    4  C           1     -22.249  -3.906 -10.696  0.00  0.00     0.251 C 
ENDROOT
BRANCH   1   5
HETATM    5  C           1     -21.813  -4.328  -8.332  0.00  0.00     0.185 C 
BRANCH   5   6
HETATM    6  C           1     -20.739  -3.817  -7.381  0.00  0.00     0.038 C 
BRANCH   6   7
HETATM    7  C           1     -19.548  -4.766  -7.402  0.00  0.00     0.030 C 
BRANCH   7   8
HETATM    8  C           1     -19.895  -6.035  -6.637  0.00  0.00     0.230 C 
BRANCH   8   9
HETATM    9  N           1     -20.506  -5.673  -5.316  0.00  0.00    -0.079 N 
HETATM   10  H           1     -19.752  -5.390  -4.649  0.00  0.00     0.274 HD
HETATM   11  H           1     -21.171  -4.878  -5.446  0.00  0.00     0.274 HD
HETATM   12  H           1     -21.018  -6.499  -4.931  0.00  0.00     0.274 HD
ENDBRANCH   8   9
ENDBRANCH   7   8
ENDBRANCH   6   7
ENDBRANCH   5   6
BRANCH   5  13
HETATM   13  C           1     -23.133  -4.408  -7.605  0.00  0.00     0.196 C 
HETATM   14  O           1     -23.171  -4.811  -6.422  0.00  0.00    -0.646 OA
HETATM   15  O           1     -24.187  -4.069  -8.185  0.00  0.00    -0.646 OA
ENDBRANCH   5  13
ENDBRANCH   1   5
BRANCH   4  16
HETATM   16  C           1     -22.376  -2.961 -11.866  0.00  0.00     0.302 C 
BRANCH  16  17
HETATM   17  C           1     -23.849  -2.682 -12.138  0.00  0.00     0.153 C 
HETATM   18  C           1     -24.307  -3.499 -13.338  0.00  0.00     0.042 C 
BRANCH  17  19
HETATM   19  O           1     -24.607  -3.039 -11.014  0.00  0.00    -0.393 OA
HETATM   20  H           1     -25.248  -2.360 -10.890  0.00  0.00     0.210 HD
ENDBRANCH  17  19
ENDBRANCH  16  17
BRANCH  16  21
HETATM   21  N           1     -21.755  -3.585 -13.081  0.00  0.00    -0.064 N 
HETATM   22  H           1     -21.198  -2.866 -13.597  0.00  0.00     0.275 HD
HETATM   23  H           1     -21.126  -4.367 -12.787  0.00  0.00     0.275 HD
HETATM   24  H           1     -22.506  -3.957 -13.704  0.00  0.00     0.275 HD
ENDBRANCH  16  21
ENDBRANCH   4  16
TORSDOF 10
ENDMDL
MODEL 7
REMARK VINA RESULT:      -5.0     15.429     17.513
REMARK  10 active torsions:
REMARK  status: ('A' for Active; 'I' for Inactive)
REMARK    1  A    between atoms: C_1  and  N_12 
REMARK    2  A    between atoms: C_1  and  C_19 
REMARK    3  A    between atoms: N_4  and  C_9 
REMARK       I    between atoms: N_4  and  C_24 
REMARK    4  A    between atoms: C_7  and  C_19 
REMARK    5  A    between atoms: C_7  and  C_9 
REMARK    6  A    between atoms: C_9  and  C_13 
REMARK    7  A    between atoms: O_10  and  C_20 
REMARK    8  A    between atoms: C_20  and  C_23 
REMARK    9  A    between atoms: N_22  and  C_23 
REMARK   10  A    between atoms: C_23  and  C_24 
ROOT
HETATM    1  N           1     -21.669  -6.237  -5.358  0.00  0.00    -0.345 N 
HETATM    2  H           1     -22.427  -6.736  -5.806  0.00  0.00     0.163 HD
HETATM    3  O           1     -20.263  -4.502  -5.394  0.00  0.00    -0.271 OA
HETATM    4  C           1     -21.169  -5.098  -5.928  0.00  0.00     0.251 C 
ENDROOT
BRANCH   1   5
HETATM    5  C           1     -21.112  -6.730  -4.114  0.00  0.00     0.185 C 
BRANCH   5   6
HETATM    6  C           1     -22.241  -7.074  -3.152  0.00  0.00     0.038 C 
BRANCH   6   7
HETATM    7  C           1     -22.113  -6.229  -1.893  0.00  0.00     0.030 C 
BRANCH   7   8
HETATM    8  C           1     -22.236  -7.122  -0.666  0.00  0.00     0.230 C 
BRANCH   8   9
HETATM    9  N           1     -21.073  -8.067  -0.616  0.00  0.00    -0.079 N 
HETATM   10  H           1     -21.171  -8.782  -1.372  0.00  0.00     0.274 HD
HETATM   11  H           1     -20.185  -7.534  -0.755  0.00  0.00     0.274 HD
HETATM   12  H           1     -21.052  -8.545   0.313  0.00  0.00     0.274 HD
ENDBRANCH   8   9
ENDBRANCH   7   8
ENDBRANCH   6   7
ENDBRANCH   5   6
BRANCH   5  13
HETATM   13  C           1     -20.288  -7.965  -4.386  0.00  0.00     0.196 C 
HETATM   14  O           1     -19.801  -8.153  -5.522  0.00  0.00    -0.646 OA
HETATM   15  O           1     -20.091  -8.798  -3.475  0.00  0.00    -0.646 OA
ENDBRANCH   5  13
ENDBRANCH   1   5
BRANCH   4  16
HETATM   16  C           1     -21.749  -4.585  -7.224  0.00  0.00     0.302 C 
BRANCH  16  17
HETATM   17  C           1     -20.982  -5.184  -8.396  0.00  0.00     0.153 C 
HETATM   18  C           1     -20.299  -4.070  -9.177  0.00  0.00     0.042 C 
BRANCH  17  19
HETATM   19  O           1     -20.015  -6.078  -7.916  0.00  0.00    -0.393 OA
HETATM   20  H           1     -19.376  -6.183  -8.599  0.00  0.00     0.210 HD
ENDBRANCH  17  19
ENDBRANCH  16  17
BRANCH  16  21
HETATM   21  N           1     -21.634  -3.090  -7.265  0.00  0.00    -0.064 N 
HETATM   22  H           1     -22.237  -2.714  -8.032  0.00  0.00     0.275 HD
HETATM   23  H           1     -21.947  -2.692  -6.350  0.00  0.00     0.275 HD
HETATM   24  H           1     -20.640  -2.821  -7.440  0.00  0.00     0.275 HD
ENDBRANCH  16  21
ENDBRANCH   4  16
TORSDOF 10
ENDMDL
MODEL 8
REMARK VINA RESULT:      -4.9      2.611      5.248
REMARK  10 active torsions:
REMARK  status: ('A' for Active; 'I' for Inactive)
REMARK    1  A    between atoms: C_1  and  N_12 
REMARK    2  A    between atoms: C_1  and  C_19 
REMARK    3  A    between atoms: N_4  and  C_9 
REMARK       I    between atoms: N_4  and  C_24 
REMARK    4  A    between atoms: C_7  and  C_19 
REMARK    5  A    between atoms: C_7  and  C_9 
REMARK    6  A    between atoms: C_9  and  C_13 
REMARK    7  A    between atoms: O_10  and  C_20 
REMARK    8  A    between atoms: C_20  and  C_23 
REMARK    9  A    between atoms: N_22  and  C_23 
REMARK   10  A    between atoms: C_23  and  C_24 
ROOT
HETATM    1  N           1     -36.426  -0.881 -12.254  0.00  0.00    -0.345 N 
HETATM    2  H           1     -37.258  -1.331 -12.615  0.00  0.00     0.163 HD
HETATM    3  O           1     -34.768   0.578 -12.588  0.00  0.00    -0.271 OA
HETATM    4  C           1     -35.762   0.041 -13.017  0.00  0.00     0.251 C 
ENDROOT
BRANCH   1   5
HETATM    5  C           1     -35.936  -1.215 -10.931  0.00  0.00     0.185 C 
BRANCH   5   6
HETATM    6  C           1     -37.094  -1.200  -9.943  0.00  0.00     0.038 C 
BRANCH   6   7
HETATM    7  C           1     -36.793  -0.216  -8.821  0.00  0.00     0.030 C 
BRANCH   7   8
HETATM    8  C           1     -37.301   1.167  -9.206  0.00  0.00     0.230 C 
BRANCH   8   9
HETATM    9  N           1     -37.159   2.096  -8.037  0.00  0.00    -0.079 N 
HETATM   10  H           1     -37.802   2.910  -8.158  0.00  0.00     0.274 HD
HETATM   11  H           1     -37.402   1.588  -7.157  0.00  0.00     0.274 HD
HETATM   12  H           1     -36.172   2.437  -7.982  0.00  0.00     0.274 HD
ENDBRANCH   8   9
ENDBRANCH   7   8
ENDBRANCH   6   7
ENDBRANCH   5   6
BRANCH   5  13
HETATM   13  C           1     -35.314  -2.589 -10.957  0.00  0.00     0.196 C 
HETATM   14  O           1     -36.040  -3.605 -10.903  0.00  0.00    -0.646 OA
HETATM   15  O           1     -34.072  -2.711 -11.035  0.00  0.00    -0.646 OA
ENDBRANCH   5  13
ENDBRANCH   1   5
BRANCH   4  16
HETATM   16  C           1     -36.272   0.388 -14.395  0.00  0.00     0.302 C 
BRANCH  16  17
HETATM   17  C           1     -36.048  -0.792 -15.332  0.00  0.00     0.153 C 
HETATM   18  C           1     -37.066  -0.742 -16.463  0.00  0.00     0.042 C 
BRANCH  17  19
HETATM   19  O           1     -34.754  -0.725 -15.867  0.00  0.00    -0.393 OA
HETATM   20  H           1     -34.200  -0.359 -15.199  0.00  0.00     0.210 HD
ENDBRANCH  17  19
ENDBRANCH  16  17
BRANCH  16  21
HETATM   21  N           1     -35.531   1.585 -14.914  0.00  0.00    -0.064 N 
HETATM   22  H           1     -36.143   2.114 -15.576  0.00  0.00     0.275 HD
HETATM   23  H           1     -35.268   2.204 -14.114  0.00  0.00     0.275 HD
HETATM   24  H           1     -34.668   1.272 -15.412  0.00  0.00     0.275 HD
ENDBRANCH  16  21
ENDBRANCH   4  16
TORSDOF 10
ENDMDL
MODEL 9
REMARK VINA RESULT:      -4.8     14.899     17.185
REMARK  10 active torsions:
REMARK  status: ('A' for Active; 'I' for Inactive)
REMARK    1  A    between atoms: C_1  and  N_12 
REMARK    2  A    between atoms: C_1  and  C_19 
REMARK    3  A    between atoms: N_4  and  C_9 
REMARK       I    between atoms: N_4  and  C_24 
REMARK    4  A    between atoms: C_7  and  C_19 
REMARK    5  A    between atoms: C_7  and  C_9 
REMARK    6  A    between atoms: C_9  and  C_13 
REMARK    7  A    between atoms: O_10  and  C_20 
REMARK    8  A    between atoms: C_20  and  C_23 
REMARK    9  A    between atoms: N_22  and  C_23 
REMARK   10  A    between atoms: C_23  and  C_24 
ROOT
HETATM    1  N           1     -20.846  -8.120  -5.780  0.00  0.00    -0.345 N 
HETATM    2  H           1     -21.443  -8.507  -6.499  0.00  0.00     0.163 HD
HETATM    3  O           1     -19.344  -8.485  -4.168  0.00  0.00    -0.271 OA
HETATM    4  C           1     -20.056  -8.947  -5.028  0.00  0.00     0.251 C 
ENDROOT
BRANCH   1   5
HETATM    5  C           1     -20.829  -6.690  -5.544  0.00  0.00     0.185 C 
BRANCH   5   6
HETATM    6  C           1     -20.956  -5.955  -6.872  0.00  0.00     0.038 C 
BRANCH   6   7
HETATM    7  C           1     -20.356  -4.562  -6.743  0.00  0.00     0.030 C 
BRANCH   7   8
HETATM    8  C           1     -21.354  -3.530  -7.250  0.00  0.00     0.230 C 
BRANCH   8   9
HETATM    9  N           1     -22.694  -4.177  -7.433  0.00  0.00    -0.079 N 
HETATM   10  H           1     -23.381  -3.753  -6.769  0.00  0.00     0.274 HD
HETATM   11  H           1     -23.022  -4.028  -8.414  0.00  0.00     0.274 HD
HETATM   12  H           1     -22.615  -5.202  -7.243  0.00  0.00     0.274 HD
ENDBRANCH   8   9
ENDBRANCH   7   8
ENDBRANCH   6   7
ENDBRANCH   5   6
BRANCH   5  13
HETATM   13  C           1     -21.982  -6.313  -4.648  0.00  0.00     0.196 C 
HETATM   14  O           1     -21.787  -6.117  -3.428  0.00  0.00    -0.646 OA
HETATM   15  O           1     -23.131  -6.194  -5.124  0.00  0.00    -0.646 OA
ENDBRANCH   5  13
ENDBRANCH   1   5
BRANCH   4  16
HETATM   16  C           1     -20.075 -10.436  -5.272  0.00  0.00     0.302 C 
BRANCH  16  17
HETATM   17  C           1     -18.733 -10.874  -5.846  0.00  0.00     0.153 C 
HETATM   18  C           1     -18.960 -11.955  -6.894  0.00  0.00     0.042 C 
BRANCH  17  19
HETATM   19  O           1     -18.096  -9.775  -6.439  0.00  0.00    -0.393 OA
HETATM   20  H           1     -17.703  -9.279  -5.742  0.00  0.00     0.210 HD
ENDBRANCH  17  19
ENDBRANCH  16  17
BRANCH  16  21
HETATM   21  N           1     -21.166 -10.768  -6.247  0.00  0.00    -0.064 N 
HETATM   22  H           1     -21.834 -11.441  -5.807  0.00  0.00     0.275 HD
HETATM   23  H           1     -21.676  -9.893  -6.508  0.00  0.00     0.275 HD
HETATM   24  H           1     -20.751 -11.199  -7.102  0.00  0.00     0.275 HD
ENDBRANCH  16  21
ENDBRANCH   4  16
TORSDOF 10
ENDMDL
