MODEL 1
REMARK VINA RESULT:      -6.0      0.000      0.000
REMARK  7 active torsions:
REMARK  status: ('A' for Active; 'I' for Inactive)
REMARK    1  A    between atoms: C_2  and  C_4 
REMARK    2  A    between atoms: C_2  and  C_12 
REMARK    3  A    between atoms: C_2  and  N_9 
REMARK    4  A    between atoms: N_5  and  C_16 
REMARK       I    between atoms: N_9  and  C_10 
REMARK    5  A    between atoms: C_10  and  C_16 
REMARK    6  A    between atoms: C_16  and  C_20 
REMARK    7  A    between atoms: O_19  and  C_20 
ROOT
HETATM    1  N           1     -21.983  -4.700  -8.986  0.00  0.00    -0.344 N 
HETATM    2  C           1     -21.471  -4.377  -7.757  0.00  0.00     0.251 C 
HETATM    3  O           1     -21.538  -3.240  -7.356  0.00  0.00    -0.271 OA
HETATM    4  H           1     -21.926  -5.653  -9.322  0.00  0.00     0.163 HD
ENDROOT
BRANCH   2   5
HETATM    5  C           1     -20.823  -5.441  -6.906  0.00  0.00     0.302 C 
BRANCH   5   6
HETATM    6  N           1     -19.687  -4.840  -6.134  0.00  0.00    -0.064 N 
HETATM    7  H           1     -19.275  -5.562  -5.501  0.00  0.00     0.275 HD
HETATM    8  H           1     -18.955  -4.502  -6.799  0.00  0.00     0.275 HD
HETATM    9  H           1     -20.039  -4.038  -5.565  0.00  0.00     0.275 HD
ENDBRANCH   5   6
BRANCH   5  10
HETATM   10  C           1     -21.850  -6.012  -5.937  0.00  0.00     0.153 C 
HETATM   11  C           1     -21.302  -5.941  -4.518  0.00  0.00     0.042 C 
BRANCH  10  12
HETATM   12  O           1     -23.035  -5.266  -6.018  0.00  0.00    -0.393 OA
HETATM   13  H           1     -22.931  -4.665  -6.735  0.00  0.00     0.210 HD
ENDBRANCH  10  12
ENDBRANCH   5  10
ENDBRANCH   2   5
BRANCH   1  14
HETATM   14  C           1     -22.604  -3.678  -9.804  0.00  0.00     0.189 C 
BRANCH  14  15
HETATM   15  C           1     -22.115  -3.811 -11.240  0.00  0.00     0.010 C 
HETATM   16  C           1     -20.593  -3.783 -11.261  0.00  0.00     0.012 C 
HETATM   17  C           1     -22.657  -2.654 -12.070  0.00  0.00     0.012 C 
ENDBRANCH  14  15
BRANCH  14  18
HETATM   18  C           1     -24.104  -3.847  -9.765  0.00  0.00     0.197 C 
HETATM   19  O           1     -24.617  -4.943 -10.078  0.00  0.00    -0.646 OA
HETATM   20  O           1     -24.832  -2.891  -9.419  0.00  0.00    -0.646 OA
ENDBRANCH  14  18
ENDBRANCH   1  14
TORSDOF 7
ENDMDL
MODEL 2
REMARK VINA RESULT:      -4.8      4.588      8.420
REMARK  7 active torsions:
REMARK  status: ('A' for Active; 'I' for Inactive)
REMARK    1  A    between atoms: C_2  and  C_4 
REMARK    2  A    between atoms: C_2  and  C_12 
REMARK    3  A    between atoms: C_2  and  N_9 
REMARK    4  A    between atoms: N_5  and  C_16 
REMARK       I    between atoms: N_9  and  C_10 
REMARK    5  A    between atoms: C_10  and  C_16 
REMARK    6  A    between atoms: C_16  and  C_20 
REMARK    7  A    between atoms: O_19  and  C_20 
ROOT
HETATM    1  N           1     -21.571  -8.326  -2.845  0.00  0.00    -0.344 N 
HETATM    2  C           1     -20.434  -8.242  -3.604  0.00  0.00     0.251 C 
HETATM    3  O           1     -19.431  -8.816  -3.252  0.00  0.00    -0.271 OA
HETATM    4  H           1     -22.411  -7.844  -3.139  0.00  0.00     0.163 HD
ENDROOT
BRANCH   2   5
HETATM    5  C           1     -20.434  -7.433  -4.877  0.00  0.00     0.302 C 
BRANCH   5   6
HETATM    6  N           1     -21.219  -8.157  -5.929  0.00  0.00    -0.064 N 
HETATM    7  H           1     -21.163  -9.186  -5.759  0.00  0.00     0.275 HD
HETATM    8  H           1     -22.218  -7.852  -5.889  0.00  0.00     0.275 HD
HETATM    9  H           1     -20.825  -7.936  -6.871  0.00  0.00     0.275 HD
ENDBRANCH   5   6
BRANCH   5  10
HETATM   10  C           1     -21.069  -6.073  -4.615  0.00  0.00     0.153 C 
HETATM   11  C           1     -20.464  -5.041  -5.557  0.00  0.00     0.042 C 
BRANCH  10  12
HETATM   12  O           1     -22.452  -6.153  -4.835  0.00  0.00    -0.393 OA
HETATM   13  H           1     -22.632  -7.030  -5.127  0.00  0.00     0.210 HD
ENDBRANCH  10  12
ENDBRANCH   5  10
ENDBRANCH   2   5
BRANCH   1  14
HETATM   14  C           1     -21.572  -9.102  -1.621  0.00  0.00     0.189 C 
BRANCH  14  15
HETATM   15  C           1     -22.280  -8.319  -0.524  0.00  0.00     0.010 C 
HETATM   16  C           1     -22.366  -6.852  -0.923  0.00  0.00     0.012 C 
HETATM   17  C           1     -21.497  -8.448   0.777  0.00  0.00     0.012 C 
ENDBRANCH  14  15
BRANCH  14  18
HETATM   18  C           1     -22.293 -10.407  -1.855  0.00  0.00     0.197 C 
HETATM   19  O           1     -23.380 -10.632  -1.281  0.00  0.00    -0.646 OA
HETATM   20  O           1     -21.804 -11.263  -2.624  0.00  0.00    -0.646 OA
ENDBRANCH  14  18
ENDBRANCH   1  14
TORSDOF 7
ENDMDL
MODEL 3
REMARK VINA RESULT:      -4.7      1.774      4.989
REMARK  7 active torsions:
REMARK  status: ('A' for Active; 'I' for Inactive)
REMARK    1  A    between atoms: C_2  and  C_4 
REMARK    2  A    between atoms: C_2  and  C_12 
REMARK    3  A    between atoms: C_2  and  N_9 
REMARK    4  A    between atoms: N_5  and  C_16 
REMARK       I    between atoms: N_9  and  C_10 
REMARK    5  A    between atoms: C_10  and  C_16 
REMARK    6  A    between atoms: C_16  and  C_20 
REMARK    7  A    between atoms: O_19  and  C_20 
ROOT
HETATM    1  N           1     -22.105  -3.806  -8.760  0.00  0.00    -0.344 N 
HETATM    2  C           1     -22.170  -4.049 -10.105  0.00  0.00     0.251 C 
HETATM    3  O           1     -21.904  -5.148 -10.533  0.00  0.00    -0.271 OA
HETATM    4  H           1     -22.328  -2.886  -8.401  0.00  0.00     0.163 HD
ENDROOT
BRANCH   2   5
HETATM    5  C           1     -22.575  -2.948 -11.053  0.00  0.00     0.302 C 
BRANCH   5   6
HETATM    6  N           1     -21.857  -3.123 -12.358  0.00  0.00    -0.064 N 
HETATM    7  H           1     -21.193  -3.927 -12.286  0.00  0.00     0.275 HD
HETATM    8  H           1     -22.552  -3.313 -13.115  0.00  0.00     0.275 HD
HETATM    9  H           1     -21.326  -2.251 -12.583  0.00  0.00     0.275 HD
ENDBRANCH   5   6
BRANCH   5  10
HETATM   10  C           1     -24.078  -3.008 -11.290  0.00  0.00     0.153 C 
HETATM   11  C           1     -24.350  -3.207 -12.776  0.00  0.00     0.042 C 
BRANCH  10  12
HETATM   12  O           1     -24.624  -4.078 -10.567  0.00  0.00    -0.393 OA
HETATM   13  H           1     -23.905  -4.632 -10.314  0.00  0.00     0.210 HD
ENDBRANCH  10  12
ENDBRANCH   5  10
ENDBRANCH   2   5
BRANCH   1  14
HETATM   14  C           1     -21.715  -4.863  -7.848  0.00  0.00     0.189 C 
BRANCH  14  15
HETATM   15  C           1     -20.345  -4.550  -7.263  0.00  0.00     0.010 C 
HETATM   16  C           1     -19.561  -3.688  -8.243  0.00  0.00     0.012 C 
HETATM   17  C           1     -19.591  -5.850  -7.012  0.00  0.00     0.012 C 
ENDBRANCH  14  15
BRANCH  14  18
HETATM   18  C           1     -22.729  -4.963  -6.733  0.00  0.00     0.197 C 
HETATM   19  O           1     -22.459  -5.614  -5.701  0.00  0.00    -0.646 OA
HETATM   20  O           1     -23.837  -4.395  -6.843  0.00  0.00    -0.646 OA
ENDBRANCH  14  18
ENDBRANCH   1  14
TORSDOF 7
ENDMDL
MODEL 4
REMARK VINA RESULT:      -4.7      2.835      6.488
REMARK  7 active torsions:
REMARK  status: ('A' for Active; 'I' for Inactive)
REMARK    1  A    between atoms: C_2  and  C_4 
REMARK    2  A    between atoms: C_2  and  C_12 
REMARK    3  A    between atoms: C_2  and  N_9 
REMARK    4  A    between atoms: N_5  and  C_16 
REMARK       I    between atoms: N_9  and  C_10 
REMARK    5  A    between atoms: C_10  and  C_16 
REMARK    6  A    between atoms: C_16  and  C_20 
REMARK    7  A    between atoms: O_19  and  C_20 
ROOT
HETATM    1  N           1     -21.396  -6.593  -5.493  0.00  0.00    -0.344 N 
HETATM    2  C           1     -21.052  -5.338  -5.920  0.00  0.00     0.251 C 
HETATM    3  O           1     -20.114  -4.766  -5.418  0.00  0.00    -0.271 OA
HETATM    4  H           1     -22.183  -7.072  -5.914  0.00  0.00     0.163 HD
ENDROOT
BRANCH   2   5
HETATM    5  C           1     -21.845  -4.670  -7.016  0.00  0.00     0.302 C 
BRANCH   5   6
HETATM    6  N           1     -21.592  -3.193  -6.986  0.00  0.00    -0.064 N 
HETATM    7  H           1     -21.088  -2.943  -6.106  0.00  0.00     0.275 HD
HETATM    8  H           1     -21.007  -2.923  -7.810  0.00  0.00     0.275 HD
HETATM    9  H           1     -22.503  -2.683  -7.023  0.00  0.00     0.275 HD
ENDBRANCH   5   6
BRANCH   5  10
HETATM   10  C           1     -21.417  -5.231  -8.367  0.00  0.00     0.153 C 
HETATM   11  C           1     -21.314  -4.096  -9.377  0.00  0.00     0.042 C 
BRANCH  10  12
HETATM   12  O           1     -20.169  -5.858  -8.239  0.00  0.00    -0.393 OA
HETATM   13  H           1     -19.799  -5.567  -7.423  0.00  0.00     0.210 HD
ENDBRANCH  10  12
ENDBRANCH   5  10
ENDBRANCH   2   5
BRANCH   1  14
HETATM   14  C           1     -20.636  -7.235  -4.439  0.00  0.00     0.189 C 
BRANCH  14  15
HETATM   15  C           1     -21.548  -7.509  -3.251  0.00  0.00     0.010 C 
HETATM   16  C           1     -21.940  -6.191  -2.598  0.00  0.00     0.012 C 
HETATM   17  C           1     -20.814  -8.380  -2.239  0.00  0.00     0.012 C 
ENDBRANCH  14  15
BRANCH  14  18
HETATM   18  C           1     -20.070  -8.538  -4.952  0.00  0.00     0.197 C 
HETATM   19  O           1     -20.805  -9.340  -5.565  0.00  0.00    -0.646 OA
HETATM   20  O           1     -18.865  -8.812  -4.762  0.00  0.00    -0.646 OA
ENDBRANCH  14  18
ENDBRANCH   1  14
TORSDOF 7
ENDMDL
MODEL 5
REMARK VINA RESULT:      -4.6      5.339      9.290
REMARK  7 active torsions:
REMARK  status: ('A' for Active; 'I' for Inactive)
REMARK    1  A    between atoms: C_2  and  C_4 
REMARK    2  A    between atoms: C_2  and  C_12 
REMARK    3  A    between atoms: C_2  and  N_9 
REMARK    4  A    between atoms: N_5  and  C_16 
REMARK       I    between atoms: N_9  and  C_10 
REMARK    5  A    between atoms: C_10  and  C_16 
REMARK    6  A    between atoms: C_16  and  C_20 
REMARK    7  A    between atoms: O_19  and  C_20 
ROOT
HETATM    1  N           1     -21.598  -9.039  -1.887  0.00  0.00    -0.344 N 
HETATM    2  C           1     -21.603  -7.749  -2.348  0.00  0.00     0.251 C 
HETATM    3  O           1     -22.196  -6.892  -1.737  0.00  0.00    -0.271 OA
HETATM    4  H           1     -21.101  -9.757  -2.399  0.00  0.00     0.163 HD
ENDROOT
BRANCH   2   5
HETATM    5  C           1     -20.869  -7.399  -3.618  0.00  0.00     0.302 C 
BRANCH   5   6
HETATM    6  N           1     -21.090  -8.477  -4.637  0.00  0.00    -0.064 N 
HETATM    7  H           1     -20.173  -8.766  -5.044  0.00  0.00     0.275 HD
HETATM    8  H           1     -21.542  -9.300  -4.179  0.00  0.00     0.275 HD
HETATM    9  H           1     -21.711  -8.116  -5.396  0.00  0.00     0.275 HD
ENDBRANCH   5   6
BRANCH   5  10
HETATM   10  C           1     -21.392  -6.075  -4.159  0.00  0.00     0.153 C 
HETATM   11  C           1     -20.550  -5.647  -5.354  0.00  0.00     0.042 C 
BRANCH  10  12
HETATM   12  O           1     -22.727  -6.227  -4.559  0.00  0.00    -0.393 OA
HETATM   13  H           1     -23.163  -5.412  -4.375  0.00  0.00     0.210 HD
ENDBRANCH  10  12
ENDBRANCH   5  10
ENDBRANCH   2   5
BRANCH   1  14
HETATM   14  C           1     -22.304  -9.376  -0.667  0.00  0.00     0.189 C 
BRANCH  14  15
HETATM   15  C           1     -22.878 -10.782  -0.784  0.00  0.00     0.010 C 
HETATM   16  C           1     -23.117 -11.110  -2.252  0.00  0.00     0.012 C 
HETATM   17  C           1     -24.195 -10.857  -0.025  0.00  0.00     0.012 C 
ENDBRANCH  14  15
BRANCH  14  18
HETATM   18  C           1     -21.347  -9.318   0.499  0.00  0.00     0.197 C 
HETATM   19  O           1     -21.295  -8.293   1.213  0.00  0.00    -0.646 OA
HETATM   20  O           1     -20.608 -10.294   0.750  0.00  0.00    -0.646 OA
ENDBRANCH  14  18
ENDBRANCH   1  14
TORSDOF 7
ENDMDL
MODEL 6
REMARK VINA RESULT:      -4.6      5.645      9.263
REMARK  7 active torsions:
REMARK  status: ('A' for Active; 'I' for Inactive)
REMARK    1  A    between atoms: C_2  and  C_4 
REMARK    2  A    between atoms: C_2  and  C_12 
REMARK    3  A    between atoms: C_2  and  N_9 
REMARK    4  A    between atoms: N_5  and  C_16 
REMARK       I    between atoms: N_9  and  C_10 
REMARK    5  A    between atoms: C_10  and  C_16 
REMARK    6  A    between atoms: C_16  and  C_20 
REMARK    7  A    between atoms: O_19  and  C_20 
ROOT
HETATM    1  N           1     -21.638  -9.082  -2.157  0.00  0.00    -0.344 N 
HETATM    2  C           1     -21.394  -7.895  -2.793  0.00  0.00     0.251 C 
HETATM    3  O           1     -20.826  -7.002  -2.208  0.00  0.00    -0.271 OA
HETATM    4  H           1     -22.114  -9.829  -2.647  0.00  0.00     0.163 HD
ENDROOT
BRANCH   2   5
HETATM    5  C           1     -21.832  -7.700  -4.223  0.00  0.00     0.302 C 
BRANCH   5   6
HETATM    6  N           1     -22.298  -6.288  -4.415  0.00  0.00    -0.064 N 
HETATM    7  H           1     -22.777  -6.202  -5.340  0.00  0.00     0.275 HD
HETATM    8  H           1     -22.967  -6.035  -3.653  0.00  0.00     0.275 HD
HETATM    9  H           1     -21.477  -5.643  -4.387  0.00  0.00     0.275 HD
ENDBRANCH   5   6
BRANCH   5  10
HETATM   10  C           1     -20.661  -7.979  -5.157  0.00  0.00     0.153 C 
HETATM   11  C           1     -20.260  -6.692  -5.865  0.00  0.00     0.042 C 
BRANCH  10  12
HETATM   12  O           1     -19.575  -8.462  -4.414  0.00  0.00    -0.393 OA
HETATM   13  H           1     -19.571  -7.992  -3.597  0.00  0.00     0.210 HD
ENDBRANCH  10  12
ENDBRANCH   5  10
ENDBRANCH   2   5
BRANCH   1  14
HETATM   14  C           1     -21.218  -9.269  -0.782  0.00  0.00     0.189 C 
BRANCH  14  15
HETATM   15  C           1     -22.440  -9.504   0.095  0.00  0.00     0.010 C 
HETATM   16  C           1     -23.427 -10.400  -0.641  0.00  0.00     0.012 C 
HETATM   17  C           1     -23.102  -8.169   0.410  0.00  0.00     0.012 C 
ENDBRANCH  14  15
BRANCH  14  18
HETATM   18  C           1     -20.299 -10.464  -0.697  0.00  0.00     0.197 C 
HETATM   19  O           1     -20.075 -11.002   0.408  0.00  0.00    -0.646 OA
HETATM   20  O           1     -19.762 -10.915  -1.732  0.00  0.00    -0.646 OA
ENDBRANCH  14  18
ENDBRANCH   1  14
TORSDOF 7
ENDMDL
MODEL 7
REMARK VINA RESULT:      -4.6      5.228      7.182
REMARK  7 active torsions:
REMARK  status: ('A' for Active; 'I' for Inactive)
REMARK    1  A    between atoms: C_2  and  C_4 
REMARK    2  A    between atoms: C_2  and  C_12 
REMARK    3  A    between atoms: C_2  and  N_9 
REMARK    4  A    between atoms: N_5  and  C_16 
REMARK       I    between atoms: N_9  and  C_10 
REMARK    5  A    between atoms: C_10  and  C_16 
REMARK    6  A    between atoms: C_16  and  C_20 
REMARK    7  A    between atoms: O_19  and  C_20 
ROOT
HETATM    1  N           1     -21.543  -8.134  -3.225  0.00  0.00    -0.344 N 
HETATM    2  C           1     -21.119  -8.385  -1.947  0.00  0.00     0.251 C 
HETATM    3  O           1     -20.018  -8.032  -1.597  0.00  0.00    -0.271 OA
HETATM    4  H           1     -22.466  -8.430  -3.518  0.00  0.00     0.163 HD
ENDROOT
BRANCH   2   5
HETATM    5  C           1     -22.025  -9.103  -0.978  0.00  0.00     0.302 C 
BRANCH   5   6
HETATM    6  N           1     -21.207 -10.005  -0.104  0.00  0.00    -0.064 N 
HETATM    7  H           1     -20.967  -9.508   0.783  0.00  0.00     0.275 HD
HETATM    8  H           1     -21.757 -10.866   0.118  0.00  0.00     0.275 HD
HETATM    9  H           1     -20.329 -10.272  -0.603  0.00  0.00     0.275 HD
ENDBRANCH   5   6
BRANCH   5  10
HETATM   10  C           1     -22.753  -8.082  -0.113  0.00  0.00     0.153 C 
HETATM   11  C           1     -22.067  -7.985   1.243  0.00  0.00     0.042 C 
BRANCH  10  12
HETATM   12  O           1     -22.726  -6.830  -0.742  0.00  0.00    -0.393 OA
HETATM   13  H           1     -21.820  -6.585  -0.824  0.00  0.00     0.210 HD
ENDBRANCH  10  12
ENDBRANCH   5  10
ENDBRANCH   2   5
BRANCH   1  14
HETATM   14  C           1     -20.673  -7.446  -4.157  0.00  0.00     0.189 C 
BRANCH  14  15
HETATM   15  C           1     -20.268  -8.399  -5.273  0.00  0.00     0.010 C 
HETATM   16  C           1     -21.282  -9.531  -5.364  0.00  0.00     0.012 C 
HETATM   17  C           1     -18.889  -8.974  -4.973  0.00  0.00     0.012 C 
ENDBRANCH  14  15
BRANCH  14  18
HETATM   18  C           1     -21.403  -6.262  -4.745  0.00  0.00     0.197 C 
HETATM   19  O           1     -20.758  -5.304  -5.222  0.00  0.00    -0.646 OA
HETATM   20  O           1     -22.653  -6.242  -4.756  0.00  0.00    -0.646 OA
ENDBRANCH  14  18
ENDBRANCH   1  14
TORSDOF 7
ENDMDL
MODEL 8
REMARK VINA RESULT:      -4.5      5.015      9.102
REMARK  7 active torsions:
REMARK  status: ('A' for Active; 'I' for Inactive)
REMARK    1  A    between atoms: C_2  and  C_4 
REMARK    2  A    between atoms: C_2  and  C_12 
REMARK    3  A    between atoms: C_2  and  N_9 
REMARK    4  A    between atoms: N_5  and  C_16 
REMARK       I    between atoms: N_9  and  C_10 
REMARK    5  A    between atoms: C_10  and  C_16 
REMARK    6  A    between atoms: C_16  and  C_20 
REMARK    7  A    between atoms: O_19  and  C_20 
ROOT
HETATM    1  N           1     -21.098  -8.341  -1.813  0.00  0.00    -0.344 N 
HETATM    2  C           1     -21.314  -8.533  -3.152  0.00  0.00     0.251 C 
HETATM    3  O           1     -22.085  -9.387  -3.521  0.00  0.00    -0.271 OA
HETATM    4  H           1     -20.452  -7.625  -1.504  0.00  0.00     0.163 HD
ENDROOT
BRANCH   2   5
HETATM    5  C           1     -20.591  -7.680  -4.164  0.00  0.00     0.302 C 
BRANCH   5   6
HETATM    6  N           1     -20.698  -8.313  -5.519  0.00  0.00    -0.064 N 
HETATM    7  H           1     -20.419  -7.621  -6.250  0.00  0.00     0.275 HD
HETATM    8  H           1     -20.066  -9.144  -5.566  0.00  0.00     0.275 HD
HETATM    9  H           1     -21.685  -8.616  -5.684  0.00  0.00     0.275 HD
ENDBRANCH   5   6
BRANCH   5  10
HETATM   10  C           1     -21.218  -6.293  -4.201  0.00  0.00     0.153 C 
HETATM   11  C           1     -21.784  -6.029  -5.590  0.00  0.00     0.042 C 
BRANCH  10  12
HETATM   12  O           1     -22.249  -6.220  -3.254  0.00  0.00    -0.393 OA
HETATM   13  H           1     -22.105  -6.918  -2.638  0.00  0.00     0.210 HD
ENDBRANCH  10  12
ENDBRANCH   5  10
ENDBRANCH   2   5
BRANCH   1  14
HETATM   14  C           1     -21.792  -9.160  -0.840  0.00  0.00     0.189 C 
BRANCH  14  15
HETATM   15  C           1     -20.812  -9.613   0.233  0.00  0.00     0.010 C 
HETATM   16  C           1     -21.120 -11.052   0.625  0.00  0.00     0.012 C 
HETATM   17  C           1     -20.945  -8.713   1.454  0.00  0.00     0.012 C 
ENDBRANCH  14  15
BRANCH  14  18
HETATM   18  C           1     -22.899  -8.354  -0.204  0.00  0.00     0.197 C 
HETATM   19  O           1     -22.932  -7.114  -0.351  0.00  0.00    -0.646 OA
HETATM   20  O           1     -23.782  -8.928   0.470  0.00  0.00    -0.646 OA
ENDBRANCH  14  18
ENDBRANCH   1  14
TORSDOF 7
ENDMDL
MODEL 9
REMARK VINA RESULT:      -4.5      7.581      9.233
REMARK  7 active torsions:
REMARK  status: ('A' for Active; 'I' for Inactive)
REMARK    1  A    between atoms: C_2  and  C_4 
REMARK    2  A    between atoms: C_2  and  C_12 
REMARK    3  A    between atoms: C_2  and  N_9 
REMARK    4  A    between atoms: N_5  and  C_16 
REMARK       I    between atoms: N_9  and  C_10 
REMARK    5  A    between atoms: C_10  and  C_16 
REMARK    6  A    between atoms: C_16  and  C_20 
REMARK    7  A    between atoms: O_19  and  C_20 
ROOT
HETATM    1  N           1     -20.416  -8.930  -1.438  0.00  0.00    -0.344 N 
HETATM    2  C           1     -19.943  -9.864  -2.321  0.00  0.00     0.251 C 
HETATM    3  O           1     -20.673 -10.310  -3.175  0.00  0.00    -0.271 OA
HETATM    4  H           1     -19.805  -8.557  -0.722  0.00  0.00     0.163 HD
ENDROOT
BRANCH   2   5
HETATM    5  C           1     -18.514 -10.336  -2.227  0.00  0.00     0.302 C 
BRANCH   5   6
HETATM    6  N           1     -18.407 -11.722  -2.789  0.00  0.00    -0.064 N 
HETATM    7  H           1     -18.489 -11.683  -3.830  0.00  0.00     0.275 HD
HETATM    8  H           1     -17.483 -12.133  -2.529  0.00  0.00     0.275 HD
HETATM    9  H           1     -19.175 -12.315  -2.401  0.00  0.00     0.275 HD
ENDBRANCH   5   6
BRANCH   5  10
HETATM   10  C           1     -17.615  -9.397  -3.020  0.00  0.00     0.153 C 
HETATM   11  C           1     -16.160  -9.805  -2.829  0.00  0.00     0.042 C 
BRANCH  10  12
HETATM   12  O           1     -17.946  -9.469  -4.380  0.00  0.00    -0.393 OA
HETATM   13  H           1     -17.225  -9.892  -4.816  0.00  0.00     0.210 HD
ENDBRANCH  10  12
ENDBRANCH   5  10
ENDBRANCH   2   5
BRANCH   1  14
HETATM   14  C           1     -21.790  -8.477  -1.527  0.00  0.00     0.189 C 
BRANCH  14  15
HETATM   15  C           1     -22.463  -8.628  -0.170  0.00  0.00     0.010 C 
HETATM   16  C           1     -21.402  -8.664   0.921  0.00  0.00     0.012 C 
HETATM   17  C           1     -23.264  -9.924  -0.143  0.00  0.00     0.012 C 
ENDBRANCH  14  15
BRANCH  14  18
HETATM   18  C           1     -21.813  -7.025  -1.942  0.00  0.00     0.197 C 
HETATM   19  O           1     -21.133  -6.643  -2.918  0.00  0.00    -0.646 OA
HETATM   20  O           1     -22.512  -6.205  -1.308  0.00  0.00    -0.646 OA
ENDBRANCH  14  18
ENDBRANCH   1  14
TORSDOF 7
ENDMDL
