MODEL 1
REMARK VINA RESULT:      -8.1      0.000      0.000
REMARK  9 active torsions:
REMARK  status: ('A' for Active; 'I' for Inactive)
REMARK    1  A    between atoms: C_3  and  Se_16 
REMARK    2  A    between atoms: C_3  and  C_10 
REMARK    3  A    between atoms: C_7  and  C_8 
REMARK    4  A    between atoms: C_8  and  C_9 
REMARK    5  A    between atoms: C_9  and  C_11 
REMARK    6  A    between atoms: C_9  and  N_24 
REMARK    7  A    between atoms: C_10  and  C_20 
REMARK       I    between atoms: C_11  and  N_15 
REMARK    8  A    between atoms: N_15  and  C_20 
REMARK    9  A    between atoms: C_20  and  C_26 
ROOT
HETATM    1  C           1     -21.000  -5.348  -6.598  0.00  0.00     0.278 C 
ENDROOT
BRANCH   1   2
HETATM    2  C           1     -22.095  -5.850  -5.666  0.00  0.00     0.083 C 
BRANCH   2   3
HETATM    3  C           1     -21.555  -6.954  -4.810  0.00  0.00    -0.028 A 
HETATM    4  C           1     -20.857  -8.054  -5.252  0.00  0.00     0.096 A 
HETATM    5  N           1     -20.545  -8.817  -4.158  0.00  0.00    -0.365 N 
HETATM    6  H           1     -20.013  -9.722  -4.188  0.00  0.00     0.165 HD
HETATM    7  C           1     -21.030  -8.229  -3.011  0.00  0.00     0.042 A 
HETATM    8  C           1     -20.951  -8.644  -1.677  0.00  0.00     0.030 A 
HETATM    9  C           1     -21.672  -7.051  -3.397  0.00  0.00    -0.002 A 
HETATM   10  C           1     -21.546  -7.829  -0.710  0.00  0.00     0.002 A 
HETATM   11  C           1     -22.194  -6.648  -1.065  0.00  0.00     0.001 A 
HETATM   12  C           1     -22.264  -6.246  -2.404  0.00  0.00     0.014 A 
ENDBRANCH   2   3
ENDBRANCH   1   2
BRANCH   1  13
HETATM   13  C           1     -21.574  -4.319  -7.542  0.00  0.00     0.249 C 
HETATM   14  N           1     -22.136  -4.714  -8.726  0.00  0.00    -0.345 N 
HETATM   15  H           1     -22.167  -5.696  -8.968  0.00  0.00     0.163 HD
HETATM   16  O           1     -21.537  -3.147  -7.252  0.00  0.00    -0.271 OA
BRANCH  14  17
HETATM   17  C           1     -22.687  -3.726  -9.633  0.00  0.00     0.185 C 
BRANCH  17  18
HETATM   18  C           1     -22.127  -3.950 -11.030  0.00  0.00     0.036 C 
BRANCH  18  19
HETATM   19  C           1     -22.457  -2.752 -11.911  0.00  0.00     0.003 C 
BRANCH  19  20
HETATM   20 Se           1     -23.859  -3.240 -13.174  0.00  0.00     0.000 Se
HETATM   21  C           1     -22.933  -2.518 -14.730  0.00  0.00     0.000 C 
ENDBRANCH  19  20
ENDBRANCH  18  19
ENDBRANCH  17  18
BRANCH  17  22
HETATM   22  C           1     -24.189  -3.858  -9.666  0.00  0.00     0.196 C 
HETATM   23  O           1     -24.910  -2.860  -9.445  0.00  0.00    -0.646 OA
HETATM   24  O           1     -24.715  -4.964  -9.915  0.00  0.00    -0.646 OA
ENDBRANCH  17  22
ENDBRANCH  14  17
ENDBRANCH   1  13
BRANCH   1  25
HETATM   25  N           1     -19.903  -4.724  -5.788  0.00  0.00    -0.066 N 
HETATM   26  H           1     -19.042  -5.313  -5.853  0.00  0.00     0.275 HD
HETATM   27  H           1     -20.203  -4.655  -4.789  0.00  0.00     0.275 HD
HETATM   28  H           1     -19.698  -3.767  -6.157  0.00  0.00     0.275 HD
ENDBRANCH   1  25
TORSDOF 9
ENDMDL
MODEL 2
REMARK VINA RESULT:      -7.4      3.891      8.535
REMARK  9 active torsions:
REMARK  status: ('A' for Active; 'I' for Inactive)
REMARK    1  A    between atoms: C_3  and  Se_16 
REMARK    2  A    between atoms: C_3  and  C_10 
REMARK    3  A    between atoms: C_7  and  C_8 
REMARK    4  A    between atoms: C_8  and  C_9 
REMARK    5  A    between atoms: C_9  and  C_11 
REMARK    6  A    between atoms: C_9  and  N_24 
REMARK    7  A    between atoms: C_10  and  C_20 
REMARK       I    between atoms: C_11  and  N_15 
REMARK    8  A    between atoms: N_15  and  C_20 
REMARK    9  A    between atoms: C_20  and  C_26 
ROOT
HETATM    1  C           1     -20.883  -5.587  -6.094  0.00  0.00     0.278 C 
ENDROOT
BRANCH   1   2
HETATM    2  C           1     -20.709  -5.434  -7.600  0.00  0.00     0.083 C 
BRANCH   2   3
HETATM    3  C           1     -21.915  -4.758  -8.175  0.00  0.00    -0.028 A 
HETATM    4  C           1     -23.081  -4.469  -7.504  0.00  0.00     0.096 A 
HETATM    5  N           1     -23.928  -3.851  -8.384  0.00  0.00    -0.365 N 
HETATM    6  H           1     -24.896  -3.516  -8.152  0.00  0.00     0.165 HD
HETATM    7  C           1     -23.331  -3.734  -9.619  0.00  0.00     0.042 A 
HETATM    8  C           1     -23.813  -3.176 -10.809  0.00  0.00     0.030 A 
HETATM    9  C           1     -22.059  -4.298  -9.513  0.00  0.00    -0.002 A 
HETATM   10  C           1     -22.967  -3.198 -11.922  0.00  0.00     0.002 A 
HETATM   11  C           1     -21.693  -3.756 -11.847  0.00  0.00     0.001 A 
HETATM   12  C           1     -21.225  -4.308 -10.649  0.00  0.00     0.014 A 
ENDBRANCH   2   3
ENDBRANCH   1   2
BRANCH   1  13
HETATM   13  C           1     -20.371  -6.940  -5.663  0.00  0.00     0.249 C 
HETATM   14  N           1     -20.921  -7.566  -4.577  0.00  0.00    -0.345 N 
HETATM   15  H           1     -21.672  -7.122  -4.064  0.00  0.00     0.163 HD
HETATM   16  O           1     -19.476  -7.471  -6.277  0.00  0.00    -0.271 OA
BRANCH  14  17
HETATM   17  C           1     -20.430  -8.866  -4.163  0.00  0.00     0.185 C 
BRANCH  17  18
HETATM   18  C           1     -20.486  -8.970  -2.645  0.00  0.00     0.036 C 
BRANCH  18  19
HETATM   19  C           1     -20.694  -7.585  -2.046  0.00  0.00     0.003 C 
BRANCH  19  20
HETATM   20 Se           1     -22.150  -7.646  -0.753  0.00  0.00     0.000 Se
HETATM   21  C           1     -22.209  -9.593  -0.666  0.00  0.00     0.000 C 
ENDBRANCH  19  20
ENDBRANCH  18  19
ENDBRANCH  17  18
BRANCH  17  22
HETATM   22  C           1     -21.289  -9.946  -4.772  0.00  0.00     0.196 C 
HETATM   23  O           1     -21.095 -10.307  -5.954  0.00  0.00    -0.646 OA
HETATM   24  O           1     -22.195 -10.480  -4.098  0.00  0.00    -0.646 OA
ENDBRANCH  17  22
ENDBRANCH  14  17
ENDBRANCH   1  13
BRANCH   1  25
HETATM   25  N           1     -20.108  -4.514  -5.391  0.00  0.00    -0.066 N 
HETATM   26  H           1     -19.939  -3.718  -6.048  0.00  0.00     0.275 HD
HETATM   27  H           1     -19.192  -4.899  -5.068  0.00  0.00     0.275 HD
HETATM   28  H           1     -20.654  -4.174  -4.566  0.00  0.00     0.275 HD
ENDBRANCH   1  25
TORSDOF 9
ENDMDL
MODEL 3
REMARK VINA RESULT:      -7.3      3.970      8.673
REMARK  9 active torsions:
REMARK  status: ('A' for Active; 'I' for Inactive)
REMARK    1  A    between atoms: C_3  and  Se_16 
REMARK    2  A    between atoms: C_3  and  C_10 
REMARK    3  A    between atoms: C_7  and  C_8 
REMARK    4  A    between atoms: C_8  and  C_9 
REMARK    5  A    between atoms: C_9  and  C_11 
REMARK    6  A    between atoms: C_9  and  N_24 
REMARK    7  A    between atoms: C_10  and  C_20 
REMARK       I    between atoms: C_11  and  N_15 
REMARK    8  A    between atoms: N_15  and  C_20 
REMARK    9  A    between atoms: C_20  and  C_26 
ROOT
HETATM    1  C           1     -21.189  -5.064  -5.846  0.00  0.00     0.278 C 
ENDROOT
BRANCH   1   2
HETATM    2  C           1     -21.171  -5.576  -7.280  0.00  0.00     0.083 C 
BRANCH   2   3
HETATM    3  C           1     -22.144  -4.789  -8.103  0.00  0.00    -0.028 A 
HETATM    4  C           1     -23.400  -4.388  -7.710  0.00  0.00     0.096 A 
HETATM    5  N           1     -23.962  -3.695  -8.749  0.00  0.00    -0.365 N 
HETATM    6  H           1     -24.921  -3.267  -8.738  0.00  0.00     0.165 HD
HETATM    7  C           1     -23.089  -3.639  -9.812  0.00  0.00     0.042 A 
HETATM    8  C           1     -23.231  -3.042 -11.070  0.00  0.00     0.030 A 
HETATM    9  C           1     -21.934  -4.322  -9.429  0.00  0.00    -0.002 A 
HETATM   10  C           1     -22.159  -3.148 -11.961  0.00  0.00     0.002 A 
HETATM   11  C           1     -20.993  -3.824 -11.607  0.00  0.00     0.001 A 
HETATM   12  C           1     -20.867  -4.415 -10.344  0.00  0.00     0.014 A 
ENDBRANCH   2   3
ENDBRANCH   1   2
BRANCH   1  13
HETATM   13  C           1     -21.664  -6.162  -4.925  0.00  0.00     0.249 C 
HETATM   14  N           1     -20.984  -6.428  -3.767  0.00  0.00    -0.345 N 
HETATM   15  H           1     -20.162  -5.887  -3.528  0.00  0.00     0.163 HD
HETATM   16  O           1     -22.645  -6.807  -5.210  0.00  0.00    -0.271 OA
BRANCH  14  17
HETATM   17  C           1     -21.440  -7.482  -2.883  0.00  0.00     0.185 C 
BRANCH  17  18
HETATM   18  C           1     -20.253  -8.335  -2.455  0.00  0.00     0.036 C 
BRANCH  18  19
HETATM   19  C           1     -20.453  -9.765  -2.939  0.00  0.00     0.003 C 
BRANCH  19  20
HETATM   20 Se           1     -20.972 -10.894  -1.437  0.00  0.00     0.000 Se
HETATM   21  C           1     -22.856 -10.965  -1.930  0.00  0.00     0.000 C 
ENDBRANCH  19  20
ENDBRANCH  18  19
ENDBRANCH  17  18
BRANCH  17  22
HETATM   22  C           1     -22.085  -6.872  -1.664  0.00  0.00     0.196 C 
HETATM   23  O           1     -22.322  -7.580  -0.661  0.00  0.00    -0.646 OA
HETATM   24  O           1     -22.386  -5.658  -1.656  0.00  0.00    -0.646 OA
ENDBRANCH  17  22
ENDBRANCH  14  17
ENDBRANCH   1  13
BRANCH   1  25
HETATM   25  N           1     -19.806  -4.644  -5.448  0.00  0.00    -0.066 N 
HETATM   26  H           1     -19.706  -3.611  -5.571  0.00  0.00     0.275 HD
HETATM   27  H           1     -19.106  -5.135  -6.049  0.00  0.00     0.275 HD
HETATM   28  H           1     -19.640  -4.893  -4.446  0.00  0.00     0.275 HD
ENDBRANCH   1  25
TORSDOF 9
ENDMDL
MODEL 4
REMARK VINA RESULT:      -7.3      4.222      8.496
REMARK  9 active torsions:
REMARK  status: ('A' for Active; 'I' for Inactive)
REMARK    1  A    between atoms: C_3  and  Se_16 
REMARK    2  A    between atoms: C_3  and  C_10 
REMARK    3  A    between atoms: C_7  and  C_8 
REMARK    4  A    between atoms: C_8  and  C_9 
REMARK    5  A    between atoms: C_9  and  C_11 
REMARK    6  A    between atoms: C_9  and  N_24 
REMARK    7  A    between atoms: C_10  and  C_20 
REMARK       I    between atoms: C_11  and  N_15 
REMARK    8  A    between atoms: N_15  and  C_20 
REMARK    9  A    between atoms: C_20  and  C_26 
ROOT
HETATM    1  C           1     -20.742  -5.402  -6.096  0.00  0.00     0.278 C 
ENDROOT
BRANCH   1   2
HETATM    2  C           1     -20.525  -4.909  -7.521  0.00  0.00     0.083 C 
BRANCH   2   3
HETATM    3  C           1     -21.835  -4.471  -8.102  0.00  0.00    -0.028 A 
HETATM    4  C           1     -23.043  -4.436  -7.443  0.00  0.00     0.096 A 
HETATM    5  N           1     -23.986  -3.977  -8.324  0.00  0.00    -0.365 N 
HETATM    6  H           1     -25.003  -3.846  -8.101  0.00  0.00     0.165 HD
HETATM    7  C           1     -23.408  -3.713  -9.546  0.00  0.00     0.042 A 
HETATM    8  C           1     -23.977  -3.234 -10.732  0.00  0.00     0.030 A 
HETATM    9  C           1     -22.051  -4.016  -9.431  0.00  0.00    -0.002 A 
HETATM   10  C           1     -23.131  -3.060 -11.831  0.00  0.00     0.002 A 
HETATM   11  C           1     -21.772  -3.355 -11.746  0.00  0.00     0.001 A 
HETATM   12  C           1     -21.218  -3.833 -10.553  0.00  0.00     0.014 A 
ENDBRANCH   2   3
ENDBRANCH   1   2
BRANCH   1  13
HETATM   13  C           1     -20.103  -6.760  -5.931  0.00  0.00     0.249 C 
HETATM   14  N           1     -20.396  -7.526  -4.835  0.00  0.00    -0.345 N 
HETATM   15  H           1     -21.042  -7.183  -4.136  0.00  0.00     0.163 HD
HETATM   16  O           1     -19.332  -7.170  -6.766  0.00  0.00    -0.271 OA
BRANCH  14  17
HETATM   17  C           1     -19.782  -8.830  -4.676  0.00  0.00     0.185 C 
BRANCH  17  18
HETATM   18  C           1     -19.367  -9.022  -3.224  0.00  0.00     0.036 C 
BRANCH  18  19
HETATM   19  C           1     -18.436 -10.223  -3.115  0.00  0.00     0.003 C 
BRANCH  19  20
HETATM   20 Se           1     -16.591  -9.607  -2.996  0.00  0.00     0.000 Se
HETATM   21  C           1     -16.167 -10.005  -4.857  0.00  0.00     0.000 C 
ENDBRANCH  19  20
ENDBRANCH  18  19
ENDBRANCH  17  18
BRANCH  17  22
HETATM   22  C           1     -20.770  -9.902  -5.063  0.00  0.00     0.196 C 
HETATM   23  O           1     -21.771 -10.117  -4.345  0.00  0.00    -0.646 OA
HETATM   24  O           1     -20.589 -10.575  -6.100  0.00  0.00    -0.646 OA
ENDBRANCH  17  22
ENDBRANCH  14  17
ENDBRANCH   1  13
BRANCH   1  25
HETATM   25  N           1     -20.118  -4.437  -5.134  0.00  0.00    -0.066 N 
HETATM   26  H           1     -20.337  -4.730  -4.154  0.00  0.00     0.275 HD
HETATM   27  H           1     -20.499  -3.479  -5.303  0.00  0.00     0.275 HD
HETATM   28  H           1     -19.082  -4.429  -5.270  0.00  0.00     0.275 HD
ENDBRANCH   1  25
TORSDOF 9
ENDMDL
MODEL 5
REMARK VINA RESULT:      -7.2      3.900      8.632
REMARK  9 active torsions:
REMARK  status: ('A' for Active; 'I' for Inactive)
REMARK    1  A    between atoms: C_3  and  Se_16 
REMARK    2  A    between atoms: C_3  and  C_10 
REMARK    3  A    between atoms: C_7  and  C_8 
REMARK    4  A    between atoms: C_8  and  C_9 
REMARK    5  A    between atoms: C_9  and  C_11 
REMARK    6  A    between atoms: C_9  and  N_24 
REMARK    7  A    between atoms: C_10  and  C_20 
REMARK       I    between atoms: C_11  and  N_15 
REMARK    8  A    between atoms: N_15  and  C_20 
REMARK    9  A    between atoms: C_20  and  C_26 
ROOT
HETATM    1  C           1     -22.137  -5.220  -6.812  0.00  0.00     0.278 C 
ENDROOT
BRANCH   1   2
HETATM    2  C           1     -21.510  -3.924  -7.310  0.00  0.00     0.083 C 
BRANCH   2   3
HETATM    3  C           1     -21.335  -3.994  -8.796  0.00  0.00    -0.028 A 
HETATM    4  C           1     -20.165  -4.276  -9.462  0.00  0.00     0.096 A 
HETATM    5  N           1     -20.430  -4.242 -10.805  0.00  0.00    -0.365 N 
HETATM    6  H           1     -19.724  -4.419 -11.562  0.00  0.00     0.165 HD
HETATM    7  C           1     -21.756  -3.941 -11.022  0.00  0.00     0.042 A 
HETATM    8  C           1     -22.469  -3.802 -12.219  0.00  0.00     0.030 A 
HETATM    9  C           1     -22.349  -3.780  -9.769  0.00  0.00    -0.002 A 
HETATM   10  C           1     -23.828  -3.488 -12.128  0.00  0.00     0.002 A 
HETATM   11  C           1     -24.447  -3.321 -10.892  0.00  0.00     0.001 A 
HETATM   12  C           1     -23.720  -3.464  -9.704  0.00  0.00     0.014 A 
ENDBRANCH   2   3
ENDBRANCH   1   2
BRANCH   1  13
HETATM   13  C           1     -21.299  -5.787  -5.691  0.00  0.00     0.249 C 
HETATM   14  N           1     -21.293  -7.135  -5.455  0.00  0.00    -0.345 N 
HETATM   15  H           1     -21.849  -7.752  -6.033  0.00  0.00     0.163 HD
HETATM   16  O           1     -20.634  -5.050  -5.003  0.00  0.00    -0.271 OA
BRANCH  14  17
HETATM   17  C           1     -20.488  -7.679  -4.379  0.00  0.00     0.185 C 
BRANCH  17  18
HETATM   18  C           1     -21.394  -8.114  -3.236  0.00  0.00     0.036 C 
BRANCH  18  19
HETATM   19  C           1     -20.792  -7.669  -1.910  0.00  0.00     0.003 C 
BRANCH  19  20
HETATM   20 Se           1     -21.270  -8.946  -0.517  0.00  0.00     0.000 Se
HETATM   21  C           1     -22.774  -7.902   0.152  0.00  0.00     0.000 C 
ENDBRANCH  19  20
ENDBRANCH  18  19
ENDBRANCH  17  18
BRANCH  17  22
HETATM   22  C           1     -19.711  -8.870  -4.885  0.00  0.00     0.196 C 
HETATM   23  O           1     -18.581  -9.124  -4.415  0.00  0.00    -0.646 OA
HETATM   24  O           1     -20.197  -9.602  -5.774  0.00  0.00    -0.646 OA
ENDBRANCH  17  22
ENDBRANCH  14  17
ENDBRANCH   1  13
BRANCH   1  25
HETATM   25  N           1     -23.521  -4.942  -6.307  0.00  0.00    -0.066 N 
HETATM   26  H           1     -23.495  -4.811  -5.271  0.00  0.00     0.275 HD
HETATM   27  H           1     -24.146  -5.747  -6.540  0.00  0.00     0.275 HD
HETATM   28  H           1     -23.889  -4.073  -6.758  0.00  0.00     0.275 HD
ENDBRANCH   1  25
TORSDOF 9
ENDMDL
MODEL 6
REMARK VINA RESULT:      -7.1      4.138      8.517
REMARK  9 active torsions:
REMARK  status: ('A' for Active; 'I' for Inactive)
REMARK    1  A    between atoms: C_3  and  Se_16 
REMARK    2  A    between atoms: C_3  and  C_10 
REMARK    3  A    between atoms: C_7  and  C_8 
REMARK    4  A    between atoms: C_8  and  C_9 
REMARK    5  A    between atoms: C_9  and  C_11 
REMARK    6  A    between atoms: C_9  and  N_24 
REMARK    7  A    between atoms: C_10  and  C_20 
REMARK       I    between atoms: C_11  and  N_15 
REMARK    8  A    between atoms: N_15  and  C_20 
REMARK    9  A    between atoms: C_20  and  C_26 
ROOT
HETATM    1  C           1     -21.174  -5.548  -5.932  0.00  0.00     0.278 C 
ENDROOT
BRANCH   1   2
HETATM    2  C           1     -20.889  -5.445  -7.425  0.00  0.00     0.083 C 
BRANCH   2   3
HETATM    3  C           1     -22.024  -4.743  -8.103  0.00  0.00    -0.028 A 
HETATM    4  C           1     -23.238  -4.428  -7.535  0.00  0.00     0.096 A 
HETATM    5  N           1     -23.992  -3.793  -8.486  0.00  0.00    -0.365 N 
HETATM    6  H           1     -24.969  -3.436  -8.339  0.00  0.00     0.165 HD
HETATM    7  C           1     -23.286  -3.689  -9.664  0.00  0.00     0.042 A 
HETATM    8  C           1     -23.650  -3.122 -10.890  0.00  0.00     0.030 A 
HETATM    9  C           1     -22.041  -4.281  -9.447  0.00  0.00    -0.002 A 
HETATM   10  C           1     -22.711  -3.163 -11.925  0.00  0.00     0.002 A 
HETATM   11  C           1     -21.460  -3.747 -11.739  0.00  0.00     0.001 A 
HETATM   12  C           1     -21.112  -4.310 -10.506  0.00  0.00     0.014 A 
ENDBRANCH   2   3
ENDBRANCH   1   2
BRANCH   1  13
HETATM   13  C           1     -21.073  -6.991  -5.499  0.00  0.00     0.249 C 
HETATM   14  N           1     -20.759  -7.295  -4.202  0.00  0.00    -0.345 N 
HETATM   15  H           1     -20.595  -6.553  -3.533  0.00  0.00     0.163 HD
HETATM   16  O           1     -21.269  -7.876  -6.297  0.00  0.00    -0.271 OA
BRANCH  14  17
HETATM   17  C           1     -20.661  -8.681  -3.785  0.00  0.00     0.185 C 
BRANCH  17  18
HETATM   18  C           1     -19.216  -9.004  -3.432  0.00  0.00     0.036 C 
BRANCH  18  19
HETATM   19  C           1     -18.473  -9.453  -4.683  0.00  0.00     0.003 C 
BRANCH  19  20
HETATM   20 Se           1     -17.296 -10.942  -4.242  0.00  0.00     0.000 Se
HETATM   21  C           1     -15.680 -10.071  -4.898  0.00  0.00     0.000 C 
ENDBRANCH  19  20
ENDBRANCH  18  19
ENDBRANCH  17  18
BRANCH  17  22
HETATM   22  C           1     -21.536  -8.905  -2.577  0.00  0.00     0.196 C 
HETATM   23  O           1     -21.720  -7.979  -1.757  0.00  0.00    -0.646 OA
HETATM   24  O           1     -22.077 -10.017  -2.394  0.00  0.00    -0.646 OA
ENDBRANCH  17  22
ENDBRANCH  14  17
ENDBRANCH   1  13
BRANCH   1  25
HETATM   25  N           1     -20.173  -4.728  -5.175  0.00  0.00    -0.066 N 
HETATM   26  H           1     -19.209  -4.964  -5.503  0.00  0.00     0.275 HD
HETATM   27  H           1     -20.253  -4.935  -4.154  0.00  0.00     0.275 HD
HETATM   28  H           1     -20.358  -3.712  -5.341  0.00  0.00     0.275 HD
ENDBRANCH   1  25
TORSDOF 9
ENDMDL
MODEL 7
REMARK VINA RESULT:      -7.0      1.066      2.006
REMARK  9 active torsions:
REMARK  status: ('A' for Active; 'I' for Inactive)
REMARK    1  A    between atoms: C_3  and  Se_16 
REMARK    2  A    between atoms: C_3  and  C_10 
REMARK    3  A    between atoms: C_7  and  C_8 
REMARK    4  A    between atoms: C_8  and  C_9 
REMARK    5  A    between atoms: C_9  and  C_11 
REMARK    6  A    between atoms: C_9  and  N_24 
REMARK    7  A    between atoms: C_10  and  C_20 
REMARK       I    between atoms: C_11  and  N_15 
REMARK    8  A    between atoms: N_15  and  C_20 
REMARK    9  A    between atoms: C_20  and  C_26 
ROOT
HETATM    1  C           1     -20.882  -5.254  -6.443  0.00  0.00     0.278 C 
ENDROOT
BRANCH   1   2
HETATM    2  C           1     -22.056  -5.971  -5.789  0.00  0.00     0.083 C 
BRANCH   2   3
HETATM    3  C           1     -21.594  -6.637  -4.529  0.00  0.00    -0.028 A 
HETATM    4  C           1     -22.055  -6.378  -3.259  0.00  0.00     0.096 A 
HETATM    5  N           1     -21.378  -7.197  -2.394  0.00  0.00    -0.365 N 
HETATM    6  H           1     -21.520  -7.221  -1.354  0.00  0.00     0.165 HD
HETATM    7  C           1     -20.484  -7.986  -3.084  0.00  0.00     0.042 A 
HETATM    8  C           1     -19.591  -8.959  -2.621  0.00  0.00     0.030 A 
HETATM    9  C           1     -20.601  -7.651  -4.434  0.00  0.00    -0.002 A 
HETATM   10  C           1     -18.795  -9.608  -3.570  0.00  0.00     0.002 A 
HETATM   11  C           1     -18.889  -9.295  -4.924  0.00  0.00     0.001 A 
HETATM   12  C           1     -19.788  -8.319  -5.370  0.00  0.00     0.014 A 
ENDBRANCH   2   3
ENDBRANCH   1   2
BRANCH   1  13
HETATM   13  C           1     -21.400  -4.265  -7.460  0.00  0.00     0.249 C 
HETATM   14  N           1     -22.215  -4.689  -8.474  0.00  0.00    -0.345 N 
HETATM   15  H           1     -22.471  -5.666  -8.542  0.00  0.00     0.163 HD
HETATM   16  O           1     -21.095  -3.099  -7.378  0.00  0.00    -0.271 OA
BRANCH  14  17
HETATM   17  C           1     -22.712  -3.740  -9.451  0.00  0.00     0.185 C 
BRANCH  17  18
HETATM   18  C           1     -22.116  -4.056 -10.816  0.00  0.00     0.036 C 
BRANCH  18  19
HETATM   19  C           1     -22.388  -2.901 -11.771  0.00  0.00     0.003 C 
BRANCH  19  20
HETATM   20 Se           1     -23.818  -3.396 -12.999  0.00  0.00     0.000 Se
HETATM   21  C           1     -22.925  -2.690 -14.581  0.00  0.00     0.000 C 
ENDBRANCH  19  20
ENDBRANCH  18  19
ENDBRANCH  17  18
BRANCH  17  22
HETATM   22  C           1     -24.216  -3.837  -9.525  0.00  0.00     0.196 C 
HETATM   23  O           1     -24.919  -2.825  -9.309  0.00  0.00    -0.646 OA
HETATM   24  O           1     -24.760  -4.927  -9.802  0.00  0.00    -0.646 OA
ENDBRANCH  17  22
ENDBRANCH  14  17
ENDBRANCH   1  13
BRANCH   1  25
HETATM   25  N           1     -20.096  -4.525  -5.395  0.00  0.00    -0.066 N 
HETATM   26  H           1     -19.277  -5.106  -5.105  0.00  0.00     0.275 HD
HETATM   27  H           1     -20.704  -4.343  -4.565  0.00  0.00     0.275 HD
HETATM   28  H           1     -19.756  -3.616  -5.784  0.00  0.00     0.275 HD
ENDBRANCH   1  25
TORSDOF 9
ENDMDL
MODEL 8
REMARK VINA RESULT:      -6.9      4.098      8.498
REMARK  9 active torsions:
REMARK  status: ('A' for Active; 'I' for Inactive)
REMARK    1  A    between atoms: C_3  and  Se_16 
REMARK    2  A    between atoms: C_3  and  C_10 
REMARK    3  A    between atoms: C_7  and  C_8 
REMARK    4  A    between atoms: C_8  and  C_9 
REMARK    5  A    between atoms: C_9  and  C_11 
REMARK    6  A    between atoms: C_9  and  N_24 
REMARK    7  A    between atoms: C_10  and  C_20 
REMARK       I    between atoms: C_11  and  N_15 
REMARK    8  A    between atoms: N_15  and  C_20 
REMARK    9  A    between atoms: C_20  and  C_26 
ROOT
HETATM    1  C           1     -21.064  -5.498  -5.723  0.00  0.00     0.278 C 
ENDROOT
BRANCH   1   2
HETATM    2  C           1     -20.899  -5.713  -7.222  0.00  0.00     0.083 C 
BRANCH   2   3
HETATM    3  C           1     -21.929  -4.911  -7.957  0.00  0.00    -0.028 A 
HETATM    4  C           1     -23.155  -4.523  -7.468  0.00  0.00     0.096 A 
HETATM    5  N           1     -23.789  -3.809  -8.450  0.00  0.00    -0.365 N 
HETATM    6  H           1     -24.746  -3.384  -8.362  0.00  0.00     0.165 HD
HETATM    7  C           1     -22.993  -3.727  -9.570  0.00  0.00     0.042 A 
HETATM    8  C           1     -23.224  -3.104 -10.802  0.00  0.00     0.030 A 
HETATM    9  C           1     -21.813  -4.415  -9.284  0.00  0.00    -0.002 A 
HETATM   10  C           1     -22.218  -3.187 -11.768  0.00  0.00     0.002 A 
HETATM   11  C           1     -21.029  -3.868 -11.511  0.00  0.00     0.001 A 
HETATM   12  C           1     -20.813  -4.486 -10.274  0.00  0.00     0.014 A 
ENDBRANCH   2   3
ENDBRANCH   1   2
BRANCH   1  13
HETATM   13  C           1     -20.825  -6.800  -4.998  0.00  0.00     0.249 C 
HETATM   14  N           1     -20.483  -7.923  -5.701  0.00  0.00    -0.345 N 
HETATM   15  H           1     -20.389  -7.880  -6.709  0.00  0.00     0.163 HD
HETATM   16  O           1     -20.936  -6.851  -3.796  0.00  0.00    -0.271 OA
BRANCH  14  17
HETATM   17  C           1     -20.253  -9.174  -5.005  0.00  0.00     0.185 C 
BRANCH  17  18
HETATM   18  C           1     -21.132 -10.261  -5.610  0.00  0.00     0.036 C 
BRANCH  18  19
HETATM   19  C           1     -21.546 -11.245  -4.524  0.00  0.00     0.003 C 
BRANCH  19  20
HETATM   20 Se           1     -21.829 -10.287  -2.851  0.00  0.00     0.000 Se
HETATM   21  C           1     -20.412 -11.218  -1.889  0.00  0.00     0.000 C 
ENDBRANCH  19  20
ENDBRANCH  18  19
ENDBRANCH  17  18
BRANCH  17  22
HETATM   22  C           1     -18.804  -9.567  -5.141  0.00  0.00     0.196 C 
HETATM   23  O           1     -18.384 -10.048  -6.217  0.00  0.00    -0.646 OA
HETATM   24  O           1     -18.021  -9.413  -4.179  0.00  0.00    -0.646 OA
ENDBRANCH  17  22
ENDBRANCH  14  17
ENDBRANCH   1  13
BRANCH   1  25
HETATM   25  N           1     -20.071  -4.477  -5.254  0.00  0.00    -0.066 N 
HETATM   26  H           1     -20.573  -3.698  -4.770  0.00  0.00     0.275 HD
HETATM   27  H           1     -19.547  -4.096  -6.074  0.00  0.00     0.275 HD
HETATM   28  H           1     -19.400  -4.924  -4.588  0.00  0.00     0.275 HD
ENDBRANCH   1  25
TORSDOF 9
ENDMDL
MODEL 9
REMARK VINA RESULT:      -6.8      2.258      3.328
REMARK  9 active torsions:
REMARK  status: ('A' for Active; 'I' for Inactive)
REMARK    1  A    between atoms: C_3  and  Se_16 
REMARK    2  A    between atoms: C_3  and  C_10 
REMARK    3  A    between atoms: C_7  and  C_8 
REMARK    4  A    between atoms: C_8  and  C_9 
REMARK    5  A    between atoms: C_9  and  C_11 
REMARK    6  A    between atoms: C_9  and  N_24 
REMARK    7  A    between atoms: C_10  and  C_20 
REMARK       I    between atoms: C_11  and  N_15 
REMARK    8  A    between atoms: N_15  and  C_20 
REMARK    9  A    between atoms: C_20  and  C_26 
ROOT
HETATM    1  C           1     -21.753  -5.995  -4.975  0.00  0.00     0.278 C 
ENDROOT
BRANCH   1   2
HETATM    2  C           1     -20.958  -7.018  -4.176  0.00  0.00     0.083 C 
BRANCH   2   3
HETATM    3  C           1     -21.520  -7.116  -2.791  0.00  0.00    -0.028 A 
HETATM    4  C           1     -21.827  -6.059  -1.965  0.00  0.00     0.096 A 
HETATM    5  N           1     -22.314  -6.574  -0.792  0.00  0.00    -0.365 N 
HETATM    6  H           1     -22.631  -6.002   0.029  0.00  0.00     0.165 HD
HETATM    7  C           1     -22.328  -7.950  -0.844  0.00  0.00     0.042 A 
HETATM    8  C           1     -22.737  -8.888   0.110  0.00  0.00     0.030 A 
HETATM    9  C           1     -21.831  -8.316  -2.096  0.00  0.00    -0.002 A 
HETATM   10  C           1     -22.635 -10.240  -0.228  0.00  0.00     0.002 A 
HETATM   11  C           1     -22.143 -10.637  -1.469  0.00  0.00     0.001 A 
HETATM   12  C           1     -21.738  -9.686  -2.413  0.00  0.00     0.014 A 
ENDBRANCH   2   3
ENDBRANCH   1   2
BRANCH   1  13
HETATM   13  C           1     -21.353  -6.070  -6.429  0.00  0.00     0.249 C 
HETATM   14  N           1     -21.663  -5.043  -7.279  0.00  0.00    -0.345 N 
HETATM   15  H           1     -22.160  -4.232  -6.932  0.00  0.00     0.163 HD
HETATM   16  O           1     -20.760  -7.038  -6.843  0.00  0.00    -0.271 OA
BRANCH  14  17
HETATM   17  C           1     -21.280  -5.115  -8.675  0.00  0.00     0.185 C 
BRANCH  17  18
HETATM   18  C           1     -22.488  -4.812  -9.551  0.00  0.00     0.036 C 
BRANCH  18  19
HETATM   19  C           1     -23.543  -4.084  -8.728  0.00  0.00     0.003 C 
BRANCH  19  20
HETATM   20 Se           1     -24.889  -3.329  -9.919  0.00  0.00     0.000 Se
HETATM   21  C           1     -23.680  -3.149 -11.437  0.00  0.00     0.000 C 
ENDBRANCH  19  20
ENDBRANCH  18  19
ENDBRANCH  17  18
BRANCH  17  22
HETATM   22  C           1     -20.193  -4.106  -8.951  0.00  0.00     0.196 C 
HETATM   23  O           1     -20.112  -3.566 -10.076  0.00  0.00    -0.646 OA
HETATM   24  O           1     -19.373  -3.809  -8.056  0.00  0.00    -0.646 OA
ENDBRANCH  17  22
ENDBRANCH  14  17
ENDBRANCH   1  13
BRANCH   1  25
HETATM   25  N           1     -23.218  -6.289  -4.845  0.00  0.00    -0.066 N 
HETATM   26  H           1     -23.402  -7.277  -5.129  0.00  0.00     0.275 HD
HETATM   27  H           1     -23.760  -5.643  -5.462  0.00  0.00     0.275 HD
HETATM   28  H           1     -23.513  -6.152  -3.852  0.00  0.00     0.275 HD
ENDBRANCH   1  25
TORSDOF 9
ENDMDL
