MODEL 1
REMARK VINA RESULT:      -6.5      0.000      0.000
REMARK  6 active torsions:
REMARK  status: ('A' for Active; 'I' for Inactive)
REMARK    1  A    between atoms: N_2  and  C_13 
REMARK       I    between atoms: C_8  and  N_15 
REMARK    2  A    between atoms: C_8  and  C_13 
REMARK    3  A    between atoms: C_10  and  C_11 
REMARK    4  A    between atoms: C_11  and  C_13 
REMARK    5  A    between atoms: N_15  and  C_21 
REMARK    6  A    between atoms: C_20  and  C_21 
ROOT
HETATM    1  C           1     -21.394  -3.535 -10.696  0.00  0.00     0.280 C 
ENDROOT
BRANCH   1   2
HETATM    2  N           1     -20.201  -3.040 -11.459  0.00  0.00    -0.066 N 
HETATM    3  H           1     -20.106  -2.008 -11.324  0.00  0.00     0.275 HD
HETATM    4  H           1     -19.340  -3.518 -11.109  0.00  0.00     0.275 HD
HETATM    5  H           1     -20.326  -3.249 -12.475  0.00  0.00     0.275 HD
ENDBRANCH   1   2
BRANCH   1   6
HETATM    6  C           1     -20.933  -4.404  -9.552  0.00  0.00     0.249 C 
HETATM    7  N           1     -21.589  -4.360  -8.351  0.00  0.00    -0.345 N 
HETATM    8  H           1     -22.383  -3.743  -8.231  0.00  0.00     0.163 HD
HETATM    9  O           1     -19.987  -5.141  -9.696  0.00  0.00    -0.271 OA
BRANCH   7  10
HETATM   10  C           1     -21.147  -5.195  -7.251  0.00  0.00     0.181 C 
HETATM   11  C           1     -19.928  -4.564  -6.593  0.00  0.00     0.043 C 
BRANCH  10  12
HETATM   12  C           1     -22.258  -5.320  -6.238  0.00  0.00     0.196 C 
HETATM   13  O           1     -23.378  -4.819  -6.474  0.00  0.00    -0.646 OA
HETATM   14  O           1     -22.056  -5.923  -5.162  0.00  0.00    -0.646 OA
ENDBRANCH  10  12
ENDBRANCH   7  10
ENDBRANCH   1   6
BRANCH   1  15
HETATM   15  C           1     -22.288  -4.348 -11.624  0.00  0.00     0.101 C 
BRANCH  15  16
HETATM   16  C           1     -22.903  -3.442 -12.645  0.00  0.00     0.028 A 
HETATM   17  N           1     -22.403  -3.233 -13.903  0.00  0.00    -0.355 N 
HETATM   18  C           1     -23.229  -2.382 -14.468  0.00  0.00     0.180 A 
ATOM     19  HN          1     -21.567  -3.649 -14.314  1.00  0.00     0.166 HD
HETATM   20  N           1     -24.243  -2.033 -13.622  0.00  0.00    -0.360 N 
HETATM   21  C           1     -24.048  -2.706 -12.448  0.00  0.00     0.114 A 
HETATM   22  H           1     -25.029  -1.371 -13.834  0.00  0.00     0.166 HD
ENDBRANCH  15  16
ENDBRANCH   1  15
TORSDOF 6
ENDMDL
MODEL 2
REMARK VINA RESULT:      -6.4      1.755      2.250
REMARK  6 active torsions:
REMARK  status: ('A' for Active; 'I' for Inactive)
REMARK    1  A    between atoms: N_2  and  C_13 
REMARK       I    between atoms: C_8  and  N_15 
REMARK    2  A    between atoms: C_8  and  C_13 
REMARK    3  A    between atoms: C_10  and  C_11 
REMARK    4  A    between atoms: C_11  and  C_13 
REMARK    5  A    between atoms: N_15  and  C_21 
REMARK    6  A    between atoms: C_20  and  C_21 
ROOT
HETATM    1  C           1     -22.811  -4.434  -9.201  0.00  0.00     0.280 C 
ENDROOT
BRANCH   1   2
HETATM    2  N           1     -23.891  -3.977  -8.267  0.00  0.00    -0.066 N 
HETATM    3  H           1     -23.457  -3.564  -7.410  0.00  0.00     0.275 HD
HETATM    4  H           1     -24.481  -3.256  -8.741  0.00  0.00     0.275 HD
HETATM    5  H           1     -24.487  -4.792  -7.999  0.00  0.00     0.275 HD
ENDBRANCH   1   2
BRANCH   1   6
HETATM    6  C           1     -21.639  -4.948  -8.402  0.00  0.00     0.249 C 
HETATM    7  N           1     -21.813  -5.327  -7.098  0.00  0.00    -0.345 N 
HETATM    8  H           1     -22.729  -5.263  -6.671  0.00  0.00     0.163 HD
HETATM    9  O           1     -20.547  -5.025  -8.912  0.00  0.00    -0.271 OA
BRANCH   7  10
HETATM   10  C           1     -20.687  -5.821  -6.329  0.00  0.00     0.181 C 
HETATM   11  C           1     -20.160  -4.710  -5.430  0.00  0.00     0.043 C 
BRANCH  10  12
HETATM   12  C           1     -21.131  -6.986  -5.480  0.00  0.00     0.196 C 
HETATM   13  O           1     -21.459  -6.802  -4.289  0.00  0.00    -0.646 OA
HETATM   14  O           1     -21.170  -8.136  -5.969  0.00  0.00    -0.646 OA
ENDBRANCH  10  12
ENDBRANCH   7  10
ENDBRANCH   1   6
BRANCH   1  15
HETATM   15  C           1     -22.361  -3.265 -10.068  0.00  0.00     0.101 C 
BRANCH  15  16
HETATM   16  C           1     -22.991  -3.375 -11.422  0.00  0.00     0.028 A 
HETATM   17  N           1     -23.130  -2.334 -12.303  0.00  0.00    -0.355 N 
HETATM   18  C           1     -23.724  -2.848 -13.355  0.00  0.00     0.180 A 
ATOM     19  HN          1     -22.835  -1.367 -12.170  1.00  0.00     0.166 HD
HETATM   20  N           1     -23.974  -4.180 -13.187  0.00  0.00    -0.360 N 
HETATM   21  C           1     -23.509  -4.533 -11.951  0.00  0.00     0.114 A 
HETATM   22  H           1     -24.438  -4.818 -13.881  0.00  0.00     0.166 HD
ENDBRANCH  15  16
ENDBRANCH   1  15
TORSDOF 6
ENDMDL
MODEL 3
REMARK VINA RESULT:      -6.3      3.175      7.191
REMARK  6 active torsions:
REMARK  status: ('A' for Active; 'I' for Inactive)
REMARK    1  A    between atoms: N_2  and  C_13 
REMARK       I    between atoms: C_8  and  N_15 
REMARK    2  A    between atoms: C_8  and  C_13 
REMARK    3  A    between atoms: C_10  and  C_11 
REMARK    4  A    between atoms: C_11  and  C_13 
REMARK    5  A    between atoms: N_15  and  C_21 
REMARK    6  A    between atoms: C_20  and  C_21 
ROOT
HETATM    1  C           1     -21.075  -5.635  -6.731  0.00  0.00     0.280 C 
ENDROOT
BRANCH   1   2
HETATM    2  N           1     -19.897  -6.224  -7.448  0.00  0.00    -0.066 N 
HETATM    3  H           1     -19.772  -7.220  -7.153  0.00  0.00     0.275 HD
HETATM    4  H           1     -20.059  -6.184  -8.479  0.00  0.00     0.275 HD
HETATM    5  H           1     -19.036  -5.680  -7.209  0.00  0.00     0.275 HD
ENDBRANCH   1   2
BRANCH   1   6
HETATM    6  C           1     -21.618  -4.475  -7.528  0.00  0.00     0.249 C 
HETATM    7  N           1     -22.272  -4.702  -8.710  0.00  0.00    -0.345 N 
HETATM    8  H           1     -22.390  -5.649  -9.048  0.00  0.00     0.163 HD
HETATM    9  O           1     -21.478  -3.346  -7.124  0.00  0.00    -0.271 OA
BRANCH   7  10
HETATM   10  C           1     -22.795  -3.587  -9.476  0.00  0.00     0.181 C 
HETATM   11  C           1     -22.088  -3.521 -10.823  0.00  0.00     0.043 C 
BRANCH  10  12
HETATM   12  C           1     -24.275  -3.778  -9.694  0.00  0.00     0.196 C 
HETATM   13  O           1     -24.718  -4.898 -10.028  0.00  0.00    -0.646 OA
HETATM   14  O           1     -25.058  -2.816  -9.542  0.00  0.00    -0.646 OA
ENDBRANCH  10  12
ENDBRANCH   7  10
ENDBRANCH   1   6
BRANCH   1  15
HETATM   15  C           1     -20.640  -5.148  -5.355  0.00  0.00     0.101 C 
BRANCH  15  16
HETATM   16  C           1     -21.068  -6.136  -4.316  0.00  0.00     0.028 A 
HETATM   17  N           1     -21.470  -5.809  -3.048  0.00  0.00    -0.355 N 
HETATM   18  C           1     -21.754  -6.952  -2.468  0.00  0.00     0.180 A 
ATOM     19  HN          1     -21.536  -4.875  -2.641  1.00  0.00     0.166 HD
HETATM   20  N           1     -21.550  -8.005  -3.312  0.00  0.00    -0.360 N 
HETATM   21  C           1     -21.109  -7.498  -4.503  0.00  0.00     0.114 A 
HETATM   22  H           1     -21.704  -9.020  -3.089  0.00  0.00     0.166 HD
ENDBRANCH  15  16
ENDBRANCH   1  15
TORSDOF 6
ENDMDL
MODEL 4
REMARK VINA RESULT:      -6.1      2.680      4.225
REMARK  6 active torsions:
REMARK  status: ('A' for Active; 'I' for Inactive)
REMARK    1  A    between atoms: N_2  and  C_13 
REMARK       I    between atoms: C_8  and  N_15 
REMARK    2  A    between atoms: C_8  and  C_13 
REMARK    3  A    between atoms: C_10  and  C_11 
REMARK    4  A    between atoms: C_11  and  C_13 
REMARK    5  A    between atoms: N_15  and  C_21 
REMARK    6  A    between atoms: C_20  and  C_21 
ROOT
HETATM    1  C           1     -21.406  -4.602  -6.913  0.00  0.00     0.280 C 
ENDROOT
BRANCH   1   2
HETATM    2  N           1     -19.947  -4.440  -6.607  0.00  0.00    -0.066 N 
HETATM    3  H           1     -19.400  -4.456  -7.498  0.00  0.00     0.275 HD
HETATM    4  H           1     -19.792  -3.529  -6.119  0.00  0.00     0.275 HD
HETATM    5  H           1     -19.632  -5.222  -5.989  0.00  0.00     0.275 HD
ENDBRANCH   1   2
BRANCH   1   6
HETATM    6  C           1     -22.019  -5.574  -5.935  0.00  0.00     0.249 C 
HETATM    7  N           1     -21.217  -6.413  -5.209  0.00  0.00    -0.345 N 
HETATM    8  H           1     -20.213  -6.381  -5.329  0.00  0.00     0.163 HD
HETATM    9  O           1     -23.218  -5.610  -5.791  0.00  0.00    -0.271 OA
BRANCH   7  10
HETATM   10  C           1     -21.807  -7.347  -4.269  0.00  0.00     0.181 C 
HETATM   11  C           1     -21.130  -8.704  -4.409  0.00  0.00     0.043 C 
BRANCH  10  12
HETATM   12  C           1     -21.615  -6.832  -2.864  0.00  0.00     0.196 C 
HETATM   13  O           1     -22.339  -5.909  -2.433  0.00  0.00    -0.646 OA
HETATM   14  O           1     -20.732  -7.328  -2.132  0.00  0.00    -0.646 OA
ENDBRANCH  10  12
ENDBRANCH   7  10
ENDBRANCH   1   6
BRANCH   1  15
HETATM   15  C           1     -21.570  -5.136  -8.330  0.00  0.00     0.101 C 
BRANCH  15  16
HETATM   16  C           1     -22.652  -4.373  -9.030  0.00  0.00     0.028 A 
HETATM   17  N           1     -23.828  -3.980  -8.448  0.00  0.00    -0.355 N 
HETATM   18  C           1     -24.487  -3.347  -9.391  0.00  0.00     0.180 A 
ATOM     19  HN          1     -24.128  -4.143  -7.486  1.00  0.00     0.166 HD
HETATM   20  N           1     -23.782  -3.318 -10.560  0.00  0.00    -0.360 N 
HETATM   21  C           1     -22.601  -3.972 -10.343  0.00  0.00     0.114 A 
HETATM   22  H           1     -24.089  -2.874 -11.461  0.00  0.00     0.166 HD
ENDBRANCH  15  16
ENDBRANCH   1  15
TORSDOF 6
ENDMDL
MODEL 5
REMARK VINA RESULT:      -6.1      2.483      6.045
REMARK  6 active torsions:
REMARK  status: ('A' for Active; 'I' for Inactive)
REMARK    1  A    between atoms: N_2  and  C_13 
REMARK       I    between atoms: C_8  and  N_15 
REMARK    2  A    between atoms: C_8  and  C_13 
REMARK    3  A    between atoms: C_10  and  C_11 
REMARK    4  A    between atoms: C_11  and  C_13 
REMARK    5  A    between atoms: N_15  and  C_21 
REMARK    6  A    between atoms: C_20  and  C_21 
ROOT
HETATM    1  C           1     -20.552  -4.850  -9.286  0.00  0.00     0.280 C 
ENDROOT
BRANCH   1   2
HETATM    2  N           1     -19.718  -4.794 -10.531  0.00  0.00    -0.066 N 
HETATM    3  H           1     -18.744  -5.103 -10.311  0.00  0.00     0.275 HD
HETATM    4  H           1     -20.129  -5.425 -11.255  0.00  0.00     0.275 HD
HETATM    5  H           1     -19.701  -3.814 -10.894  0.00  0.00     0.275 HD
ENDBRANCH   1   2
BRANCH   1   6
HETATM    6  C           1     -21.764  -3.966  -9.453  0.00  0.00     0.249 C 
HETATM    7  N           1     -22.418  -3.919 -10.655  0.00  0.00    -0.345 N 
HETATM    8  H           1     -22.088  -4.479 -11.432  0.00  0.00     0.163 HD
HETATM    9  O           1     -22.157  -3.299  -8.526  0.00  0.00    -0.271 OA
BRANCH   7  10
HETATM   10  C           1     -23.582  -3.070 -10.816  0.00  0.00     0.181 C 
HETATM   11  C           1     -23.870  -2.878 -12.299  0.00  0.00     0.043 C 
BRANCH  10  12
HETATM   12  C           1     -24.771  -3.718 -10.152  0.00  0.00     0.196 C 
HETATM   13  O           1     -24.778  -4.951  -9.948  0.00  0.00    -0.646 OA
HETATM   14  O           1     -25.751  -3.022  -9.808  0.00  0.00    -0.646 OA
ENDBRANCH  10  12
ENDBRANCH   7  10
ENDBRANCH   1   6
BRANCH   1  15
HETATM   15  C           1     -19.728  -4.364  -8.101  0.00  0.00     0.101 C 
BRANCH  15  16
HETATM   16  C           1     -20.032  -5.207  -6.902  0.00  0.00     0.028 A 
HETATM   17  N           1     -19.964  -6.575  -6.873  0.00  0.00    -0.355 N 
HETATM   18  C           1     -20.304  -6.914  -5.651  0.00  0.00     0.180 A 
ATOM     19  HN          1     -19.705  -7.198  -7.639  1.00  0.00     0.166 HD
HETATM   20  N           1     -20.589  -5.817  -4.889  0.00  0.00    -0.360 N 
HETATM   21  C           1     -20.419  -4.714  -5.678  0.00  0.00     0.114 A 
HETATM   22  H           1     -20.884  -5.820  -3.881  0.00  0.00     0.166 HD
ENDBRANCH  15  16
ENDBRANCH   1  15
TORSDOF 6
ENDMDL
MODEL 6
REMARK VINA RESULT:      -5.6      2.744      6.287
REMARK  6 active torsions:
REMARK  status: ('A' for Active; 'I' for Inactive)
REMARK    1  A    between atoms: N_2  and  C_13 
REMARK       I    between atoms: C_8  and  N_15 
REMARK    2  A    between atoms: C_8  and  C_13 
REMARK    3  A    between atoms: C_10  and  C_11 
REMARK    4  A    between atoms: C_11  and  C_13 
REMARK    5  A    between atoms: N_15  and  C_21 
REMARK    6  A    between atoms: C_20  and  C_21 
ROOT
HETATM    1  C           1     -21.250  -4.509 -10.286  0.00  0.00     0.280 C 
ENDROOT
BRANCH   1   2
HETATM    2  N           1     -19.989  -4.690 -11.078  0.00  0.00    -0.066 N 
HETATM    3  H           1     -19.211  -4.963 -10.436  0.00  0.00     0.275 HD
HETATM    4  H           1     -20.130  -5.440 -11.792  0.00  0.00     0.275 HD
HETATM    5  H           1     -19.748  -3.794 -11.559  0.00  0.00     0.275 HD
ENDBRANCH   1   2
BRANCH   1   6
HETATM    6  C           1     -22.218  -3.659 -11.072  0.00  0.00     0.249 C 
HETATM    7  N           1     -22.158  -3.638 -12.439  0.00  0.00    -0.345 N 
HETATM    8  H           1     -21.462  -4.192 -12.923  0.00  0.00     0.163 HD
HETATM    9  O           1     -23.048  -2.999 -10.494  0.00  0.00    -0.271 OA
BRANCH   7  10
HETATM   10  C           1     -23.088  -2.821 -13.194  0.00  0.00     0.181 C 
HETATM   11  C           1     -22.610  -2.707 -14.636  0.00  0.00     0.043 C 
BRANCH  10  12
HETATM   12  C           1     -24.454  -3.461 -13.166  0.00  0.00     0.196 C 
HETATM   13  O           1     -24.640  -4.561 -13.730  0.00  0.00    -0.646 OA
HETATM   14  O           1     -25.399  -2.890 -12.581  0.00  0.00    -0.646 OA
ENDBRANCH  10  12
ENDBRANCH   7  10
ENDBRANCH   1   6
BRANCH   1  15
HETATM   15  C           1     -20.925  -3.821  -8.966  0.00  0.00     0.101 C 
BRANCH  15  16
HETATM   16  C           1     -21.184  -4.766  -7.834  0.00  0.00     0.028 A 
HETATM   17  N           1     -20.465  -5.907  -7.592  0.00  0.00    -0.355 N 
HETATM   18  C           1     -21.008  -6.439  -6.521  0.00  0.00     0.180 A 
ATOM     19  HN          1     -19.676  -6.267  -8.129  1.00  0.00     0.166 HD
HETATM   20  N           1     -22.051  -5.685  -6.063  0.00  0.00    -0.360 N 
HETATM   21  C           1     -22.175  -4.607  -6.895  0.00  0.00     0.114 A 
HETATM   22  H           1     -22.647  -5.893  -5.224  0.00  0.00     0.166 HD
ENDBRANCH  15  16
ENDBRANCH   1  15
TORSDOF 6
ENDMDL
MODEL 7
REMARK VINA RESULT:      -5.6      4.744      8.781
REMARK  6 active torsions:
REMARK  status: ('A' for Active; 'I' for Inactive)
REMARK    1  A    between atoms: N_2  and  C_13 
REMARK       I    between atoms: C_8  and  N_15 
REMARK    2  A    between atoms: C_8  and  C_13 
REMARK    3  A    between atoms: C_10  and  C_11 
REMARK    4  A    between atoms: C_11  and  C_13 
REMARK    5  A    between atoms: N_15  and  C_21 
REMARK    6  A    between atoms: C_20  and  C_21 
ROOT
HETATM    1  C           1     -21.499  -7.926  -4.497  0.00  0.00     0.280 C 
ENDROOT
BRANCH   1   2
HETATM    2  N           1     -21.095  -8.801  -5.646  0.00  0.00    -0.066 N 
HETATM    3  H           1     -20.063  -8.724  -5.797  0.00  0.00     0.275 HD
HETATM    4  H           1     -21.343  -9.794  -5.434  0.00  0.00     0.275 HD
HETATM    5  H           1     -21.598  -8.495  -6.510  0.00  0.00     0.275 HD
ENDBRANCH   1   2
BRANCH   1   6
HETATM    6  C           1     -21.324  -6.478  -4.884  0.00  0.00     0.249 C 
HETATM    7  N           1     -21.121  -6.138  -6.194  0.00  0.00    -0.345 N 
HETATM    8  H           1     -21.087  -6.859  -6.904  0.00  0.00     0.163 HD
HETATM    9  O           1     -21.366  -5.618  -4.037  0.00  0.00    -0.271 OA
BRANCH   7  10
HETATM   10  C           1     -20.954  -4.746  -6.565  0.00  0.00     0.181 C 
HETATM   11  C           1     -19.654  -4.581  -7.341  0.00  0.00     0.043 C 
BRANCH  10  12
HETATM   12  C           1     -22.113  -4.315  -7.429  0.00  0.00     0.196 C 
HETATM   13  O           1     -23.285  -4.518  -7.048  0.00  0.00    -0.646 OA
HETATM   14  O           1     -21.900  -3.755  -8.526  0.00  0.00    -0.646 OA
ENDBRANCH  10  12
ENDBRANCH   7  10
ENDBRANCH   1   6
BRANCH   1  15
HETATM   15  C           1     -20.624  -8.239  -3.290  0.00  0.00     0.101 C 
BRANCH  15  16
HETATM   16  C           1     -21.465  -8.248  -2.052  0.00  0.00     0.028 A 
HETATM   17  N           1     -21.862  -7.127  -1.372  0.00  0.00    -0.355 N 
HETATM   18  C           1     -22.574  -7.568  -0.360  0.00  0.00     0.180 A 
ATOM     19  HN          1     -21.649  -6.156  -1.602  1.00  0.00     0.166 HD
HETATM   20  N           1     -22.652  -8.931  -0.361  0.00  0.00    -0.360 N 
HETATM   21  C           1     -21.945  -9.382  -1.442  0.00  0.00     0.114 A 
HETATM   22  H           1     -23.162  -9.525   0.338  0.00  0.00     0.166 HD
ENDBRANCH  15  16
ENDBRANCH   1  15
TORSDOF 6
ENDMDL
MODEL 8
REMARK VINA RESULT:      -5.5      1.726      2.441
REMARK  6 active torsions:
REMARK  status: ('A' for Active; 'I' for Inactive)
REMARK    1  A    between atoms: N_2  and  C_13 
REMARK       I    between atoms: C_8  and  N_15 
REMARK    2  A    between atoms: C_8  and  C_13 
REMARK    3  A    between atoms: C_10  and  C_11 
REMARK    4  A    between atoms: C_11  and  C_13 
REMARK    5  A    between atoms: N_15  and  C_21 
REMARK    6  A    between atoms: C_20  and  C_21 
ROOT
HETATM    1  C           1     -21.126  -3.421 -10.697  0.00  0.00     0.280 C 
ENDROOT
BRANCH   1   2
HETATM    2  N           1     -20.035  -2.963 -11.619  0.00  0.00    -0.066 N 
HETATM    3  H           1     -19.874  -3.688 -12.355  0.00  0.00     0.275 HD
HETATM    4  H           1     -20.314  -2.063 -12.071  0.00  0.00     0.275 HD
HETATM    5  H           1     -19.155  -2.819 -11.072  0.00  0.00     0.275 HD
ENDBRANCH   1   2
BRANCH   1   6
HETATM    6  C           1     -20.551  -4.360  -9.666  0.00  0.00     0.249 C 
HETATM    7  N           1     -20.890  -4.219  -8.347  0.00  0.00    -0.345 N 
HETATM    8  H           1     -21.527  -3.485  -8.064  0.00  0.00     0.163 HD
HETATM    9  O           1     -19.792  -5.237 -10.003  0.00  0.00    -0.271 OA
BRANCH   7  10
HETATM   10  C           1     -20.338  -5.122  -7.355  0.00  0.00     0.181 C 
HETATM   11  C           1     -19.007  -4.575  -6.856  0.00  0.00     0.043 C 
BRANCH  10  12
HETATM   12  C           1     -21.297  -5.243  -6.198  0.00  0.00     0.196 C 
HETATM   13  O           1     -20.872  -5.546  -5.062  0.00  0.00    -0.646 OA
HETATM   14  O           1     -22.519  -5.043  -6.375  0.00  0.00    -0.646 OA
ENDBRANCH  10  12
ENDBRANCH   7  10
ENDBRANCH   1   6
BRANCH   1  15
HETATM   15  C           1     -22.198  -4.144 -11.501  0.00  0.00     0.101 C 
BRANCH  15  16
HETATM   16  C           1     -23.497  -4.096 -10.759  0.00  0.00     0.028 A 
HETATM   17  N           1     -24.267  -2.973 -10.607  0.00  0.00    -0.355 N 
HETATM   18  C           1     -25.306  -3.356  -9.901  0.00  0.00     0.180 A 
ATOM     19  HN          1     -24.074  -2.037 -10.966  1.00  0.00     0.166 HD
HETATM   20  N           1     -25.236  -4.685  -9.591  0.00  0.00    -0.360 N 
HETATM   21  C           1     -24.081  -5.173 -10.135  0.00  0.00     0.114 A 
HETATM   22  H           1     -25.941  -5.231  -9.037  0.00  0.00     0.166 HD
ENDBRANCH  15  16
ENDBRANCH   1  15
TORSDOF 6
ENDMDL
MODEL 9
REMARK VINA RESULT:      -5.4      1.943      2.737
REMARK  6 active torsions:
REMARK  status: ('A' for Active; 'I' for Inactive)
REMARK    1  A    between atoms: N_2  and  C_13 
REMARK       I    between atoms: C_8  and  N_15 
REMARK    2  A    between atoms: C_8  and  C_13 
REMARK    3  A    between atoms: C_10  and  C_11 
REMARK    4  A    between atoms: C_11  and  C_13 
REMARK    5  A    between atoms: N_15  and  C_21 
REMARK    6  A    between atoms: C_20  and  C_21 
ROOT
HETATM    1  C           1     -23.847  -4.266  -9.681  0.00  0.00     0.280 C 
ENDROOT
BRANCH   1   2
HETATM    2  N           1     -25.345  -4.197  -9.676  0.00  0.00    -0.066 N 
HETATM    3  H           1     -25.734  -5.024 -10.184  0.00  0.00     0.275 HD
HETATM    4  H           1     -25.691  -4.199  -8.690  0.00  0.00     0.275 HD
HETATM    5  H           1     -25.655  -3.319 -10.151  0.00  0.00     0.275 HD
ENDBRANCH   1   2
BRANCH   1   6
HETATM    6  C           1     -23.352  -4.547  -8.283  0.00  0.00     0.249 C 
HETATM    7  N           1     -22.102  -5.071  -8.092  0.00  0.00    -0.345 N 
HETATM    8  H           1     -21.510  -5.271  -8.889  0.00  0.00     0.163 HD
HETATM    9  O           1     -24.058  -4.308  -7.333  0.00  0.00    -0.271 OA
BRANCH   7  10
HETATM   10  C           1     -21.626  -5.341  -6.749  0.00  0.00     0.181 C 
HETATM   11  C           1     -20.955  -6.707  -6.713  0.00  0.00     0.043 C 
BRANCH  10  12
HETATM   12  C           1     -20.630  -4.281  -6.347  0.00  0.00     0.196 C 
HETATM   13  O           1     -20.793  -3.099  -6.719  0.00  0.00    -0.646 OA
HETATM   14  O           1     -19.643  -4.586  -5.645  0.00  0.00    -0.646 OA
ENDBRANCH  10  12
ENDBRANCH   7  10
ENDBRANCH   1   6
BRANCH   1  15
HETATM   15  C           1     -23.280  -2.938 -10.164  0.00  0.00     0.101 C 
BRANCH  15  16
HETATM   16  C           1     -23.081  -2.988 -11.647  0.00  0.00     0.028 A 
HETATM   17  N           1     -23.983  -2.527 -12.570  0.00  0.00    -0.355 N 
HETATM   18  C           1     -23.432  -2.757 -13.739  0.00  0.00     0.180 A 
ATOM     19  HN          1     -24.890  -2.097 -12.387  1.00  0.00     0.166 HD
HETATM   20  N           1     -22.209  -3.350 -13.607  0.00  0.00    -0.360 N 
HETATM   21  C           1     -21.970  -3.504 -12.270  0.00  0.00     0.114 A 
HETATM   22  H           1     -21.568  -3.634 -14.389  0.00  0.00     0.166 HD
ENDBRANCH  15  16
ENDBRANCH   1  15
TORSDOF 6
ENDMDL
