MODEL 1
REMARK VINA RESULT:      -6.5      0.000      0.000
REMARK  11 active torsions:
REMARK  status: ('A' for Active; 'I' for Inactive)
REMARK    1  A    between atoms: C_2  and  C_13 
REMARK    2  A    between atoms: C_2  and  C_18 
REMARK    3  A    between atoms: C_2  and  N_7 
REMARK       I    between atoms: N_5  and  C_15 
REMARK    4  A    between atoms: C_6  and  C_18 
REMARK    5  A    between atoms: C_6  and  S_19 
REMARK    6  A    between atoms: C_8  and  C_9 
REMARK    7  A    between atoms: C_8  and  C_17 
REMARK    8  A    between atoms: C_8  and  N_11 
REMARK    9  A    between atoms: C_9  and  C_14 
REMARK       I    between atoms: N_11  and  C_13 
REMARK   10  A    between atoms: C_14  and  C_26 
REMARK       I    between atoms: C_15  and  N_24 
REMARK   11  A    between atoms: N_24  and  C_26 
ROOT
HETATM    1  C           1     -28.218  -6.577 -17.072  0.00  0.00     0.185 C 
ENDROOT
BRANCH   1   2
HETATM    2  C           1     -29.088  -7.737 -17.540  0.00  0.00     0.038 C 
BRANCH   2   3
HETATM    3  C           1     -30.354  -7.194 -18.190  0.00  0.00     0.023 C 
BRANCH   3   4
HETATM    4  C           1     -31.199  -6.484 -17.141  0.00  0.00     0.138 C 
BRANCH   4   5
HETATM    5  N           1     -31.274  -5.050 -17.460  0.00  0.00    -0.227 N 
HETATM    6  H           1     -30.489  -4.586 -17.980  0.00  0.00     0.177 HD
HETATM    7  C           1     -32.286  -4.376 -17.106  0.00  0.00     0.665 C 
HETATM    8  N           1     -32.352  -3.108 -17.388  0.00  0.00    -0.235 N 
HETATM    9  N           1     -33.232  -4.935 -16.479  0.00  0.00    -0.235 N 
HETATM   10  H           1     -31.571  -2.647 -17.906  0.00  0.00     0.174 HD
HETATM   11  H           1     -33.187  -2.552 -17.096  0.00  0.00     0.174 HD
HETATM   12  H           1     -34.070  -4.376 -16.186  0.00  0.00     0.174 HD
HETATM   13  H           1     -33.178  -5.959 -16.251  0.00  0.00     0.174 HD
ENDBRANCH   4   5
ENDBRANCH   3   4
ENDBRANCH   2   3
ENDBRANCH   1   2
BRANCH   1  14
HETATM   14  C           1     -28.197  -6.540 -15.564  0.00  0.00     0.196 C 
HETATM   15  O           1     -28.614  -5.529 -14.958  0.00  0.00    -0.646 OA
HETATM   16  O           1     -27.763  -7.519 -14.921  0.00  0.00    -0.646 OA
ENDBRANCH   1  14
BRANCH   1  17
HETATM   17  N           1     -26.868  -6.755 -17.570  0.00  0.00    -0.345 N 
HETATM   18  H           1     -26.145  -7.108 -16.956  0.00  0.00     0.163 HD
HETATM   19  C           1     -26.572  -6.447 -18.871  0.00  0.00     0.249 C 
HETATM   20  O           1     -27.435  -6.027 -19.602  0.00  0.00    -0.271 OA
BRANCH  19  21
HETATM   21  C           1     -25.167  -6.631 -19.389  0.00  0.00     0.275 C 
BRANCH  21  22
HETATM   22  C           1     -25.204  -7.422 -20.689  0.00  0.00     0.053 C 
BRANCH  22  23
HETATM   23  C           1     -23.875  -8.141 -20.886  0.00  0.00     0.076 C 
BRANCH  23  24
HETATM   24  S           1     -23.438  -8.134 -22.647  0.00  0.00    -0.173 SA
HETATM   25  C           1     -21.913  -9.104 -22.477  0.00  0.00     0.089 C 
ENDBRANCH  23  24
ENDBRANCH  22  23
ENDBRANCH  21  22
BRANCH  21  26
HETATM   26  N           1     -24.355  -7.378 -18.373  0.00  0.00    -0.066 N 
HETATM   27  H           1     -24.183  -8.352 -18.712  0.00  0.00     0.275 HD
HETATM   28  H           1     -23.440  -6.893 -18.233  0.00  0.00     0.275 HD
HETATM   29  H           1     -24.875  -7.412 -17.467  0.00  0.00     0.275 HD
ENDBRANCH  21  26
ENDBRANCH  19  21
ENDBRANCH   1  17
TORSDOF 11
ENDMDL
MODEL 2
REMARK VINA RESULT:      -6.4     11.554     13.679
REMARK  11 active torsions:
REMARK  status: ('A' for Active; 'I' for Inactive)
REMARK    1  A    between atoms: C_2  and  C_13 
REMARK    2  A    between atoms: C_2  and  C_18 
REMARK    3  A    between atoms: C_2  and  N_7 
REMARK       I    between atoms: N_5  and  C_15 
REMARK    4  A    between atoms: C_6  and  C_18 
REMARK    5  A    between atoms: C_6  and  S_19 
REMARK    6  A    between atoms: C_8  and  C_9 
REMARK    7  A    between atoms: C_8  and  C_17 
REMARK    8  A    between atoms: C_8  and  N_11 
REMARK    9  A    between atoms: C_9  and  C_14 
REMARK       I    between atoms: N_11  and  C_13 
REMARK   10  A    between atoms: C_14  and  C_26 
REMARK       I    between atoms: C_15  and  N_24 
REMARK   11  A    between atoms: N_24  and  C_26 
ROOT
HETATM    1  C           1     -21.881  -4.855  -8.138  0.00  0.00     0.185 C 
ENDROOT
BRANCH   1   2
HETATM    2  C           1     -23.085  -3.965  -8.416  0.00  0.00     0.038 C 
BRANCH   2   3
HETATM    3  C           1     -23.838  -4.491  -9.631  0.00  0.00     0.023 C 
BRANCH   3   4
HETATM    4  C           1     -23.987  -3.376 -10.658  0.00  0.00     0.138 C 
BRANCH   4   5
HETATM    5  N           1     -22.989  -3.552 -11.722  0.00  0.00    -0.227 N 
HETATM    6  H           1     -22.117  -4.106 -11.538  0.00  0.00     0.177 HD
HETATM    7  C           1     -23.181  -3.035 -12.862  0.00  0.00     0.665 C 
HETATM    8  N           1     -22.298  -3.190 -13.804  0.00  0.00    -0.235 N 
HETATM    9  N           1     -24.233  -2.367 -13.085  0.00  0.00    -0.235 N 
HETATM   10  H           1     -21.430  -3.742 -13.619  0.00  0.00     0.174 HD
HETATM   11  H           1     -22.457  -2.764 -14.744  0.00  0.00     0.174 HD
HETATM   12  H           1     -24.392  -1.939 -14.030  0.00  0.00     0.174 HD
HETATM   13  H           1     -24.946  -2.241 -12.325  0.00  0.00     0.174 HD
ENDBRANCH   4   5
ENDBRANCH   3   4
ENDBRANCH   2   3
ENDBRANCH   1   2
BRANCH   1  14
HETATM   14  C           1     -20.653  -4.257  -8.777  0.00  0.00     0.196 C 
HETATM   15  O           1     -20.503  -4.310 -10.017  0.00  0.00    -0.646 OA
HETATM   16  O           1     -19.784  -3.707  -8.067  0.00  0.00    -0.646 OA
ENDBRANCH   1  14
BRANCH   1  17
HETATM   17  N           1     -21.678  -4.960  -6.707  0.00  0.00    -0.345 N 
HETATM   18  H           1     -21.833  -4.155  -6.113  0.00  0.00     0.163 HD
HETATM   19  C           1     -21.278  -6.149  -6.156  0.00  0.00     0.249 C 
HETATM   20  O           1     -21.094  -7.109  -6.865  0.00  0.00    -0.271 OA
BRANCH  19  21
HETATM   21  C           1     -21.067  -6.258  -4.666  0.00  0.00     0.275 C 
BRANCH  21  22
HETATM   22  C           1     -20.480  -7.622  -4.335  0.00  0.00     0.053 C 
BRANCH  22  23
HETATM   23  C           1     -21.373  -8.329  -3.322  0.00  0.00     0.076 C 
BRANCH  23  24
HETATM   24  S           1     -20.563  -8.332  -1.698  0.00  0.00    -0.173 SA
HETATM   25  C           1     -22.088  -8.375  -0.715  0.00  0.00     0.089 C 
ENDBRANCH  23  24
ENDBRANCH  22  23
ENDBRANCH  21  22
BRANCH  21  26
HETATM   26  N           1     -22.382  -6.096  -3.963  0.00  0.00    -0.066 N 
HETATM   27  H           1     -22.398  -5.179  -3.461  0.00  0.00     0.275 HD
HETATM   28  H           1     -23.157  -6.121  -4.663  0.00  0.00     0.275 HD
HETATM   29  H           1     -22.507  -6.872  -3.274  0.00  0.00     0.275 HD
ENDBRANCH  21  26
ENDBRANCH  19  21
ENDBRANCH   1  17
TORSDOF 11
ENDMDL
MODEL 3
REMARK VINA RESULT:      -6.3      1.876      2.946
REMARK  11 active torsions:
REMARK  status: ('A' for Active; 'I' for Inactive)
REMARK    1  A    between atoms: C_2  and  C_13 
REMARK    2  A    between atoms: C_2  and  C_18 
REMARK    3  A    between atoms: C_2  and  N_7 
REMARK       I    between atoms: N_5  and  C_15 
REMARK    4  A    between atoms: C_6  and  C_18 
REMARK    5  A    between atoms: C_6  and  S_19 
REMARK    6  A    between atoms: C_8  and  C_9 
REMARK    7  A    between atoms: C_8  and  C_17 
REMARK    8  A    between atoms: C_8  and  N_11 
REMARK    9  A    between atoms: C_9  and  C_14 
REMARK       I    between atoms: N_11  and  C_13 
REMARK   10  A    between atoms: C_14  and  C_26 
REMARK       I    between atoms: C_15  and  N_24 
REMARK   11  A    between atoms: N_24  and  C_26 
ROOT
HETATM    1  C           1     -29.529  -6.980 -17.752  0.00  0.00     0.185 C 
ENDROOT
BRANCH   1   2
HETATM    2  C           1     -30.220  -5.629 -17.882  0.00  0.00     0.038 C 
BRANCH   2   3
HETATM    3  C           1     -30.844  -5.246 -16.547  0.00  0.00     0.023 C 
BRANCH   3   4
HETATM    4  C           1     -32.065  -4.369 -16.789  0.00  0.00     0.138 C 
BRANCH   4   5
HETATM    5  N           1     -33.283  -5.187 -16.700  0.00  0.00    -0.227 N 
HETATM    6  H           1     -33.468  -5.932 -17.416  0.00  0.00     0.177 HD
HETATM    7  C           1     -34.108  -4.993 -15.759  0.00  0.00     0.665 C 
HETATM    8  N           1     -35.185  -5.717 -15.680  0.00  0.00    -0.235 N 
HETATM    9  N           1     -33.885  -4.095 -14.896  0.00  0.00    -0.235 N 
HETATM   10  H           1     -35.370  -6.458 -16.393  0.00  0.00     0.174 HD
HETATM   11  H           1     -35.866  -5.557 -14.904  0.00  0.00     0.174 HD
HETATM   12  H           1     -34.569  -3.934 -14.116  0.00  0.00     0.174 HD
HETATM   13  H           1     -33.015  -3.511 -14.960  0.00  0.00     0.174 HD
ENDBRANCH   4   5
ENDBRANCH   3   4
ENDBRANCH   2   3
ENDBRANCH   1   2
BRANCH   1  14
HETATM   14  C           1     -30.201  -7.979 -18.662  0.00  0.00     0.196 C 
HETATM   15  O           1     -31.448  -8.024 -18.727  0.00  0.00    -0.646 OA
HETATM   16  O           1     -29.510  -8.761 -19.350  0.00  0.00    -0.646 OA
ENDBRANCH   1  14
BRANCH   1  17
HETATM   17  N           1     -28.135  -6.847 -18.127  0.00  0.00    -0.345 N 
HETATM   18  H           1     -27.843  -7.053 -19.074  0.00  0.00     0.163 HD
HETATM   19  C           1     -27.212  -6.442 -17.200  0.00  0.00     0.249 C 
HETATM   20  O           1     -27.560  -6.196 -16.070  0.00  0.00    -0.271 OA
BRANCH  19  21
HETATM   21  C           1     -25.760  -6.303 -17.589  0.00  0.00     0.275 C 
BRANCH  21  22
HETATM   22  C           1     -25.592  -6.664 -19.058  0.00  0.00     0.053 C 
BRANCH  22  23
HETATM   23  C           1     -24.165  -7.139 -19.305  0.00  0.00     0.076 C 
BRANCH  23  24
HETATM   24  S           1     -24.090  -8.038 -20.880  0.00  0.00    -0.173 SA
HETATM   25  C           1     -25.881  -8.076 -21.171  0.00  0.00     0.089 C 
ENDBRANCH  23  24
ENDBRANCH  22  23
ENDBRANCH  21  22
BRANCH  21  26
HETATM   26  N           1     -24.928  -7.226 -16.749  0.00  0.00    -0.066 N 
HETATM   27  H           1     -25.536  -7.976 -16.348  0.00  0.00     0.275 HD
HETATM   28  H           1     -24.185  -7.661 -17.341  0.00  0.00     0.275 HD
HETATM   29  H           1     -24.485  -6.685 -15.972  0.00  0.00     0.275 HD
ENDBRANCH  21  26
ENDBRANCH  19  21
ENDBRANCH   1  17
TORSDOF 11
ENDMDL
MODEL 4
REMARK VINA RESULT:      -6.2     12.835     15.170
REMARK  11 active torsions:
REMARK  status: ('A' for Active; 'I' for Inactive)
REMARK    1  A    between atoms: C_2  and  C_13 
REMARK    2  A    between atoms: C_2  and  C_18 
REMARK    3  A    between atoms: C_2  and  N_7 
REMARK       I    between atoms: N_5  and  C_15 
REMARK    4  A    between atoms: C_6  and  C_18 
REMARK    5  A    between atoms: C_6  and  S_19 
REMARK    6  A    between atoms: C_8  and  C_9 
REMARK    7  A    between atoms: C_8  and  C_17 
REMARK    8  A    between atoms: C_8  and  N_11 
REMARK    9  A    between atoms: C_9  and  C_14 
REMARK       I    between atoms: N_11  and  C_13 
REMARK   10  A    between atoms: C_14  and  C_26 
REMARK       I    between atoms: C_15  and  N_24 
REMARK   11  A    between atoms: N_24  and  C_26 
ROOT
HETATM    1  C           1     -21.262  -5.354  -6.695  0.00  0.00     0.185 C 
ENDROOT
BRANCH   1   2
HETATM    2  C           1     -21.785  -4.012  -7.191  0.00  0.00     0.038 C 
BRANCH   2   3
HETATM    3  C           1     -23.085  -4.222  -7.954  0.00  0.00     0.023 C 
BRANCH   3   4
HETATM    4  C           1     -22.772  -4.615  -9.392  0.00  0.00     0.138 C 
BRANCH   4   5
HETATM    5  N           1     -21.693  -3.763  -9.911  0.00  0.00    -0.227 N 
HETATM    6  H           1     -21.149  -3.148  -9.256  0.00  0.00     0.177 HD
HETATM    7  C           1     -21.420  -3.770 -11.147  0.00  0.00     0.665 C 
HETATM    8  N           1     -20.465  -3.016 -11.606  0.00  0.00    -0.235 N 
HETATM    9  N           1     -22.075  -4.511 -11.936  0.00  0.00    -0.235 N 
HETATM   10  H           1     -19.924  -2.404 -10.954  0.00  0.00     0.174 HD
HETATM   11  H           1     -20.239  -3.022 -12.626  0.00  0.00     0.174 HD
HETATM   12  H           1     -21.848  -4.517 -12.961  0.00  0.00     0.174 HD
HETATM   13  H           1     -22.846  -5.120 -11.566  0.00  0.00     0.174 HD
ENDBRANCH   4   5
ENDBRANCH   3   4
ENDBRANCH   2   3
ENDBRANCH   1   2
BRANCH   1  14
HETATM   14  C           1     -19.963  -5.677  -7.390  0.00  0.00     0.196 C 
HETATM   15  O           1     -19.443  -4.842  -8.162  0.00  0.00    -0.646 OA
HETATM   16  O           1     -19.406  -6.778  -7.194  0.00  0.00    -0.646 OA
ENDBRANCH   1  14
BRANCH   1  17
HETATM   17  N           1     -21.041  -5.287  -5.264  0.00  0.00    -0.345 N 
HETATM   18  H           1     -20.557  -4.494  -4.863  0.00  0.00     0.163 HD
HETATM   19  C           1     -21.489  -6.297  -4.453  0.00  0.00     0.249 C 
HETATM   20  O           1     -22.067  -7.242  -4.932  0.00  0.00    -0.271 OA
BRANCH  19  21
HETATM   21  C           1     -21.258  -6.227  -2.964  0.00  0.00     0.275 C 
BRANCH  21  22
HETATM   22  C           1     -20.737  -7.568  -2.467  0.00  0.00     0.053 C 
BRANCH  22  23
HETATM   23  C           1     -21.864  -8.328  -1.777  0.00  0.00     0.076 C 
BRANCH  23  24
HETATM   24  S           1     -21.214  -9.169  -0.305  0.00  0.00    -0.173 SA
HETATM   25  C           1     -22.664 -10.222  -0.022  0.00  0.00     0.089 C 
ENDBRANCH  23  24
ENDBRANCH  22  23
ENDBRANCH  21  22
BRANCH  21  26
HETATM   26  N           1     -22.551  -5.907  -2.274  0.00  0.00    -0.066 N 
HETATM   27  H           1     -22.592  -4.883  -2.068  0.00  0.00     0.275 HD
HETATM   28  H           1     -23.351  -6.168  -2.893  0.00  0.00     0.275 HD
HETATM   29  H           1     -22.611  -6.444  -1.379  0.00  0.00     0.275 HD
ENDBRANCH  21  26
ENDBRANCH  19  21
ENDBRANCH   1  17
TORSDOF 11
ENDMDL
MODEL 5
REMARK VINA RESULT:      -6.1     13.517     15.452
REMARK  11 active torsions:
REMARK  status: ('A' for Active; 'I' for Inactive)
REMARK    1  A    between atoms: C_2  and  C_13 
REMARK    2  A    between atoms: C_2  and  C_18 
REMARK    3  A    between atoms: C_2  and  N_7 
REMARK       I    between atoms: N_5  and  C_15 
REMARK    4  A    between atoms: C_6  and  C_18 
REMARK    5  A    between atoms: C_6  and  S_19 
REMARK    6  A    between atoms: C_8  and  C_9 
REMARK    7  A    between atoms: C_8  and  C_17 
REMARK    8  A    between atoms: C_8  and  N_11 
REMARK    9  A    between atoms: C_9  and  C_14 
REMARK       I    between atoms: N_11  and  C_13 
REMARK   10  A    between atoms: C_14  and  C_26 
REMARK       I    between atoms: C_15  and  N_24 
REMARK   11  A    between atoms: N_24  and  C_26 
ROOT
HETATM    1  C           1     -21.222  -6.800  -4.617  0.00  0.00     0.185 C 
ENDROOT
BRANCH   1   2
HETATM    2  C           1     -22.258  -6.395  -3.578  0.00  0.00     0.038 C 
BRANCH   2   3
HETATM    3  C           1     -21.560  -6.063  -2.265  0.00  0.00     0.023 C 
BRANCH   3   4
HETATM    4  C           1     -22.345  -6.664  -1.106  0.00  0.00     0.138 C 
BRANCH   4   5
HETATM    5  N           1     -22.075  -8.107  -1.026  0.00  0.00    -0.227 N 
HETATM    6  H           1     -21.363  -8.544  -1.662  0.00  0.00     0.177 HD
HETATM    7  C           1     -22.702  -8.823  -0.190  0.00  0.00     0.665 C 
HETATM    8  N           1     -22.463 -10.099  -0.119  0.00  0.00    -0.235 N 
HETATM    9  N           1     -23.560  -8.296   0.576  0.00  0.00    -0.235 N 
HETATM   10  H           1     -21.755 -10.533  -0.752  0.00  0.00     0.174 HD
HETATM   11  H           1     -22.981 -10.689   0.571  0.00  0.00     0.174 HD
HETATM   12  H           1     -24.080  -8.889   1.269  0.00  0.00     0.174 HD
HETATM   13  H           1     -23.753  -7.265   0.519  0.00  0.00     0.174 HD
ENDBRANCH   4   5
ENDBRANCH   3   4
ENDBRANCH   2   3
ENDBRANCH   1   2
BRANCH   1  14
HETATM   14  C           1     -21.364  -8.270  -4.924  0.00  0.00     0.196 C 
HETATM   15  O           1     -21.712  -9.066  -4.024  0.00  0.00    -0.646 OA
HETATM   16  O           1     -21.133  -8.694  -6.076  0.00  0.00    -0.646 OA
ENDBRANCH   1  14
BRANCH   1  17
HETATM   17  N           1     -21.428  -6.032  -5.829  0.00  0.00    -0.345 N 
HETATM   18  H           1     -22.103  -6.342  -6.516  0.00  0.00     0.163 HD
HETATM   19  C           1     -20.710  -4.886  -6.045  0.00  0.00     0.249 C 
HETATM   20  O           1     -19.905  -4.516  -5.225  0.00  0.00    -0.271 OA
BRANCH  19  21
HETATM   21  C           1     -20.925  -4.086  -7.306  0.00  0.00     0.275 C 
BRANCH  21  22
HETATM   22  C           1     -22.022  -4.734  -8.138  0.00  0.00     0.053 C 
BRANCH  22  23
HETATM   23  C           1     -22.596  -3.709  -9.109  0.00  0.00     0.076 C 
BRANCH  23  24
HETATM   24  S           1     -22.563  -4.387 -10.793  0.00  0.00    -0.173 SA
HETATM   25  C           1     -21.858  -2.915 -11.586  0.00  0.00     0.089 C 
ENDBRANCH  23  24
ENDBRANCH  22  23
ENDBRANCH  21  22
BRANCH  21  26
HETATM   26  N           1     -19.651  -4.053  -8.098  0.00  0.00    -0.066 N 
HETATM   27  H           1     -19.480  -3.081  -8.443  0.00  0.00     0.275 HD
HETATM   28  H           1     -18.855  -4.350  -7.491  0.00  0.00     0.275 HD
HETATM   29  H           1     -19.731  -4.702  -8.914  0.00  0.00     0.275 HD
ENDBRANCH  21  26
ENDBRANCH  19  21
ENDBRANCH   1  17
TORSDOF 11
ENDMDL
MODEL 6
REMARK VINA RESULT:      -6.0     13.641     15.519
REMARK  11 active torsions:
REMARK  status: ('A' for Active; 'I' for Inactive)
REMARK    1  A    between atoms: C_2  and  C_13 
REMARK    2  A    between atoms: C_2  and  C_18 
REMARK    3  A    between atoms: C_2  and  N_7 
REMARK       I    between atoms: N_5  and  C_15 
REMARK    4  A    between atoms: C_6  and  C_18 
REMARK    5  A    between atoms: C_6  and  S_19 
REMARK    6  A    between atoms: C_8  and  C_9 
REMARK    7  A    between atoms: C_8  and  C_17 
REMARK    8  A    between atoms: C_8  and  N_11 
REMARK    9  A    between atoms: C_9  and  C_14 
REMARK       I    between atoms: N_11  and  C_13 
REMARK   10  A    between atoms: C_14  and  C_26 
REMARK       I    between atoms: C_15  and  N_24 
REMARK   11  A    between atoms: N_24  and  C_26 
ROOT
HETATM    1  C           1     -20.572  -7.697  -4.609  0.00  0.00     0.185 C 
ENDROOT
BRANCH   1   2
HETATM    2  C           1     -20.573  -7.298  -3.139  0.00  0.00     0.038 C 
BRANCH   2   3
HETATM    3  C           1     -21.751  -6.373  -2.863  0.00  0.00     0.023 C 
BRANCH   3   4
HETATM    4  C           1     -22.311  -6.664  -1.477  0.00  0.00     0.138 C 
BRANCH   4   5
HETATM    5  N           1     -21.997  -8.050  -1.101  0.00  0.00    -0.227 N 
HETATM    6  H           1     -21.259  -8.582  -1.625  0.00  0.00     0.177 HD
HETATM    7  C           1     -22.617  -8.603  -0.145  0.00  0.00     0.665 C 
HETATM    8  N           1     -22.340  -9.828   0.187  0.00  0.00    -0.235 N 
HETATM    9  N           1     -23.507  -7.962   0.486  0.00  0.00    -0.235 N 
HETATM   10  H           1     -21.605 -10.357  -0.334  0.00  0.00     0.174 HD
HETATM   11  H           1     -22.851 -10.284   0.976  0.00  0.00     0.174 HD
HETATM   12  H           1     -24.021  -8.420   1.279  0.00  0.00     0.174 HD
HETATM   13  H           1     -23.731  -6.971   0.218  0.00  0.00     0.174 HD
ENDBRANCH   4   5
ENDBRANCH   3   4
ENDBRANCH   2   3
ENDBRANCH   1   2
BRANCH   1  14
HETATM   14  C           1     -21.180  -9.069  -4.759  0.00  0.00     0.196 C 
HETATM   15  O           1     -21.098  -9.674  -5.849  0.00  0.00    -0.646 OA
HETATM   16  O           1     -21.766  -9.601  -3.792  0.00  0.00    -0.646 OA
ENDBRANCH   1  14
BRANCH   1  17
HETATM   17  N           1     -21.350  -6.738  -5.369  0.00  0.00    -0.345 N 
HETATM   18  H           1     -22.254  -6.437  -5.030  0.00  0.00     0.163 HD
HETATM   19  C           1     -20.861  -6.240  -6.548  0.00  0.00     0.249 C 
HETATM   20  O           1     -19.782  -6.599  -6.953  0.00  0.00    -0.271 OA
BRANCH  19  21
HETATM   21  C           1     -21.671  -5.243  -7.340  0.00  0.00     0.275 C 
BRANCH  21  22
HETATM   22  C           1     -20.783  -4.076  -7.747  0.00  0.00     0.053 C 
BRANCH  22  23
HETATM   23  C           1     -20.615  -4.070  -9.262  0.00  0.00     0.076 C 
BRANCH  23  24
HETATM   24  S           1     -22.243  -3.924 -10.051  0.00  0.00    -0.173 SA
HETATM   25  C           1     -21.666  -3.053 -11.535  0.00  0.00     0.089 C 
ENDBRANCH  23  24
ENDBRANCH  22  23
ENDBRANCH  21  22
BRANCH  21  26
HETATM   26  N           1     -22.804  -4.738  -6.496  0.00  0.00    -0.066 N 
HETATM   27  H           1     -23.683  -5.238  -6.757  0.00  0.00     0.275 HD
HETATM   28  H           1     -22.592  -4.912  -5.488  0.00  0.00     0.275 HD
HETATM   29  H           1     -22.927  -3.712  -6.655  0.00  0.00     0.275 HD
ENDBRANCH  21  26
ENDBRANCH  19  21
ENDBRANCH   1  17
TORSDOF 11
ENDMDL
MODEL 7
REMARK VINA RESULT:      -5.9     13.180     14.945
REMARK  11 active torsions:
REMARK  status: ('A' for Active; 'I' for Inactive)
REMARK    1  A    between atoms: C_2  and  C_13 
REMARK    2  A    between atoms: C_2  and  C_18 
REMARK    3  A    between atoms: C_2  and  N_7 
REMARK       I    between atoms: N_5  and  C_15 
REMARK    4  A    between atoms: C_6  and  C_18 
REMARK    5  A    between atoms: C_6  and  S_19 
REMARK    6  A    between atoms: C_8  and  C_9 
REMARK    7  A    between atoms: C_8  and  C_17 
REMARK    8  A    between atoms: C_8  and  N_11 
REMARK    9  A    between atoms: C_9  and  C_14 
REMARK       I    between atoms: N_11  and  C_13 
REMARK   10  A    between atoms: C_14  and  C_26 
REMARK       I    between atoms: C_15  and  N_24 
REMARK   11  A    between atoms: N_24  and  C_26 
ROOT
HETATM    1  C           1     -20.642  -6.811  -5.386  0.00  0.00     0.185 C 
ENDROOT
BRANCH   1   2
HETATM    2  C           1     -20.474  -6.145  -6.745  0.00  0.00     0.038 C 
BRANCH   2   3
HETATM    3  C           1     -19.948  -4.728  -6.557  0.00  0.00     0.023 C 
BRANCH   3   4
HETATM    4  C           1     -20.578  -3.809  -7.595  0.00  0.00     0.138 C 
BRANCH   4   5
HETATM    5  N           1     -22.039  -3.815  -7.433  0.00  0.00    -0.227 N 
HETATM    6  H           1     -22.463  -3.689  -6.481  0.00  0.00     0.177 HD
HETATM    7  C           1     -22.787  -3.971  -8.443  0.00  0.00     0.665 C 
HETATM    8  N           1     -24.079  -3.976  -8.301  0.00  0.00    -0.235 N 
HETATM    9  N           1     -22.277  -4.123  -9.592  0.00  0.00    -0.235 N 
HETATM   10  H           1     -24.500  -3.851  -7.352  0.00  0.00     0.174 HD
HETATM   11  H           1     -24.696  -4.105  -9.134  0.00  0.00     0.174 HD
HETATM   12  H           1     -22.897  -4.252 -10.429  0.00  0.00     0.174 HD
HETATM   13  H           1     -21.233  -4.119  -9.707  0.00  0.00     0.174 HD
ENDBRANCH   4   5
ENDBRANCH   3   4
ENDBRANCH   2   3
ENDBRANCH   1   2
BRANCH   1  14
HETATM   14  C           1     -21.857  -6.244  -4.695  0.00  0.00     0.196 C 
HETATM   15  O           1     -22.893  -6.001  -5.350  0.00  0.00    -0.646 OA
HETATM   16  O           1     -21.829  -6.018  -3.466  0.00  0.00    -0.646 OA
ENDBRANCH   1  14
BRANCH   1  17
HETATM   17  N           1     -20.811  -8.239  -5.566  0.00  0.00    -0.345 N 
HETATM   18  H           1     -21.475  -8.589  -6.244  0.00  0.00     0.163 HD
HETATM   19  C           1     -20.069  -9.116  -4.819  0.00  0.00     0.249 C 
HETATM   20  O           1     -19.276  -8.698  -4.011  0.00  0.00    -0.271 OA
BRANCH  19  21
HETATM   21  C           1     -20.245 -10.603  -5.006  0.00  0.00     0.275 C 
BRANCH  21  22
HETATM   22  C           1     -19.281 -11.347  -4.093  0.00  0.00     0.053 C 
BRANCH  22  23
HETATM   23  C           1     -18.148 -11.939  -4.923  0.00  0.00     0.076 C 
BRANCH  23  24
HETATM   24  S           1     -16.573 -11.191  -4.417  0.00  0.00    -0.173 SA
HETATM   25  C           1     -16.466 -10.008  -5.790  0.00  0.00     0.089 C 
ENDBRANCH  23  24
ENDBRANCH  22  23
ENDBRANCH  21  22
BRANCH  21  26
HETATM   26  N           1     -19.960 -10.963  -6.434  0.00  0.00    -0.066 N 
HETATM   27  H           1     -19.900 -12.002  -6.527  0.00  0.00     0.275 HD
HETATM   28  H           1     -20.728 -10.604  -7.044  0.00  0.00     0.275 HD
HETATM   29  H           1     -19.052 -10.536  -6.727  0.00  0.00     0.275 HD
ENDBRANCH  21  26
ENDBRANCH  19  21
ENDBRANCH   1  17
TORSDOF 11
ENDMDL
MODEL 8
REMARK VINA RESULT:      -5.9     12.506     14.622
REMARK  11 active torsions:
REMARK  status: ('A' for Active; 'I' for Inactive)
REMARK    1  A    between atoms: C_2  and  C_13 
REMARK    2  A    between atoms: C_2  and  C_18 
REMARK    3  A    between atoms: C_2  and  N_7 
REMARK       I    between atoms: N_5  and  C_15 
REMARK    4  A    between atoms: C_6  and  C_18 
REMARK    5  A    between atoms: C_6  and  S_19 
REMARK    6  A    between atoms: C_8  and  C_9 
REMARK    7  A    between atoms: C_8  and  C_17 
REMARK    8  A    between atoms: C_8  and  N_11 
REMARK    9  A    between atoms: C_9  and  C_14 
REMARK       I    between atoms: N_11  and  C_13 
REMARK   10  A    between atoms: C_14  and  C_26 
REMARK       I    between atoms: C_15  and  N_24 
REMARK   11  A    between atoms: N_24  and  C_26 
ROOT
HETATM    1  C           1     -20.487  -5.878  -7.249  0.00  0.00     0.185 C 
ENDROOT
BRANCH   1   2
HETATM    2  C           1     -21.406  -5.318  -8.327  0.00  0.00     0.038 C 
BRANCH   2   3
HETATM    3  C           1     -22.469  -4.439  -7.683  0.00  0.00     0.023 C 
BRANCH   3   4
HETATM    4  C           1     -23.465  -3.987  -8.743  0.00  0.00     0.138 C 
BRANCH   4   5
HETATM    5  N           1     -23.114  -4.590 -10.037  0.00  0.00    -0.227 N 
HETATM    6  H           1     -22.319  -5.274 -10.099  0.00  0.00     0.177 HD
HETATM    7  C           1     -23.770  -4.286 -11.077  0.00  0.00     0.665 C 
HETATM    8  N           1     -23.459  -4.820 -12.220  0.00  0.00    -0.235 N 
HETATM    9  N           1     -24.728  -3.462 -11.002  0.00  0.00    -0.235 N 
HETATM   10  H           1     -22.668  -5.500 -12.281  0.00  0.00     0.174 HD
HETATM   11  H           1     -24.000  -4.568 -13.078  0.00  0.00     0.174 HD
HETATM   12  H           1     -25.271  -3.210 -11.864  0.00  0.00     0.174 HD
HETATM   13  H           1     -24.978  -3.031 -10.078  0.00  0.00     0.174 HD
ENDBRANCH   4   5
ENDBRANCH   3   4
ENDBRANCH   2   3
ENDBRANCH   1   2
BRANCH   1  14
HETATM   14  C           1     -19.565  -4.790  -6.758  0.00  0.00     0.196 C 
HETATM   15  O           1     -18.717  -4.293  -7.530  0.00  0.00    -0.646 OA
HETATM   16  O           1     -19.649  -4.386  -5.578  0.00  0.00    -0.646 OA
ENDBRANCH   1  14
BRANCH   1  17
HETATM   17  N           1     -21.285  -6.372  -6.144  0.00  0.00    -0.345 N 
HETATM   18  H           1     -22.122  -5.878  -5.864  0.00  0.00     0.163 HD
HETATM   19  C           1     -20.906  -7.508  -5.479  0.00  0.00     0.249 C 
HETATM   20  O           1     -19.907  -8.097  -5.814  0.00  0.00    -0.271 OA
BRANCH  19  21
HETATM   21  C           1     -21.736  -8.021  -4.328  0.00  0.00     0.275 C 
BRANCH  21  22
HETATM   22  C           1     -21.295  -7.341  -3.040  0.00  0.00     0.053 C 
BRANCH  22  23
HETATM   23  C           1     -20.495  -8.324  -2.193  0.00  0.00     0.076 C 
BRANCH  23  24
HETATM   24  S           1     -21.302  -8.529  -0.580  0.00  0.00    -0.173 SA
HETATM   25  C           1     -22.399  -7.090  -0.723  0.00  0.00     0.089 C 
ENDBRANCH  23  24
ENDBRANCH  22  23
ENDBRANCH  21  22
BRANCH  21  26
HETATM   26  N           1     -21.548  -9.504  -4.200  0.00  0.00    -0.066 N 
HETATM   27  H           1     -21.542  -9.938  -5.151  0.00  0.00     0.275 HD
HETATM   28  H           1     -20.639  -9.700  -3.724  0.00  0.00     0.275 HD
HETATM   29  H           1     -22.331  -9.907  -3.638  0.00  0.00     0.275 HD
ENDBRANCH  21  26
ENDBRANCH  19  21
ENDBRANCH   1  17
TORSDOF 11
ENDMDL
MODEL 9
REMARK VINA RESULT:      -5.8     11.626     13.861
REMARK  11 active torsions:
REMARK  status: ('A' for Active; 'I' for Inactive)
REMARK    1  A    between atoms: C_2  and  C_13 
REMARK    2  A    between atoms: C_2  and  C_18 
REMARK    3  A    between atoms: C_2  and  N_7 
REMARK       I    between atoms: N_5  and  C_15 
REMARK    4  A    between atoms: C_6  and  C_18 
REMARK    5  A    between atoms: C_6  and  S_19 
REMARK    6  A    between atoms: C_8  and  C_9 
REMARK    7  A    between atoms: C_8  and  C_17 
REMARK    8  A    between atoms: C_8  and  N_11 
REMARK    9  A    between atoms: C_9  and  C_14 
REMARK       I    between atoms: N_11  and  C_13 
REMARK   10  A    between atoms: C_14  and  C_26 
REMARK       I    between atoms: C_15  and  N_24 
REMARK   11  A    between atoms: N_24  and  C_26 
ROOT
HETATM    1  C           1     -21.546  -4.931  -8.196  0.00  0.00     0.185 C 
ENDROOT
BRANCH   1   2
HETATM    2  C           1     -22.750  -4.453  -8.999  0.00  0.00     0.038 C 
BRANCH   2   3
HETATM    3  C           1     -22.275  -3.621 -10.182  0.00  0.00     0.023 C 
BRANCH   3   4
HETATM    4  C           1     -21.994  -4.537 -11.367  0.00  0.00     0.138 C 
BRANCH   4   5
HETATM    5  N           1     -21.807  -3.728 -12.580  0.00  0.00    -0.227 N 
HETATM    6  H           1     -20.873  -3.293 -12.782  0.00  0.00     0.177 HD
HETATM    7  C           1     -22.774  -3.555 -13.380  0.00  0.00     0.665 C 
HETATM    8  N           1     -22.608  -2.839 -14.453  0.00  0.00    -0.235 N 
HETATM    9  N           1     -23.900  -4.078 -13.136  0.00  0.00    -0.235 N 
HETATM   10  H           1     -21.679  -2.407 -14.654  0.00  0.00     0.174 HD
HETATM   11  H           1     -23.405  -2.696 -15.113  0.00  0.00     0.174 HD
HETATM   12  H           1     -24.700  -3.935 -13.800  0.00  0.00     0.174 HD
HETATM   13  H           1     -24.033  -4.656 -12.269  0.00  0.00     0.174 HD
ENDBRANCH   4   5
ENDBRANCH   3   4
ENDBRANCH   2   3
ENDBRANCH   1   2
BRANCH   1  14
HETATM   14  C           1     -20.697  -3.746  -7.809  0.00  0.00     0.196 C 
HETATM   15  O           1     -21.155  -2.872  -7.042  0.00  0.00    -0.646 OA
HETATM   16  O           1     -19.534  -3.639  -8.255  0.00  0.00    -0.646 OA
ENDBRANCH   1  14
BRANCH   1  17
HETATM   17  N           1     -22.003  -5.610  -6.999  0.00  0.00    -0.345 N 
HETATM   18  H           1     -22.928  -5.422  -6.633  0.00  0.00     0.163 HD
HETATM   19  C           1     -21.184  -6.505  -6.365  0.00  0.00     0.249 C 
HETATM   20  O           1     -20.082  -6.729  -6.803  0.00  0.00    -0.271 OA
BRANCH  19  21
HETATM   21  C           1     -21.659  -7.212  -5.119  0.00  0.00     0.275 C 
BRANCH  21  22
HETATM   22  C           1     -21.070  -6.530  -3.892  0.00  0.00     0.053 C 
BRANCH  22  23
HETATM   23  C           1     -22.031  -6.677  -2.718  0.00  0.00     0.076 C 
BRANCH  23  24
HETATM   24  S           1     -21.342  -7.849  -1.515  0.00  0.00    -0.173 SA
HETATM   25  C           1     -22.542  -7.509  -0.198  0.00  0.00     0.089 C 
ENDBRANCH  23  24
ENDBRANCH  22  23
ENDBRANCH  21  22
BRANCH  21  26
HETATM   26  N           1     -21.215  -8.644  -5.157  0.00  0.00    -0.066 N 
HETATM   27  H           1     -22.047  -9.269  -5.064  0.00  0.00     0.275 HD
HETATM   28  H           1     -20.736  -8.836  -6.066  0.00  0.00     0.275 HD
HETATM   29  H           1     -20.554  -8.825  -4.368  0.00  0.00     0.275 HD
ENDBRANCH  21  26
ENDBRANCH  19  21
ENDBRANCH   1  17
TORSDOF 11
ENDMDL
