MODEL 1
REMARK VINA RESULT:      -7.4      0.000      0.000
REMARK  8 active torsions:
REMARK  status: ('A' for Active; 'I' for Inactive)
REMARK    1  A    between atoms: N_7  and  C_9 
REMARK    2  A    between atoms: C_9  and  C_10 
REMARK       I    between atoms: C_10  and  N_11 
REMARK    3  A    between atoms: N_11  and  C_21 
REMARK    4  A    between atoms: C_14  and  C_21 
REMARK       I    between atoms: N_18  and  C_20 
REMARK    5  A    between atoms: N_18  and  C_24 
REMARK       I    between atoms: N_19  and  C_20 
REMARK    6  A    between atoms: C_21  and  C_22 
REMARK    7  A    between atoms: C_22  and  C_23 
REMARK    8  A    between atoms: C_23  and  C_24 
ROOT
HETATM    1  C           1     -22.674  -3.707  -9.640  0.00  0.00     0.185 C 
ENDROOT
BRANCH   1   2
HETATM    2  N           1     -22.163  -4.725  -8.741  0.00  0.00    -0.345 N 
HETATM    3  C           1     -21.561  -4.362  -7.567  0.00  0.00     0.248 C 
HETATM    4  O           1     -21.455  -3.194  -7.278  0.00  0.00    -0.271 OA
HETATM    5  H           1     -22.252  -5.703  -8.983  0.00  0.00     0.163 HD
BRANCH   3   6
HETATM    6  C           1     -21.029  -5.421  -6.633  0.00  0.00     0.270 C 
HETATM    7  C           1     -20.315  -4.755  -5.464  0.00  0.00     0.050 C 
BRANCH   6   8
HETATM    8  N           1     -20.067  -6.302  -7.371  0.00  0.00    -0.067 N 
HETATM    9  H           1     -19.092  -6.087  -7.065  0.00  0.00     0.275 HD
HETATM   10  H           1     -20.284  -7.303  -7.167  0.00  0.00     0.275 HD
HETATM   11  H           1     -20.155  -6.128  -8.399  0.00  0.00     0.275 HD
ENDBRANCH   6   8
ENDBRANCH   3   6
ENDBRANCH   1   2
BRANCH   1  12
HETATM   12  C           1     -24.177  -3.819  -9.722  0.00  0.00     0.196 C 
HETATM   13  O           1     -24.706  -4.915 -10.008  0.00  0.00    -0.646 OA
HETATM   14  O           1     -24.891  -2.817  -9.505  0.00  0.00    -0.646 OA
ENDBRANCH   1  12
BRANCH   1  15
HETATM   15  C           1     -22.072  -3.906 -11.024  0.00  0.00     0.038 C 
BRANCH  15  16
HETATM   16  C           1     -22.309  -2.658 -11.865  0.00  0.00     0.023 C 
BRANCH  16  17
HETATM   17  C           1     -23.106  -3.028 -13.110  0.00  0.00     0.138 C 
BRANCH  17  18
HETATM   18  N           1     -23.926  -1.881 -13.527  0.00  0.00    -0.227 N 
HETATM   19  H           1     -24.661  -1.499 -12.882  0.00  0.00     0.177 HD
HETATM   20  C           1     -23.745  -1.354 -14.664  0.00  0.00     0.665 C 
HETATM   21  N           1     -22.858  -1.814 -15.441  0.00  0.00    -0.235 N 
HETATM   22  N           1     -24.470  -0.339 -15.033  0.00  0.00    -0.235 N 
HETATM   23  H           1     -22.708  -1.376 -16.385  0.00  0.00     0.174 HD
HETATM   24  H           1     -22.273  -2.633 -15.144  0.00  0.00     0.174 HD
HETATM   25  H           1     -24.321   0.096 -15.971  0.00  0.00     0.174 HD
HETATM   26  H           1     -25.201   0.040 -14.390  0.00  0.00     0.174 HD
ENDBRANCH  17  18
ENDBRANCH  16  17
ENDBRANCH  15  16
ENDBRANCH   1  15
TORSDOF 8
ENDMDL
MODEL 2
REMARK VINA RESULT:      -7.3     11.818     14.088
REMARK  8 active torsions:
REMARK  status: ('A' for Active; 'I' for Inactive)
REMARK    1  A    between atoms: N_7  and  C_9 
REMARK    2  A    between atoms: C_9  and  C_10 
REMARK       I    between atoms: C_10  and  N_11 
REMARK    3  A    between atoms: N_11  and  C_21 
REMARK    4  A    between atoms: C_14  and  C_21 
REMARK       I    between atoms: N_18  and  C_20 
REMARK    5  A    between atoms: N_18  and  C_24 
REMARK       I    between atoms: N_19  and  C_20 
REMARK    6  A    between atoms: C_21  and  C_22 
REMARK    7  A    between atoms: C_22  and  C_23 
REMARK    8  A    between atoms: C_23  and  C_24 
ROOT
HETATM    1  C           1     -34.894  -2.525 -12.157  0.00  0.00     0.185 C 
ENDROOT
BRANCH   1   2
HETATM    2  N           1     -34.800  -1.589 -13.261  0.00  0.00    -0.345 N 
HETATM    3  C           1     -35.896  -0.858 -13.634  0.00  0.00     0.248 C 
HETATM    4  O           1     -36.941  -0.991 -13.043  0.00  0.00    -0.271 OA
HETATM    5  H           1     -33.925  -1.477 -13.756  0.00  0.00     0.163 HD
BRANCH   3   6
HETATM    6  C           1     -35.798   0.116 -14.783  0.00  0.00     0.270 C 
HETATM    7  C           1     -34.874   1.264 -14.398  0.00  0.00     0.050 C 
BRANCH   6   8
HETATM    8  N           1     -37.161   0.655 -15.099  0.00  0.00    -0.067 N 
HETATM    9  H           1     -37.745   0.656 -14.233  0.00  0.00     0.275 HD
HETATM   10  H           1     -37.074   1.630 -15.462  0.00  0.00     0.275 HD
HETATM   11  H           1     -37.614   0.051 -15.823  0.00  0.00     0.275 HD
ENDBRANCH   6   8
ENDBRANCH   3   6
ENDBRANCH   1   2
BRANCH   1  12
HETATM   12  C           1     -34.466  -1.841 -10.882  0.00  0.00     0.196 C 
HETATM   13  O           1     -33.258  -1.819 -10.560  0.00  0.00    -0.646 OA
HETATM   14  O           1     -35.319  -1.297 -10.148  0.00  0.00    -0.646 OA
ENDBRANCH   1  12
BRANCH   1  15
HETATM   15  C           1     -33.985  -3.716 -12.424  0.00  0.00     0.038 C 
BRANCH  15  16
HETATM   16  C           1     -34.755  -5.008 -12.181  0.00  0.00     0.023 C 
BRANCH  16  17
HETATM   17  C           1     -34.455  -5.522 -10.778  0.00  0.00     0.138 C 
BRANCH  17  18
HETATM   18  N           1     -33.758  -6.813 -10.866  0.00  0.00    -0.227 N 
HETATM   19  H           1     -32.910  -6.910 -11.476  0.00  0.00     0.177 HD
HETATM   20  C           1     -34.181  -7.807 -10.206  0.00  0.00     0.665 C 
HETATM   21  N           1     -35.204  -7.689  -9.470  0.00  0.00    -0.235 N 
HETATM   22  N           1     -33.565  -8.949 -10.284  0.00  0.00    -0.235 N 
HETATM   23  H           1     -35.556  -8.514  -8.922  0.00  0.00     0.174 HD
HETATM   24  H           1     -35.702  -6.767  -9.407  0.00  0.00     0.174 HD
HETATM   25  H           1     -33.914  -9.769  -9.740  0.00  0.00     0.174 HD
HETATM   26  H           1     -32.720  -9.046 -10.892  0.00  0.00     0.174 HD
ENDBRANCH  17  18
ENDBRANCH  16  17
ENDBRANCH  15  16
ENDBRANCH   1  15
TORSDOF 8
ENDMDL
MODEL 3
REMARK VINA RESULT:      -6.6      9.133     11.161
REMARK  8 active torsions:
REMARK  status: ('A' for Active; 'I' for Inactive)
REMARK    1  A    between atoms: N_7  and  C_9 
REMARK    2  A    between atoms: C_9  and  C_10 
REMARK       I    between atoms: C_10  and  N_11 
REMARK    3  A    between atoms: N_11  and  C_21 
REMARK    4  A    between atoms: C_14  and  C_21 
REMARK       I    between atoms: N_18  and  C_20 
REMARK    5  A    between atoms: N_18  and  C_24 
REMARK       I    between atoms: N_19  and  C_20 
REMARK    6  A    between atoms: C_21  and  C_22 
REMARK    7  A    between atoms: C_22  and  C_23 
REMARK    8  A    between atoms: C_23  and  C_24 
ROOT
HETATM    1  C           1     -28.847  -6.550 -16.940  0.00  0.00     0.185 C 
ENDROOT
BRANCH   1   2
HETATM    2  N           1     -27.713  -6.846 -17.795  0.00  0.00    -0.345 N 
HETATM    3  C           1     -27.558  -6.184 -18.983  0.00  0.00     0.248 C 
HETATM    4  O           1     -28.365  -5.350 -19.319  0.00  0.00    -0.271 OA
HETATM    5  H           1     -27.037  -7.545 -17.514  0.00  0.00     0.163 HD
BRANCH   3   6
HETATM    6  C           1     -26.379  -6.493 -19.872  0.00  0.00     0.270 C 
HETATM    7  C           1     -26.736  -7.638 -20.810  0.00  0.00     0.050 C 
BRANCH   6   8
HETATM    8  N           1     -25.205  -6.888 -19.026  0.00  0.00    -0.067 N 
HETATM    9  H           1     -25.504  -7.606 -18.329  0.00  0.00     0.275 HD
HETATM   10  H           1     -24.455  -7.283 -19.635  0.00  0.00     0.275 HD
HETATM   11  H           1     -24.840  -6.046 -18.524  0.00  0.00     0.275 HD
ENDBRANCH   6   8
ENDBRANCH   3   6
ENDBRANCH   1   2
BRANCH   1  12
HETATM   12  C           1     -28.395  -6.522 -15.501  0.00  0.00     0.196 C 
HETATM   13  O           1     -28.557  -5.490 -14.815  0.00  0.00    -0.646 OA
HETATM   14  O           1     -27.857  -7.531 -14.995  0.00  0.00    -0.646 OA
ENDBRANCH   1  12
BRANCH   1  15
HETATM   15  C           1     -29.911  -7.623 -17.119  0.00  0.00     0.038 C 
BRANCH  15  16
HETATM   16  C           1     -31.211  -6.978 -17.580  0.00  0.00     0.023 C 
BRANCH  16  17
HETATM   17  C           1     -31.209  -5.502 -17.202  0.00  0.00     0.138 C 
BRANCH  17  18
HETATM   18  N           1     -32.541  -5.118 -16.714  0.00  0.00    -0.227 N 
HETATM   19  H           1     -33.139  -5.821 -16.213  0.00  0.00     0.177 HD
HETATM   20  C           1     -32.968  -3.940 -16.899  0.00  0.00     0.665 C 
HETATM   21  N           1     -32.247  -3.094 -17.503  0.00  0.00    -0.235 N 
HETATM   22  N           1     -34.146  -3.601 -16.467  0.00  0.00    -0.235 N 
HETATM   23  H           1     -32.601  -2.116 -17.657  0.00  0.00     0.174 HD
HETATM   24  H           1     -31.295  -3.368 -17.852  0.00  0.00     0.174 HD
HETATM   25  H           1     -34.498  -2.629 -16.620  0.00  0.00     0.174 HD
HETATM   26  H           1     -34.741  -4.300 -15.968  0.00  0.00     0.174 HD
ENDBRANCH  17  18
ENDBRANCH  16  17
ENDBRANCH  15  16
ENDBRANCH   1  15
TORSDOF 8
ENDMDL
MODEL 4
REMARK VINA RESULT:      -6.4     11.611     13.845
REMARK  8 active torsions:
REMARK  status: ('A' for Active; 'I' for Inactive)
REMARK    1  A    between atoms: N_7  and  C_9 
REMARK    2  A    between atoms: C_9  and  C_10 
REMARK       I    between atoms: C_10  and  N_11 
REMARK    3  A    between atoms: N_11  and  C_21 
REMARK    4  A    between atoms: C_14  and  C_21 
REMARK       I    between atoms: N_18  and  C_20 
REMARK    5  A    between atoms: N_18  and  C_24 
REMARK       I    between atoms: N_19  and  C_20 
REMARK    6  A    between atoms: C_21  and  C_22 
REMARK    7  A    between atoms: C_22  and  C_23 
REMARK    8  A    between atoms: C_23  and  C_24 
ROOT
HETATM    1  C           1     -35.022  -2.262 -11.556  0.00  0.00     0.185 C 
ENDROOT
BRANCH   1   2
HETATM    2  N           1     -35.221  -0.996 -12.235  0.00  0.00    -0.345 N 
HETATM    3  C           1     -35.274  -0.952 -13.602  0.00  0.00     0.248 C 
HETATM    4  O           1     -35.158  -1.969 -14.244  0.00  0.00    -0.271 OA
HETATM    5  H           1     -35.318  -0.144 -11.698  0.00  0.00     0.163 HD
BRANCH   3   6
HETATM    6  C           1     -35.480   0.365 -14.308  0.00  0.00     0.270 C 
HETATM    7  C           1     -36.757   0.304 -15.136  0.00  0.00     0.050 C 
BRANCH   6   8
HETATM    8  N           1     -34.313   0.637 -15.209  0.00  0.00    -0.067 N 
HETATM    9  H           1     -34.651   1.067 -16.099  0.00  0.00     0.275 HD
HETATM   10  H           1     -33.652   1.293 -14.735  0.00  0.00     0.275 HD
HETATM   11  H           1     -33.821  -0.261 -15.421  0.00  0.00     0.275 HD
ENDBRANCH   6   8
ENDBRANCH   3   6
ENDBRANCH   1   2
BRANCH   1  12
HETATM   12  C           1     -36.157  -2.495 -10.589  0.00  0.00     0.196 C 
HETATM   13  O           1     -36.631  -3.643 -10.448  0.00  0.00    -0.646 OA
HETATM   14  O           1     -36.624  -1.541  -9.931  0.00  0.00    -0.646 OA
ENDBRANCH   1  12
BRANCH   1  15
HETATM   15  C           1     -33.704  -2.227 -10.795  0.00  0.00     0.038 C 
BRANCH  15  16
HETATM   16  C           1     -32.752  -3.261 -11.380  0.00  0.00     0.023 C 
BRANCH  16  17
HETATM   17  C           1     -33.544  -4.479 -11.842  0.00  0.00     0.138 C 
BRANCH  17  18
HETATM   18  N           1     -33.851  -5.333 -10.686  0.00  0.00    -0.227 N 
HETATM   19  H           1     -33.510  -5.064  -9.730  0.00  0.00     0.177 HD
HETATM   20  C           1     -34.526  -6.392 -10.843  0.00  0.00     0.665 C 
HETATM   21  N           1     -34.937  -6.716 -11.995  0.00  0.00    -0.235 N 
HETATM   22  N           1     -34.798  -7.147  -9.820  0.00  0.00    -0.235 N 
HETATM   23  H           1     -35.498  -7.595 -12.126  0.00  0.00     0.174 HD
HETATM   24  H           1     -34.718  -6.106 -12.821  0.00  0.00     0.174 HD
HETATM   25  H           1     -35.355  -8.022  -9.950  0.00  0.00     0.174 HD
HETATM   26  H           1     -34.459  -6.880  -8.869  0.00  0.00     0.174 HD
ENDBRANCH  17  18
ENDBRANCH  16  17
ENDBRANCH  15  16
ENDBRANCH   1  15
TORSDOF 8
ENDMDL
MODEL 5
REMARK VINA RESULT:      -6.4     12.338     14.763
REMARK  8 active torsions:
REMARK  status: ('A' for Active; 'I' for Inactive)
REMARK    1  A    between atoms: N_7  and  C_9 
REMARK    2  A    between atoms: C_9  and  C_10 
REMARK       I    between atoms: C_10  and  N_11 
REMARK    3  A    between atoms: N_11  and  C_21 
REMARK    4  A    between atoms: C_14  and  C_21 
REMARK       I    between atoms: N_18  and  C_20 
REMARK    5  A    between atoms: N_18  and  C_24 
REMARK       I    between atoms: N_19  and  C_20 
REMARK    6  A    between atoms: C_21  and  C_22 
REMARK    7  A    between atoms: C_22  and  C_23 
REMARK    8  A    between atoms: C_23  and  C_24 
ROOT
HETATM    1  C           1     -36.441  -0.993 -11.380  0.00  0.00     0.185 C 
ENDROOT
BRANCH   1   2
HETATM    2  N           1     -35.903  -0.320 -12.547  0.00  0.00    -0.345 N 
HETATM    3  C           1     -36.623  -0.284 -13.710  0.00  0.00     0.248 C 
HETATM    4  O           1     -37.708  -0.811 -13.766  0.00  0.00    -0.271 OA
HETATM    5  H           1     -34.994   0.122 -12.502  0.00  0.00     0.163 HD
BRANCH   3   6
HETATM    6  C           1     -36.063   0.416 -14.924  0.00  0.00     0.270 C 
HETATM    7  C           1     -34.970   1.385 -14.493  0.00  0.00     0.050 C 
BRANCH   6   8
HETATM    8  N           1     -37.158   1.173 -15.614  0.00  0.00    -0.067 N 
HETATM    9  H           1     -37.618   1.819 -14.934  0.00  0.00     0.275 HD
HETATM   10  H           1     -36.755   1.727 -16.403  0.00  0.00     0.275 HD
HETATM   11  H           1     -37.866   0.498 -15.987  0.00  0.00     0.275 HD
ENDBRANCH   6   8
ENDBRANCH   3   6
ENDBRANCH   1   2
BRANCH   1  12
HETATM   12  C           1     -36.948   0.035 -10.399  0.00  0.00     0.196 C 
HETATM   13  O           1     -38.002   0.663 -10.642  0.00  0.00    -0.646 OA
HETATM   14  O           1     -36.316   0.259  -9.344  0.00  0.00    -0.646 OA
ENDBRANCH   1  12
BRANCH   1  15
HETATM   15  C           1     -35.347  -1.824 -10.726  0.00  0.00     0.038 C 
BRANCH  15  16
HETATM   16  C           1     -35.428  -3.259 -11.230  0.00  0.00     0.023 C 
BRANCH  16  17
HETATM   17  C           1     -34.293  -4.076 -10.625  0.00  0.00     0.138 C 
BRANCH  17  18
HETATM   18  N           1     -34.751  -5.452 -10.386  0.00  0.00    -0.227 N 
HETATM   19  H           1     -35.665  -5.624  -9.898  0.00  0.00     0.177 HD
HETATM   20  C           1     -34.044  -6.431 -10.769  0.00  0.00     0.665 C 
HETATM   21  N           1     -32.943  -6.224 -11.357  0.00  0.00    -0.235 N 
HETATM   22  N           1     -34.449  -7.647 -10.557  0.00  0.00    -0.235 N 
HETATM   23  H           1     -32.356  -7.035 -11.675  0.00  0.00     0.174 HD
HETATM   24  H           1     -32.615  -5.241 -11.528  0.00  0.00     0.174 HD
HETATM   25  H           1     -33.866  -8.454 -10.873  0.00  0.00     0.174 HD
HETATM   26  H           1     -35.358  -7.818 -10.071  0.00  0.00     0.174 HD
ENDBRANCH  17  18
ENDBRANCH  16  17
ENDBRANCH  15  16
ENDBRANCH   1  15
TORSDOF 8
ENDMDL
MODEL 6
REMARK VINA RESULT:      -6.3      1.729      6.612
REMARK  8 active torsions:
REMARK  status: ('A' for Active; 'I' for Inactive)
REMARK    1  A    between atoms: N_7  and  C_9 
REMARK    2  A    between atoms: C_9  and  C_10 
REMARK       I    between atoms: C_10  and  N_11 
REMARK    3  A    between atoms: N_11  and  C_21 
REMARK    4  A    between atoms: C_14  and  C_21 
REMARK       I    between atoms: N_18  and  C_20 
REMARK    5  A    between atoms: N_18  and  C_24 
REMARK       I    between atoms: N_19  and  C_20 
REMARK    6  A    between atoms: C_21  and  C_22 
REMARK    7  A    between atoms: C_22  and  C_23 
REMARK    8  A    between atoms: C_23  and  C_24 
ROOT
HETATM    1  C           1     -23.772  -4.256 -10.867  0.00  0.00     0.185 C 
ENDROOT
BRANCH   1   2
HETATM    2  N           1     -23.196  -3.286 -11.779  0.00  0.00    -0.345 N 
HETATM    3  C           1     -23.621  -3.230 -13.079  0.00  0.00     0.248 C 
HETATM    4  O           1     -24.478  -3.987 -13.467  0.00  0.00    -0.271 OA
HETATM    5  H           1     -22.477  -2.652 -11.454  0.00  0.00     0.163 HD
BRANCH   3   6
HETATM    6  C           1     -23.020  -2.222 -14.027  0.00  0.00     0.270 C 
HETATM    7  C           1     -24.123  -1.339 -14.595  0.00  0.00     0.050 C 
BRANCH   6   8
HETATM    8  N           1     -22.328  -2.940 -15.147  0.00  0.00    -0.067 N 
HETATM    9  H           1     -22.415  -2.382 -16.025  0.00  0.00     0.275 HD
HETATM   10  H           1     -21.318  -3.062 -14.910  0.00  0.00     0.275 HD
HETATM   11  H           1     -22.770  -3.878 -15.284  0.00  0.00     0.275 HD
ENDBRANCH   6   8
ENDBRANCH   3   6
ENDBRANCH   1   2
BRANCH   1  12
HETATM   12  C           1     -24.609  -3.538  -9.836  0.00  0.00     0.196 C 
HETATM   13  O           1     -25.744  -3.110 -10.141  0.00  0.00    -0.646 OA
HETATM   14  O           1     -24.168  -3.370  -8.679  0.00  0.00    -0.646 OA
ENDBRANCH   1  12
BRANCH   1  15
HETATM   15  C           1     -22.657  -5.023 -10.172  0.00  0.00     0.038 C 
BRANCH  15  16
HETATM   16  C           1     -21.392  -4.177 -10.154  0.00  0.00     0.023 C 
BRANCH  16  17
HETATM   17  C           1     -20.725  -4.287  -8.788  0.00  0.00     0.138 C 
BRANCH  17  18
HETATM   18  N           1     -21.638  -4.953  -7.848  0.00  0.00    -0.227 N 
HETATM   19  H           1     -22.521  -5.399  -8.200  0.00  0.00     0.177 HD
HETATM   20  C           1     -21.360  -4.988  -6.613  0.00  0.00     0.665 C 
HETATM   21  N           1     -20.296  -4.450  -6.188  0.00  0.00    -0.235 N 
HETATM   22  N           1     -22.168  -5.577  -5.782  0.00  0.00    -0.235 N 
HETATM   23  H           1     -20.065  -4.480  -5.164  0.00  0.00     0.174 HD
HETATM   24  H           1     -19.643  -3.975  -6.860  0.00  0.00     0.174 HD
HETATM   25  H           1     -21.938  -5.606  -4.763  0.00  0.00     0.174 HD
HETATM   26  H           1     -23.046  -6.020  -6.133  0.00  0.00     0.174 HD
ENDBRANCH  17  18
ENDBRANCH  16  17
ENDBRANCH  15  16
ENDBRANCH   1  15
TORSDOF 8
ENDMDL
MODEL 7
REMARK VINA RESULT:      -6.2      2.327      3.274
REMARK  8 active torsions:
REMARK  status: ('A' for Active; 'I' for Inactive)
REMARK    1  A    between atoms: N_7  and  C_9 
REMARK    2  A    between atoms: C_9  and  C_10 
REMARK       I    between atoms: C_10  and  N_11 
REMARK    3  A    between atoms: N_11  and  C_21 
REMARK    4  A    between atoms: C_14  and  C_21 
REMARK       I    between atoms: N_18  and  C_20 
REMARK    5  A    between atoms: N_18  and  C_24 
REMARK       I    between atoms: N_19  and  C_20 
REMARK    6  A    between atoms: C_21  and  C_22 
REMARK    7  A    between atoms: C_22  and  C_23 
REMARK    8  A    between atoms: C_23  and  C_24 
ROOT
HETATM    1  C           1     -21.673  -4.766  -8.380  0.00  0.00     0.185 C 
ENDROOT
BRANCH   1   2
HETATM    2  N           1     -21.559  -4.848  -6.936  0.00  0.00    -0.345 N 
HETATM    3  C           1     -21.259  -6.043  -6.339  0.00  0.00     0.248 C 
HETATM    4  O           1     -21.087  -7.029  -7.014  0.00  0.00    -0.271 OA
HETATM    5  H           1     -21.704  -4.022  -6.370  0.00  0.00     0.163 HD
BRANCH   3   6
HETATM    6  C           1     -21.142  -6.128  -4.837  0.00  0.00     0.270 C 
HETATM    7  C           1     -20.434  -7.420  -4.455  0.00  0.00     0.050 C 
BRANCH   6   8
HETATM    8  N           1     -22.512  -6.109  -4.227  0.00  0.00    -0.067 N 
HETATM    9  H           1     -22.437  -5.909  -3.205  0.00  0.00     0.275 HD
HETATM   10  H           1     -23.087  -5.368  -4.686  0.00  0.00     0.275 HD
HETATM   11  H           1     -22.968  -7.041  -4.367  0.00  0.00     0.275 HD
ENDBRANCH   6   8
ENDBRANCH   3   6
ENDBRANCH   1   2
BRANCH   1  12
HETATM   12  C           1     -20.342  -4.357  -8.964  0.00  0.00     0.196 C 
HETATM   13  O           1     -20.109  -4.547 -10.177  0.00  0.00    -0.646 OA
HETATM   14  O           1     -19.474  -3.831  -8.235  0.00  0.00    -0.646 OA
ENDBRANCH   1  12
BRANCH   1  15
HETATM   15  C           1     -22.728  -3.733  -8.748  0.00  0.00     0.038 C 
BRANCH  15  16
HETATM   16  C           1     -23.914  -4.429  -9.401  0.00  0.00     0.023 C 
BRANCH  16  17
HETATM   17  C           1     -23.582  -4.743 -10.855  0.00  0.00     0.138 C 
BRANCH  17  18
HETATM   18  N           1     -23.997  -3.619 -11.707  0.00  0.00    -0.227 N 
HETATM   19  H           1     -24.975  -3.243 -11.640  0.00  0.00     0.177 HD
HETATM   20  C           1     -23.175  -3.106 -12.523  0.00  0.00     0.665 C 
HETATM   21  N           1     -21.997  -3.560 -12.604  0.00  0.00    -0.235 N 
HETATM   22  N           1     -23.542  -2.112 -13.276  0.00  0.00    -0.235 N 
HETATM   23  H           1     -21.315  -3.134 -13.280  0.00  0.00     0.174 HD
HETATM   24  H           1     -21.700  -4.363 -11.995  0.00  0.00     0.174 HD
HETATM   25  H           1     -22.864  -1.689 -13.949  0.00  0.00     0.174 HD
HETATM   26  H           1     -24.515  -1.738 -13.209  0.00  0.00     0.174 HD
ENDBRANCH  17  18
ENDBRANCH  16  17
ENDBRANCH  15  16
ENDBRANCH   1  15
TORSDOF 8
ENDMDL
MODEL 8
REMARK VINA RESULT:      -6.0     11.545     13.119
REMARK  8 active torsions:
REMARK  status: ('A' for Active; 'I' for Inactive)
REMARK    1  A    between atoms: N_7  and  C_9 
REMARK    2  A    between atoms: C_9  and  C_10 
REMARK       I    between atoms: C_10  and  N_11 
REMARK    3  A    between atoms: N_11  and  C_21 
REMARK    4  A    between atoms: C_14  and  C_21 
REMARK       I    between atoms: N_18  and  C_20 
REMARK    5  A    between atoms: N_18  and  C_24 
REMARK       I    between atoms: N_19  and  C_20 
REMARK    6  A    between atoms: C_21  and  C_22 
REMARK    7  A    between atoms: C_22  and  C_23 
REMARK    8  A    between atoms: C_23  and  C_24 
ROOT
HETATM    1  C           1     -34.952  -2.827 -12.008  0.00  0.00     0.185 C 
ENDROOT
BRANCH   1   2
HETATM    2  N           1     -34.682  -1.781 -12.976  0.00  0.00    -0.345 N 
HETATM    3  C           1     -35.692  -0.958 -13.395  0.00  0.00     0.248 C 
HETATM    4  O           1     -36.809  -1.101 -12.958  0.00  0.00    -0.271 OA
HETATM    5  H           1     -33.747  -1.661 -13.343  0.00  0.00     0.163 HD
BRANCH   3   6
HETATM    6  C           1     -35.410   0.130 -14.403  0.00  0.00     0.270 C 
HETATM    7  C           1     -34.566   1.218 -13.753  0.00  0.00     0.050 C 
BRANCH   6   8
HETATM    8  N           1     -36.705   0.718 -14.878  0.00  0.00    -0.067 N 
HETATM    9  H           1     -36.700   0.778 -15.920  0.00  0.00     0.275 HD
HETATM   10  H           1     -37.497   0.112 -14.568  0.00  0.00     0.275 HD
HETATM   11  H           1     -36.820   1.676 -14.475  0.00  0.00     0.275 HD
ENDBRANCH   6   8
ENDBRANCH   3   6
ENDBRANCH   1   2
BRANCH   1  12
HETATM   12  C           1     -33.972  -2.717 -10.865  0.00  0.00     0.196 C 
HETATM   13  O           1     -33.468  -1.609 -10.580  0.00  0.00    -0.646 OA
HETATM   14  O           1     -33.665  -3.732 -10.205  0.00  0.00    -0.646 OA
ENDBRANCH   1  12
BRANCH   1  15
HETATM   15  C           1     -34.803  -4.187 -12.676  0.00  0.00     0.038 C 
BRANCH  15  16
HETATM   16  C           1     -33.600  -4.166 -13.609  0.00  0.00     0.023 C 
BRANCH  16  17
HETATM   17  C           1     -34.053  -4.478 -15.030  0.00  0.00     0.138 C 
BRANCH  17  18
HETATM   18  N           1     -32.925  -4.294 -15.956  0.00  0.00    -0.227 N 
HETATM   19  H           1     -32.039  -4.838 -15.818  0.00  0.00     0.177 HD
HETATM   20  C           1     -33.025  -3.479 -16.920  0.00  0.00     0.665 C 
HETATM   21  N           1     -34.094  -2.822 -17.086  0.00  0.00    -0.235 N 
HETATM   22  N           1     -32.028  -3.316 -17.739  0.00  0.00    -0.235 N 
HETATM   23  H           1     -34.176  -2.146 -17.886  0.00  0.00     0.174 HD
HETATM   24  H           1     -34.899  -2.954 -16.425  0.00  0.00     0.174 HD
HETATM   25  H           1     -32.110  -2.644 -18.534  0.00  0.00     0.174 HD
HETATM   26  H           1     -31.145  -3.858 -17.601  0.00  0.00     0.174 HD
ENDBRANCH  17  18
ENDBRANCH  16  17
ENDBRANCH  15  16
ENDBRANCH   1  15
TORSDOF 8
ENDMDL
MODEL 9
REMARK VINA RESULT:      -5.9      3.163      4.696
REMARK  8 active torsions:
REMARK  status: ('A' for Active; 'I' for Inactive)
REMARK    1  A    between atoms: N_7  and  C_9 
REMARK    2  A    between atoms: C_9  and  C_10 
REMARK       I    between atoms: C_10  and  N_11 
REMARK    3  A    between atoms: N_11  and  C_21 
REMARK    4  A    between atoms: C_14  and  C_21 
REMARK       I    between atoms: N_18  and  C_20 
REMARK    5  A    between atoms: N_18  and  C_24 
REMARK       I    between atoms: N_19  and  C_20 
REMARK    6  A    between atoms: C_21  and  C_22 
REMARK    7  A    between atoms: C_22  and  C_23 
REMARK    8  A    between atoms: C_23  and  C_24 
ROOT
HETATM    1  C           1     -21.294  -5.408  -6.642  0.00  0.00     0.185 C 
ENDROOT
BRANCH   1   2
HETATM    2  N           1     -20.983  -5.406  -5.225  0.00  0.00    -0.345 N 
HETATM    3  C           1     -21.579  -6.313  -4.391  0.00  0.00     0.248 C 
HETATM    4  O           1     -22.363  -7.118  -4.835  0.00  0.00    -0.271 OA
HETATM    5  H           1     -20.327  -4.732  -4.853  0.00  0.00     0.163 HD
BRANCH   3   6
HETATM    6  C           1     -21.255  -6.310  -2.918  0.00  0.00     0.270 C 
HETATM    7  C           1     -20.848  -7.712  -2.484  0.00  0.00     0.050 C 
BRANCH   6   8
HETATM    8  N           1     -22.464  -5.878  -2.142  0.00  0.00    -0.067 N 
HETATM    9  H           1     -22.773  -4.937  -2.473  0.00  0.00     0.275 HD
HETATM   10  H           1     -23.234  -6.569  -2.284  0.00  0.00     0.275 HD
HETATM   11  H           1     -22.224  -5.827  -1.125  0.00  0.00     0.275 HD
ENDBRANCH   6   8
ENDBRANCH   3   6
ENDBRANCH   1   2
BRANCH   1  12
HETATM   12  C           1     -20.026  -5.619  -7.433  0.00  0.00     0.196 C 
HETATM   13  O           1     -19.599  -4.712  -8.181  0.00  0.00    -0.646 OA
HETATM   14  O           1     -19.404  -6.698  -7.341  0.00  0.00    -0.646 OA
ENDBRANCH   1  12
BRANCH   1  15
HETATM   15  C           1     -21.917  -4.073  -7.026  0.00  0.00     0.038 C 
BRANCH  15  16
HETATM   16  C           1     -23.056  -4.308  -8.009  0.00  0.00     0.023 C 
BRANCH  16  17
HETATM   17  C           1     -22.820  -3.484  -9.269  0.00  0.00     0.138 C 
BRANCH  17  18
HETATM   18  N           1     -22.757  -4.376 -10.435  0.00  0.00    -0.227 N 
HETATM   19  H           1     -21.978  -5.075 -10.520  0.00  0.00     0.177 HD
HETATM   20  C           1     -23.643  -4.302 -11.337  0.00  0.00     0.665 C 
HETATM   21  N           1     -24.582  -3.460 -11.234  0.00  0.00    -0.235 N 
HETATM   22  N           1     -23.588  -5.092 -12.368  0.00  0.00    -0.235 N 
HETATM   23  H           1     -25.317  -3.399 -11.982  0.00  0.00     0.174 HD
HETATM   24  H           1     -24.627  -2.823 -10.401  0.00  0.00     0.174 HD
HETATM   25  H           1     -24.319  -5.031 -13.112  0.00  0.00     0.174 HD
HETATM   26  H           1     -22.812  -5.787 -12.453  0.00  0.00     0.174 HD
ENDBRANCH  17  18
ENDBRANCH  16  17
ENDBRANCH  15  16
ENDBRANCH   1  15
TORSDOF 8
ENDMDL
