MODEL 1
REMARK VINA RESULT:      -5.7      0.000      0.000
REMARK  6 active torsions:
REMARK  status: ('A' for Active; 'I' for Inactive)
REMARK    1  A    between atoms: C_1  and  C_2 
REMARK    2  A    between atoms: C_1  and  C_19 
REMARK    3  A    between atoms: C_1  and  N_15 
REMARK       I    between atoms: C_2  and  N_3 
REMARK    4  A    between atoms: C_4  and  C_6 
REMARK    5  A    between atoms: Se_17  and  C_18 
REMARK    6  A    between atoms: C_18  and  C_19 
ROOT
HETATM    1  C           1     -21.672  -4.625  -8.165  0.00  0.00     0.251 C 
HETATM    2  N           1     -21.592  -4.383  -9.510  0.00  0.00    -0.336 N 
HETATM    3  C           1     -22.520  -3.610 -10.332  0.00  0.00     0.188 C 
HETATM    4  C           1     -21.611  -2.830 -11.266  0.00  0.00     0.038 C 
HETATM    5  C           1     -20.324  -3.644 -11.340  0.00  0.00     0.022 C 
HETATM    6  C           1     -20.560  -4.841 -10.436  0.00  0.00     0.127 C 
HETATM    7  O           1     -22.591  -4.176  -7.524  0.00  0.00    -0.271 OA
ENDROOT
BRANCH   1   8
HETATM    8  C           1     -20.610  -5.453  -7.483  0.00  0.00     0.275 C 
BRANCH   8   9
HETATM    9  C           1     -21.260  -6.360  -6.447  0.00  0.00     0.042 C 
BRANCH   9  10
HETATM   10  C           1     -20.834  -5.924  -5.051  0.00  0.00     0.003 C 
BRANCH  10  11
HETATM   11 Se           1     -21.169  -7.369  -3.788  0.00  0.00     0.000 Se
HETATM   12  C           1     -21.916  -6.212  -2.410  0.00  0.00     0.000 C 
ENDBRANCH  10  11
ENDBRANCH   9  10
ENDBRANCH   8   9
BRANCH   8  13
HETATM   13  N           1     -19.627  -4.545  -6.806  0.00  0.00    -0.067 N 
HETATM   14  H           1     -19.771  -3.564  -7.136  0.00  0.00     0.275 HD
HETATM   15  H           1     -19.768  -4.589  -5.771  0.00  0.00     0.275 HD
HETATM   16  H           1     -18.654  -4.851  -7.038  0.00  0.00     0.275 HD
ENDBRANCH   8  13
ENDBRANCH   1   8
BRANCH   3  17
HETATM   17  C           1     -23.436  -4.522 -11.109  0.00  0.00     0.196 C 
HETATM   18  O           1     -23.980  -5.494 -10.541  0.00  0.00    -0.646 OA
HETATM   19  O           1     -23.651  -4.307 -12.322  0.00  0.00    -0.646 OA
ENDBRANCH   3  17
TORSDOF 6
ENDMDL
MODEL 2
REMARK VINA RESULT:      -5.6      1.889      2.564
REMARK  6 active torsions:
REMARK  status: ('A' for Active; 'I' for Inactive)
REMARK    1  A    between atoms: C_1  and  C_2 
REMARK    2  A    between atoms: C_1  and  C_19 
REMARK    3  A    between atoms: C_1  and  N_15 
REMARK       I    between atoms: C_2  and  N_3 
REMARK    4  A    between atoms: C_4  and  C_6 
REMARK    5  A    between atoms: Se_17  and  C_18 
REMARK    6  A    between atoms: C_18  and  C_19 
ROOT
HETATM    1  C           1     -21.266  -4.548  -8.470  0.00  0.00     0.251 C 
HETATM    2  N           1     -22.173  -4.206  -9.436  0.00  0.00    -0.336 N 
HETATM    3  C           1     -22.106  -4.500 -10.865  0.00  0.00     0.188 C 
HETATM    4  C           1     -23.534  -4.871 -11.226  0.00  0.00     0.038 C 
HETATM    5  C           1     -24.399  -4.186 -10.174  0.00  0.00     0.022 C 
HETATM    6  C           1     -23.421  -3.467  -9.262  0.00  0.00     0.127 C 
HETATM    7  O           1     -20.271  -5.165  -8.767  0.00  0.00    -0.271 OA
ENDROOT
BRANCH   1   8
HETATM    8  C           1     -21.508  -4.154  -7.034  0.00  0.00     0.275 C 
BRANCH   8   9
HETATM    9  C           1     -20.324  -4.589  -6.181  0.00  0.00     0.042 C 
BRANCH   9  10
HETATM   10  C           1     -20.815  -5.479  -5.046  0.00  0.00     0.003 C 
BRANCH  10  11
HETATM   11 Se           1     -20.295  -7.324  -5.396  0.00  0.00     0.000 Se
HETATM   12  C           1     -21.033  -8.020  -3.731  0.00  0.00     0.000 C 
ENDBRANCH  10  11
ENDBRANCH   9  10
ENDBRANCH   8   9
BRANCH   8  13
HETATM   13  N           1     -22.755  -4.821  -6.536  0.00  0.00    -0.067 N 
HETATM   14  H           1     -22.736  -4.862  -5.491  0.00  0.00     0.275 HD
HETATM   15  H           1     -23.590  -4.276  -6.848  0.00  0.00     0.275 HD
HETATM   16  H           1     -22.808  -5.792  -6.921  0.00  0.00     0.275 HD
ENDBRANCH   8  13
ENDBRANCH   1   8
BRANCH   3  17
HETATM   17  C           1     -21.651  -3.289 -11.642  0.00  0.00     0.196 C 
HETATM   18  O           1     -22.336  -2.868 -12.599  0.00  0.00    -0.646 OA
HETATM   19  O           1     -20.590  -2.707 -11.328  0.00  0.00    -0.646 OA
ENDBRANCH   3  17
TORSDOF 6
ENDMDL
MODEL 3
REMARK VINA RESULT:      -5.0     18.343     20.066
REMARK  6 active torsions:
REMARK  status: ('A' for Active; 'I' for Inactive)
REMARK    1  A    between atoms: C_1  and  C_2 
REMARK    2  A    between atoms: C_1  and  C_19 
REMARK    3  A    between atoms: C_1  and  N_15 
REMARK       I    between atoms: C_2  and  N_3 
REMARK    4  A    between atoms: C_4  and  C_6 
REMARK    5  A    between atoms: Se_17  and  C_18 
REMARK    6  A    between atoms: C_18  and  C_19 
ROOT
HETATM    1  C           1     -10.705   7.819 -19.663  0.00  0.00     0.251 C 
HETATM    2  N           1     -11.683   8.594 -20.228  0.00  0.00    -0.336 N 
HETATM    3  C           1     -12.156   9.899 -19.775  0.00  0.00     0.188 C 
HETATM    4  C           1     -12.343  10.682 -21.063  0.00  0.00     0.038 C 
HETATM    5  C           1     -12.561   9.627 -22.141  0.00  0.00     0.022 C 
HETATM    6  C           1     -12.478   8.295 -21.416  0.00  0.00     0.127 C 
HETATM    7  O           1     -10.129   8.200 -18.673  0.00  0.00    -0.271 OA
ENDROOT
BRANCH   1   8
HETATM    8  C           1     -10.349   6.487 -20.277  0.00  0.00     0.275 C 
BRANCH   8   9
HETATM    9  C           1     -10.596   5.378 -19.264  0.00  0.00     0.042 C 
BRANCH   9  10
HETATM   10  C           1     -11.867   4.625 -19.634  0.00  0.00     0.003 C 
BRANCH  10  11
HETATM   11 Se           1     -11.401   2.998 -20.600  0.00  0.00     0.000 Se
HETATM   12  C           1     -13.160   2.782 -21.414  0.00  0.00     0.000 C 
ENDBRANCH  10  11
ENDBRANCH   9  10
ENDBRANCH   8   9
BRANCH   8  13
HETATM   13  N           1      -8.902   6.490 -20.672  0.00  0.00    -0.067 N 
HETATM   14  H           1      -8.786   7.014 -21.569  0.00  0.00     0.275 HD
HETATM   15  H           1      -8.338   6.952 -19.923  0.00  0.00     0.275 HD
HETATM   16  H           1      -8.574   5.505 -20.798  0.00  0.00     0.275 HD
ENDBRANCH   8  13
ENDBRANCH   1   8
BRANCH   3  17
HETATM   17  C           1     -13.461   9.767 -19.030  0.00  0.00     0.196 C 
HETATM   18  O           1     -14.334  10.656 -19.137  0.00  0.00    -0.646 OA
HETATM   19  O           1     -13.670   8.770 -18.305  0.00  0.00    -0.646 OA
ENDBRANCH   3  17
TORSDOF 6
ENDMDL
MODEL 4
REMARK VINA RESULT:      -4.9      3.388      6.506
REMARK  6 active torsions:
REMARK  status: ('A' for Active; 'I' for Inactive)
REMARK    1  A    between atoms: C_1  and  C_2 
REMARK    2  A    between atoms: C_1  and  C_19 
REMARK    3  A    between atoms: C_1  and  N_15 
REMARK       I    between atoms: C_2  and  N_3 
REMARK    4  A    between atoms: C_4  and  C_6 
REMARK    5  A    between atoms: Se_17  and  C_18 
REMARK    6  A    between atoms: C_18  and  C_19 
ROOT
HETATM    1  C           1     -20.657  -6.213  -6.560  0.00  0.00     0.251 C 
HETATM    2  N           1     -21.094  -6.804  -5.405  0.00  0.00    -0.336 N 
HETATM    3  C           1     -20.443  -7.871  -4.650  0.00  0.00     0.188 C 
HETATM    4  C           1     -20.639  -7.461  -3.201  0.00  0.00     0.038 C 
HETATM    5  C           1     -21.873  -6.565  -3.206  0.00  0.00     0.022 C 
HETATM    6  C           1     -22.312  -6.503  -4.658  0.00  0.00     0.127 C 
HETATM    7  O           1     -19.621  -6.571  -7.067  0.00  0.00    -0.271 OA
ENDROOT
BRANCH   1   8
HETATM    8  C           1     -21.471  -5.117  -7.201  0.00  0.00     0.275 C 
BRANCH   8   9
HETATM    9  C           1     -21.281  -5.158  -8.711  0.00  0.00     0.042 C 
BRANCH   9  10
HETATM   10  C           1     -21.737  -3.837  -9.318  0.00  0.00     0.003 C 
BRANCH  10  11
HETATM   11 Se           1     -23.673  -3.856  -9.538  0.00  0.00     0.000 Se
HETATM   12  C           1     -23.635  -4.811 -11.236  0.00  0.00     0.000 C 
ENDBRANCH  10  11
ENDBRANCH   9  10
ENDBRANCH   8   9
BRANCH   8  13
HETATM   13  N           1     -21.018  -3.786  -6.677  0.00  0.00    -0.067 N 
HETATM   14  H           1     -21.782  -3.083  -6.802  0.00  0.00     0.275 HD
HETATM   15  H           1     -20.787  -3.873  -5.662  0.00  0.00     0.275 HD
HETATM   16  H           1     -20.169  -3.476  -7.203  0.00  0.00     0.275 HD
ENDBRANCH   8  13
ENDBRANCH   1   8
BRANCH   3  17
HETATM   17  C           1     -21.099  -9.201  -4.926  0.00  0.00     0.196 C 
HETATM   18  O           1     -21.647  -9.833  -3.997  0.00  0.00    -0.646 OA
HETATM   19  O           1     -21.094  -9.672  -6.084  0.00  0.00    -0.646 OA
ENDBRANCH   3  17
TORSDOF 6
ENDMDL
MODEL 5
REMARK VINA RESULT:      -4.9      3.272      6.633
REMARK  6 active torsions:
REMARK  status: ('A' for Active; 'I' for Inactive)
REMARK    1  A    between atoms: C_1  and  C_2 
REMARK    2  A    between atoms: C_1  and  C_19 
REMARK    3  A    between atoms: C_1  and  N_15 
REMARK       I    between atoms: C_2  and  N_3 
REMARK    4  A    between atoms: C_4  and  C_6 
REMARK    5  A    between atoms: Se_17  and  C_18 
REMARK    6  A    between atoms: C_18  and  C_19 
ROOT
HETATM    1  C           1     -21.847  -5.634  -6.044  0.00  0.00     0.251 C 
HETATM    2  N           1     -21.327  -6.636  -5.269  0.00  0.00    -0.336 N 
HETATM    3  C           1     -22.031  -7.463  -4.293  0.00  0.00     0.188 C 
HETATM    4  C           1     -21.456  -8.851  -4.515  0.00  0.00     0.038 C 
HETATM    5  C           1     -20.081  -8.618  -5.132  0.00  0.00     0.022 C 
HETATM    6  C           1     -19.946  -7.110  -5.240  0.00  0.00     0.127 C 
HETATM    7  O           1     -23.018  -5.351  -5.959  0.00  0.00    -0.271 OA
ENDROOT
BRANCH   1   8
HETATM    8  C           1     -20.958  -4.883  -7.004  0.00  0.00     0.275 C 
BRANCH   8   9
HETATM    9  C           1     -21.703  -3.671  -7.546  0.00  0.00     0.042 C 
BRANCH   9  10
HETATM   10  C           1     -21.990  -3.871  -9.028  0.00  0.00     0.003 C 
BRANCH  10  11
HETATM   11 Se           1     -23.915  -3.840  -9.328  0.00  0.00     0.000 Se
HETATM   12  C           1     -23.781  -3.317 -11.201  0.00  0.00     0.000 C 
ENDBRANCH  10  11
ENDBRANCH   9  10
ENDBRANCH   8   9
BRANCH   8  13
HETATM   13  N           1     -20.577  -5.784  -8.142  0.00  0.00    -0.067 N 
HETATM   14  H           1     -20.189  -6.678  -7.764  0.00  0.00     0.275 HD
HETATM   15  H           1     -21.422  -5.989  -8.721  0.00  0.00     0.275 HD
HETATM   16  H           1     -19.855  -5.313  -8.733  0.00  0.00     0.275 HD
ENDBRANCH   8  13
ENDBRANCH   1   8
BRANCH   3  17
HETATM   17  C           1     -21.758  -6.985  -2.888  0.00  0.00     0.196 C 
HETATM   18  O           1     -22.002  -5.801  -2.572  0.00  0.00    -0.646 OA
HETATM   19  O           1     -21.286  -7.774  -2.041  0.00  0.00    -0.646 OA
ENDBRANCH   3  17
TORSDOF 6
ENDMDL
MODEL 6
REMARK VINA RESULT:      -4.8      6.490      9.894
REMARK  6 active torsions:
REMARK  status: ('A' for Active; 'I' for Inactive)
REMARK    1  A    between atoms: C_1  and  C_2 
REMARK    2  A    between atoms: C_1  and  C_19 
REMARK    3  A    between atoms: C_1  and  N_15 
REMARK       I    between atoms: C_2  and  N_3 
REMARK    4  A    between atoms: C_4  and  C_6 
REMARK    5  A    between atoms: Se_17  and  C_18 
REMARK    6  A    between atoms: C_18  and  C_19 
ROOT
HETATM    1  C           1     -22.136  -8.162  -0.814  0.00  0.00     0.251 C 
HETATM    2  N           1     -22.411  -9.503  -0.836  0.00  0.00    -0.336 N 
HETATM    3  C           1     -22.640 -10.383   0.306  0.00  0.00     0.188 C 
HETATM    4  C           1     -23.785 -11.272  -0.146  0.00  0.00     0.038 C 
HETATM    5  C           1     -23.717 -11.264  -1.669  0.00  0.00     0.022 C 
HETATM    6  C           1     -22.542 -10.364  -2.008  0.00  0.00     0.127 C 
HETATM    7  O           1     -22.058  -7.579   0.240  0.00  0.00    -0.271 OA
ENDROOT
BRANCH   1   8
HETATM    8  C           1     -21.928  -7.413  -2.107  0.00  0.00     0.275 C 
BRANCH   8   9
HETATM    9  C           1     -20.455  -7.456  -2.490  0.00  0.00     0.042 C 
BRANCH   9  10
HETATM   10  C           1     -20.295  -8.190  -3.815  0.00  0.00     0.003 C 
BRANCH  10  11
HETATM   11 Se           1     -21.594  -7.506  -5.097  0.00  0.00     0.000 Se
HETATM   12  C           1     -20.763  -5.749  -5.250  0.00  0.00     0.000 C 
ENDBRANCH  10  11
ENDBRANCH   9  10
ENDBRANCH   8   9
BRANCH   8  13
HETATM   13  N           1     -22.357  -5.986  -1.933  0.00  0.00    -0.067 N 
HETATM   14  H           1     -21.870  -5.386  -2.637  0.00  0.00     0.275 HD
HETATM   15  H           1     -23.391  -5.914  -2.070  0.00  0.00     0.275 HD
HETATM   16  H           1     -22.110  -5.663  -0.970  0.00  0.00     0.275 HD
ENDBRANCH   8  13
ENDBRANCH   1   8
BRANCH   3  17
HETATM   17  C           1     -21.409 -11.202   0.607  0.00  0.00     0.196 C 
HETATM   18  O           1     -20.303 -10.639   0.749  0.00  0.00    -0.646 OA
HETATM   19  O           1     -21.496 -12.445   0.714  0.00  0.00    -0.646 OA
ENDBRANCH   3  17
TORSDOF 6
ENDMDL
MODEL 7
REMARK VINA RESULT:      -4.8      5.282      9.381
REMARK  6 active torsions:
REMARK  status: ('A' for Active; 'I' for Inactive)
REMARK    1  A    between atoms: C_1  and  C_2 
REMARK    2  A    between atoms: C_1  and  C_19 
REMARK    3  A    between atoms: C_1  and  N_15 
REMARK       I    between atoms: C_2  and  N_3 
REMARK    4  A    between atoms: C_4  and  C_6 
REMARK    5  A    between atoms: Se_17  and  C_18 
REMARK    6  A    between atoms: C_18  and  C_19 
ROOT
HETATM    1  C           1     -20.874  -8.118  -2.324  0.00  0.00     0.251 C 
HETATM    2  N           1     -21.381  -8.542  -1.125  0.00  0.00    -0.336 N 
HETATM    3  C           1     -20.757  -9.450  -0.167  0.00  0.00     0.188 C 
HETATM    4  C           1     -21.078  -8.829   1.182  0.00  0.00     0.038 C 
HETATM    5  C           1     -22.336  -8.000   0.947  0.00  0.00     0.022 C 
HETATM    6  C           1     -22.662  -8.182  -0.524  0.00  0.00     0.127 C 
HETATM    7  O           1     -19.791  -8.504  -2.693  0.00  0.00    -0.271 OA
ENDROOT
BRANCH   1   8
HETATM    8  C           1     -21.670  -7.171  -3.187  0.00  0.00     0.275 C 
BRANCH   8   9
HETATM    9  C           1     -21.068  -7.127  -4.585  0.00  0.00     0.042 C 
BRANCH   9  10
HETATM   10  C           1     -21.627  -5.930  -5.343  0.00  0.00     0.003 C 
BRANCH  10  11
HETATM   11 Se           1     -20.157  -4.822  -5.982  0.00  0.00     0.000 Se
HETATM   12  C           1     -21.264  -3.765  -7.190  0.00  0.00     0.000 C 
ENDBRANCH  10  11
ENDBRANCH   9  10
ENDBRANCH   8   9
BRANCH   8  13
HETATM   13  N           1     -21.635  -5.797  -2.585  0.00  0.00    -0.067 N 
HETATM   14  H           1     -21.405  -5.096  -3.326  0.00  0.00     0.275 HD
HETATM   15  H           1     -22.569  -5.574  -2.173  0.00  0.00     0.275 HD
HETATM   16  H           1     -20.906  -5.764  -1.836  0.00  0.00     0.275 HD
ENDBRANCH   8  13
ENDBRANCH   1   8
BRANCH   3  17
HETATM   17  C           1     -21.347 -10.834  -0.277  0.00  0.00     0.196 C 
HETATM   18  O           1     -21.508 -11.357  -1.400  0.00  0.00    -0.646 OA
HETATM   19  O           1     -21.675 -11.457   0.756  0.00  0.00    -0.646 OA
ENDBRANCH   3  17
TORSDOF 6
ENDMDL
MODEL 8
REMARK VINA RESULT:      -4.7     18.262     19.999
REMARK  6 active torsions:
REMARK  status: ('A' for Active; 'I' for Inactive)
REMARK    1  A    between atoms: C_1  and  C_2 
REMARK    2  A    between atoms: C_1  and  C_19 
REMARK    3  A    between atoms: C_1  and  N_15 
REMARK       I    between atoms: C_2  and  N_3 
REMARK    4  A    between atoms: C_4  and  C_6 
REMARK    5  A    between atoms: Se_17  and  C_18 
REMARK    6  A    between atoms: C_18  and  C_19 
ROOT
HETATM    1  C           1     -11.142   6.560 -21.530  0.00  0.00     0.251 C 
HETATM    2  N           1     -12.120   5.603 -21.478  0.00  0.00    -0.336 N 
HETATM    3  C           1     -12.943   5.111 -22.579  0.00  0.00     0.188 C 
HETATM    4  C           1     -13.018   3.614 -22.333  0.00  0.00     0.038 C 
HETATM    5  C           1     -12.776   3.445 -20.837  0.00  0.00     0.022 C 
HETATM    6  C           1     -12.567   4.852 -20.308  0.00  0.00     0.127 C 
HETATM    7  O           1     -10.881   7.099 -22.578  0.00  0.00    -0.271 OA
ENDROOT
BRANCH   1   8
HETATM    8  C           1     -10.392   6.941 -20.278  0.00  0.00     0.275 C 
BRANCH   8   9
HETATM    9  C           1     -10.087   8.433 -20.302  0.00  0.00     0.042 C 
BRANCH   9  10
HETATM   10  C           1     -10.605   9.078 -19.022  0.00  0.00     0.003 C 
BRANCH  10  11
HETATM   11 Se           1     -12.519   9.406 -19.188  0.00  0.00     0.000 Se
HETATM   12  C           1     -12.404  10.129 -20.995  0.00  0.00     0.000 C 
ENDBRANCH  10  11
ENDBRANCH   9  10
ENDBRANCH   8   9
BRANCH   8  13
HETATM   13  N           1      -9.107   6.171 -20.211  0.00  0.00    -0.067 N 
HETATM   14  H           1      -9.248   5.218 -20.619  0.00  0.00     0.275 HD
HETATM   15  H           1      -8.369   6.675 -20.754  0.00  0.00     0.275 HD
HETATM   16  H           1      -8.806   6.081 -19.214  0.00  0.00     0.275 HD
ENDBRANCH   8  13
ENDBRANCH   1   8
BRANCH   3  17
HETATM   17  C           1     -14.318   5.732 -22.541  0.00  0.00     0.196 C 
HETATM   18  O           1     -14.443   6.975 -22.568  0.00  0.00    -0.646 OA
HETATM   19  O           1     -15.331   5.003 -22.481  0.00  0.00    -0.646 OA
ENDBRANCH   3  17
TORSDOF 6
ENDMDL
MODEL 9
REMARK VINA RESULT:      -4.7      3.415      6.068
REMARK  6 active torsions:
REMARK  status: ('A' for Active; 'I' for Inactive)
REMARK    1  A    between atoms: C_1  and  C_2 
REMARK    2  A    between atoms: C_1  and  C_19 
REMARK    3  A    between atoms: C_1  and  N_15 
REMARK       I    between atoms: C_2  and  N_3 
REMARK    4  A    between atoms: C_4  and  C_6 
REMARK    5  A    between atoms: Se_17  and  C_18 
REMARK    6  A    between atoms: C_18  and  C_19 
ROOT
HETATM    1  C           1     -22.910  -3.973  -8.798  0.00  0.00     0.251 C 
HETATM    2  N           1     -21.961  -4.570  -8.012  0.00  0.00    -0.336 N 
HETATM    3  C           1     -20.888  -3.920  -7.265  0.00  0.00     0.188 C 
HETATM    4  C           1     -20.854  -4.677  -5.949  0.00  0.00     0.038 C 
HETATM    5  C           1     -21.451  -6.045  -6.262  0.00  0.00     0.022 C 
HETATM    6  C           1     -21.803  -5.996  -7.738  0.00  0.00     0.127 C 
HETATM    7  O           1     -22.916  -2.773  -8.932  0.00  0.00    -0.271 OA
ENDROOT
BRANCH   1   8
HETATM    8  C           1     -23.949  -4.815  -9.498  0.00  0.00     0.275 C 
BRANCH   8   9
HETATM    9  C           1     -23.505  -5.084 -10.929  0.00  0.00     0.042 C 
BRANCH   9  10
HETATM   10  C           1     -24.033  -3.984 -11.841  0.00  0.00     0.003 C 
BRANCH  10  11
HETATM   11 Se           1     -22.554  -2.861 -12.429  0.00  0.00     0.000 Se
HETATM   12  C           1     -23.127  -2.799 -14.292  0.00  0.00     0.000 C 
ENDBRANCH  10  11
ENDBRANCH   9  10
ENDBRANCH   8   9
BRANCH   8  13
HETATM   13  N           1     -25.259  -4.085  -9.510  0.00  0.00    -0.067 N 
HETATM   14  H           1     -25.376  -3.592 -10.424  0.00  0.00     0.275 HD
HETATM   15  H           1     -26.039  -4.768  -9.380  0.00  0.00     0.275 HD
HETATM   16  H           1     -25.275  -3.385  -8.733  0.00  0.00     0.275 HD
ENDBRANCH   8  13
ENDBRANCH   1   8
BRANCH   3  17
HETATM   17  C           1     -19.573  -4.049  -7.993  0.00  0.00     0.196 C 
HETATM   18  O           1     -19.517  -3.839  -9.224  0.00  0.00    -0.646 OA
HETATM   19  O           1     -18.539  -4.367  -7.366  0.00  0.00    -0.646 OA
ENDBRANCH   3  17
TORSDOF 6
ENDMDL
