MODEL 1
REMARK VINA RESULT:      -6.3      0.000      0.000
REMARK  10 active torsions:
REMARK  status: ('A' for Active; 'I' for Inactive)
REMARK       I    between atoms: C_6  and  N_12 
REMARK    1  A    between atoms: C_6  and  C_7 
REMARK    2  A    between atoms: C_7  and  C_8 
REMARK    3  A    between atoms: C_7  and  N_13 
REMARK    4  A    between atoms: C_8  and  O_15 
REMARK    5  A    between atoms: O_10  and  P_22 
REMARK    6  A    between atoms: N_12  and  C_21 
REMARK    7  A    between atoms: C_16  and  C_21 
REMARK    8  A    between atoms: C_20  and  C_21 
REMARK    9  A    between atoms: C_20  and  O_23 
REMARK   10  A    between atoms: P_22  and  O_23 
ROOT
HETATM    1  O           1     -33.416  -2.292 -11.107  0.00  0.00    -0.271 OA
HETATM    2  C           1     -33.976  -2.682 -12.104  0.00  0.00     0.251 C 
HETATM    3  N           1     -34.755  -1.822 -12.831  0.00  0.00    -0.343 N 
HETATM    4  H           1     -35.224  -2.149 -13.667  0.00  0.00     0.163 HD
ENDROOT
BRANCH   3   5
HETATM    5  C           1     -34.909  -0.446 -12.405  0.00  0.00     0.210 C 
BRANCH   5   6
HETATM    6  C           1     -36.167  -0.312 -11.581  0.00  0.00     0.198 C 
HETATM    7  O           1     -36.215   0.512 -10.642  0.00  0.00    -0.646 OA
HETATM    8  O           1     -37.160  -1.025 -11.838  0.00  0.00    -0.646 OA
ENDBRANCH   5   6
BRANCH   5   9
HETATM    9  C           1     -35.006   0.455 -13.629  0.00  0.00     0.217 C 
BRANCH   9  10
HETATM   10  O           1     -35.096  -0.333 -14.785  0.00  0.00    -0.287 OA
BRANCH  10  11
HETATM   11  P           1     -36.404  -0.099 -15.703  0.00  0.00     0.406 P 
HETATM   12  O           1     -36.200  -0.737 -17.022  0.00  0.00    -0.624 OA
HETATM   13  O           1     -37.584  -0.700 -15.042  0.00  0.00    -0.624 OA
BRANCH  11  14
HETATM   14  O           1     -36.646   1.485 -15.900  0.00  0.00    -0.300 OA
HETATM   15  H           1     -36.283   1.885 -15.128  0.00  0.00     0.223 HD
ENDBRANCH  11  14
ENDBRANCH  10  11
ENDBRANCH   9  10
ENDBRANCH   5   9
ENDBRANCH   3   5
BRANCH   2  16
HETATM   16  C           1     -33.815  -4.115 -12.548  0.00  0.00     0.297 C 
BRANCH  16  17
HETATM   17  C           1     -34.870  -4.979 -11.868  0.00  0.00     0.206 C 
BRANCH  17  18
HETATM   18  O           1     -35.730  -4.164 -11.120  0.00  0.00    -0.398 OA
HETATM   19  H           1     -36.027  -4.678 -10.388  0.00  0.00     0.209 HD
ENDBRANCH  17  18
ENDBRANCH  16  17
BRANCH  16  20
HETATM   20  N           1     -32.449  -4.604 -12.171  0.00  0.00    -0.064 N 
HETATM   21  H           1     -32.223  -4.290 -11.200  0.00  0.00     0.275 HD
HETATM   22  H           1     -31.744  -4.214 -12.836  0.00  0.00     0.275 HD
HETATM   23  H           1     -32.429  -5.648 -12.214  0.00  0.00     0.275 HD
ENDBRANCH  16  20
ENDBRANCH   2  16
TORSDOF 10
ENDMDL
MODEL 2
REMARK VINA RESULT:      -6.0     11.627     13.308
REMARK  10 active torsions:
REMARK  status: ('A' for Active; 'I' for Inactive)
REMARK       I    between atoms: C_6  and  N_12 
REMARK    1  A    between atoms: C_6  and  C_7 
REMARK    2  A    between atoms: C_7  and  C_8 
REMARK    3  A    between atoms: C_7  and  N_13 
REMARK    4  A    between atoms: C_8  and  O_15 
REMARK    5  A    between atoms: O_10  and  P_22 
REMARK    6  A    between atoms: N_12  and  C_21 
REMARK    7  A    between atoms: C_16  and  C_21 
REMARK    8  A    between atoms: C_20  and  C_21 
REMARK    9  A    between atoms: C_20  and  O_23 
REMARK   10  A    between atoms: P_22  and  O_23 
ROOT
HETATM    1  O           1     -21.601  -3.212  -8.081  0.00  0.00    -0.271 OA
HETATM    2  C           1     -21.583  -4.380  -8.388  0.00  0.00     0.251 C 
HETATM    3  N           1     -22.171  -4.790  -9.554  0.00  0.00    -0.343 N 
HETATM    4  H           1     -22.156  -5.770  -9.811  0.00  0.00     0.163 HD
ENDROOT
BRANCH   3   5
HETATM    5  C           1     -22.817  -3.824 -10.420  0.00  0.00     0.210 C 
BRANCH   5   6
HETATM    6  C           1     -24.315  -3.964 -10.302  0.00  0.00     0.198 C 
HETATM    7  O           1     -25.062  -3.046 -10.702  0.00  0.00    -0.646 OA
HETATM    8  O           1     -24.807  -4.999  -9.805  0.00  0.00    -0.646 OA
ENDBRANCH   5   6
BRANCH   5   9
HETATM    9  C           1     -22.395  -4.075 -11.862  0.00  0.00     0.217 C 
BRANCH   9  10
HETATM   10  O           1     -22.476  -2.879 -12.589  0.00  0.00    -0.287 OA
BRANCH  10  11
HETATM   11  P           1     -23.384  -2.922 -13.925  0.00  0.00     0.406 P 
HETATM   12  O           1     -24.332  -1.785 -13.912  0.00  0.00    -0.624 OA
HETATM   13  O           1     -22.513  -2.824 -15.117  0.00  0.00    -0.624 OA
BRANCH  11  14
HETATM   14  O           1     -24.206  -4.311 -13.972  0.00  0.00    -0.300 OA
HETATM   15  H           1     -23.548  -4.984 -13.956  0.00  0.00     0.223 HD
ENDBRANCH  11  14
ENDBRANCH  10  11
ENDBRANCH   9  10
ENDBRANCH   5   9
ENDBRANCH   3   5
BRANCH   2  16
HETATM   16  C           1     -20.911  -5.386  -7.487  0.00  0.00     0.297 C 
BRANCH  16  17
HETATM   17  C           1     -21.708  -5.525  -6.196  0.00  0.00     0.206 C 
BRANCH  17  18
HETATM   18  O           1     -22.986  -4.977  -6.375  0.00  0.00    -0.398 OA
HETATM   19  H           1     -22.974  -4.517  -7.197  0.00  0.00     0.209 HD
ENDBRANCH  17  18
ENDBRANCH  16  17
BRANCH  16  20
HETATM   20  N           1     -19.521  -4.922  -7.168  0.00  0.00    -0.064 N 
HETATM   21  H           1     -18.970  -5.717  -6.775  0.00  0.00     0.275 HD
HETATM   22  H           1     -19.565  -4.149  -6.466  0.00  0.00     0.275 HD
HETATM   23  H           1     -19.062  -4.575  -8.040  0.00  0.00     0.275 HD
ENDBRANCH  16  20
ENDBRANCH   2  16
TORSDOF 10
ENDMDL
MODEL 3
REMARK VINA RESULT:      -5.5      2.223      4.237
REMARK  10 active torsions:
REMARK  status: ('A' for Active; 'I' for Inactive)
REMARK       I    between atoms: C_6  and  N_12 
REMARK    1  A    between atoms: C_6  and  C_7 
REMARK    2  A    between atoms: C_7  and  C_8 
REMARK    3  A    between atoms: C_7  and  N_13 
REMARK    4  A    between atoms: C_8  and  O_15 
REMARK    5  A    between atoms: O_10  and  P_22 
REMARK    6  A    between atoms: N_12  and  C_21 
REMARK    7  A    between atoms: C_16  and  C_21 
REMARK    8  A    between atoms: C_20  and  C_21 
REMARK    9  A    between atoms: C_20  and  O_23 
REMARK   10  A    between atoms: P_22  and  O_23 
ROOT
HETATM    1  O           1     -37.757  -1.540 -10.442  0.00  0.00    -0.271 OA
HETATM    2  C           1     -36.959  -0.688 -10.126  0.00  0.00     0.251 C 
HETATM    3  N           1     -35.879  -0.432 -10.927  0.00  0.00    -0.343 N 
HETATM    4  H           1     -35.212   0.282 -10.662  0.00  0.00     0.163 HD
ENDROOT
BRANCH   3   5
HETATM    5  C           1     -35.691  -1.181 -12.153  0.00  0.00     0.210 C 
BRANCH   5   6
HETATM    6  C           1     -34.404  -1.966 -12.070  0.00  0.00     0.198 C 
HETATM    7  O           1     -33.608  -1.763 -11.128  0.00  0.00    -0.646 OA
HETATM    8  O           1     -34.135  -2.818 -12.944  0.00  0.00    -0.646 OA
ENDBRANCH   5   6
BRANCH   5   9
HETATM    9  C           1     -35.623  -0.218 -13.330  0.00  0.00     0.217 C 
BRANCH   9  10
HETATM   10  O           1     -36.590  -0.572 -14.282  0.00  0.00    -0.287 OA
BRANCH  10  11
HETATM   11  P           1     -36.201  -0.294 -15.825  0.00  0.00     0.406 P 
HETATM   12  O           1     -36.045   1.162 -16.039  0.00  0.00    -0.624 OA
HETATM   13  O           1     -34.928  -0.978 -16.144  0.00  0.00    -0.624 OA
BRANCH  11  14
HETATM   14  O           1     -37.370  -0.860 -16.784  0.00  0.00    -0.300 OA
HETATM   15  H           1     -38.142  -0.379 -16.537  0.00  0.00     0.223 HD
ENDBRANCH  11  14
ENDBRANCH  10  11
ENDBRANCH   9  10
ENDBRANCH   5   9
ENDBRANCH   3   5
BRANCH   2  16
HETATM   16  C           1     -37.156   0.092  -8.850  0.00  0.00     0.297 C 
BRANCH  16  17
HETATM   17  C           1     -37.793   1.439  -9.171  0.00  0.00     0.206 C 
BRANCH  17  18
HETATM   18  O           1     -37.482   2.356  -8.157  0.00  0.00    -0.398 OA
HETATM   19  H           1     -36.542   2.398  -8.105  0.00  0.00     0.209 HD
ENDBRANCH  17  18
ENDBRANCH  16  17
BRANCH  16  20
HETATM   20  N           1     -35.827   0.312  -8.190  0.00  0.00    -0.064 N 
HETATM   21  H           1     -35.083   0.378  -8.920  0.00  0.00     0.275 HD
HETATM   22  H           1     -35.619  -0.489  -7.552  0.00  0.00     0.275 HD
HETATM   23  H           1     -35.855   1.199  -7.638  0.00  0.00     0.275 HD
ENDBRANCH  16  20
ENDBRANCH   2  16
TORSDOF 10
ENDMDL
MODEL 4
REMARK VINA RESULT:      -5.0     13.226     15.830
REMARK  10 active torsions:
REMARK  status: ('A' for Active; 'I' for Inactive)
REMARK       I    between atoms: C_6  and  N_12 
REMARK    1  A    between atoms: C_6  and  C_7 
REMARK    2  A    between atoms: C_7  and  C_8 
REMARK    3  A    between atoms: C_7  and  N_13 
REMARK    4  A    between atoms: C_8  and  O_15 
REMARK    5  A    between atoms: O_10  and  P_22 
REMARK    6  A    between atoms: N_12  and  C_21 
REMARK    7  A    between atoms: C_16  and  C_21 
REMARK    8  A    between atoms: C_20  and  C_21 
REMARK    9  A    between atoms: C_20  and  O_23 
REMARK   10  A    between atoms: P_22  and  O_23 
ROOT
HETATM    1  O           1     -23.041  -3.228  -8.450  0.00  0.00    -0.271 OA
HETATM    2  C           1     -23.047  -4.320  -8.967  0.00  0.00     0.251 C 
HETATM    3  N           1     -22.091  -5.241  -8.632  0.00  0.00    -0.343 N 
HETATM    4  H           1     -22.098  -6.156  -9.066  0.00  0.00     0.163 HD
ENDROOT
BRANCH   3   5
HETATM    5  C           1     -21.071  -4.906  -7.659  0.00  0.00     0.210 C 
BRANCH   5   6
HETATM    6  C           1     -19.813  -4.478  -8.376  0.00  0.00     0.198 C 
HETATM    7  O           1     -19.824  -4.318  -9.616  0.00  0.00    -0.646 OA
HETATM    8  O           1     -18.762  -4.284  -7.730  0.00  0.00    -0.646 OA
ENDBRANCH   5   6
BRANCH   5   9
HETATM    9  C           1     -20.774  -6.126  -6.797  0.00  0.00     0.217 C 
BRANCH   9  10
HETATM   10  O           1     -20.819  -5.764  -5.443  0.00  0.00    -0.287 OA
BRANCH  10  11
HETATM   11  P           1     -21.970  -6.471  -4.557  0.00  0.00     0.406 P 
HETATM   12  O           1     -21.796  -7.940  -4.606  0.00  0.00    -0.624 OA
HETATM   13  O           1     -21.867  -6.009  -3.156  0.00  0.00    -0.624 OA
BRANCH  11  14
HETATM   14  O           1     -23.420  -6.078  -5.149  0.00  0.00    -0.300 OA
HETATM   15  H           1     -23.499  -5.151  -5.005  0.00  0.00     0.223 HD
ENDBRANCH  11  14
ENDBRANCH  10  11
ENDBRANCH   9  10
ENDBRANCH   5   9
ENDBRANCH   3   5
BRANCH   2  16
HETATM   16  C           1     -24.110  -4.669  -9.980  0.00  0.00     0.297 C 
BRANCH  16  17
HETATM   17  C           1     -23.537  -4.532 -11.385  0.00  0.00     0.206 C 
BRANCH  17  18
HETATM   18  O           1     -22.197  -4.128 -11.307  0.00  0.00    -0.398 OA
HETATM   19  H           1     -22.184  -3.315 -10.831  0.00  0.00     0.209 HD
ENDBRANCH  17  18
ENDBRANCH  16  17
BRANCH  16  20
HETATM   20  N           1     -25.275  -3.738  -9.823  0.00  0.00    -0.064 N 
HETATM   21  H           1     -26.120  -4.159 -10.270  0.00  0.00     0.275 HD
HETATM   22  H           1     -25.056  -2.826 -10.284  0.00  0.00     0.275 HD
HETATM   23  H           1     -25.459  -3.578  -8.807  0.00  0.00     0.275 HD
ENDBRANCH  16  20
ENDBRANCH   2  16
TORSDOF 10
ENDMDL
MODEL 5
REMARK VINA RESULT:      -5.0     13.115     15.123
REMARK  10 active torsions:
REMARK  status: ('A' for Active; 'I' for Inactive)
REMARK       I    between atoms: C_6  and  N_12 
REMARK    1  A    between atoms: C_6  and  C_7 
REMARK    2  A    between atoms: C_7  and  C_8 
REMARK    3  A    between atoms: C_7  and  N_13 
REMARK    4  A    between atoms: C_8  and  O_15 
REMARK    5  A    between atoms: O_10  and  P_22 
REMARK    6  A    between atoms: N_12  and  C_21 
REMARK    7  A    between atoms: C_16  and  C_21 
REMARK    8  A    between atoms: C_20  and  C_21 
REMARK    9  A    between atoms: C_20  and  O_23 
REMARK   10  A    between atoms: P_22  and  O_23 
ROOT
HETATM    1  O           1     -21.214  -7.398  -6.491  0.00  0.00    -0.271 OA
HETATM    2  C           1     -21.234  -6.416  -5.788  0.00  0.00     0.251 C 
HETATM    3  N           1     -21.504  -5.190  -6.333  0.00  0.00    -0.343 N 
HETATM    4  H           1     -21.520  -4.367  -5.743  0.00  0.00     0.163 HD
ENDROOT
BRANCH   3   5
HETATM    5  C           1     -21.763  -5.068  -7.754  0.00  0.00     0.210 C 
BRANCH   5   6
HETATM    6  C           1     -20.560  -4.464  -8.435  0.00  0.00     0.198 C 
HETATM    7  O           1     -20.229  -4.850  -9.577  0.00  0.00    -0.646 OA
HETATM    8  O           1     -19.894  -3.579  -7.857  0.00  0.00    -0.646 OA
ENDBRANCH   5   6
BRANCH   5   9
HETATM    9  C           1     -22.974  -4.171  -7.972  0.00  0.00     0.217 C 
BRANCH   9  10
HETATM   10  O           1     -22.831  -3.476  -9.181  0.00  0.00    -0.287 OA
BRANCH  10  11
HETATM   11  P           1     -23.983  -3.727 -10.285  0.00  0.00     0.406 P 
HETATM   12  O           1     -23.706  -2.902 -11.482  0.00  0.00    -0.624 OA
HETATM   13  O           1     -23.998  -5.157 -10.665  0.00  0.00    -0.624 OA
BRANCH  11  14
HETATM   14  O           1     -25.417  -3.320  -9.667  0.00  0.00    -0.300 OA
HETATM   15  H           1     -25.936  -3.055 -10.407  0.00  0.00     0.223 HD
ENDBRANCH  11  14
ENDBRANCH  10  11
ENDBRANCH   9  10
ENDBRANCH   5   9
ENDBRANCH   3   5
BRANCH   2  16
HETATM   16  C           1     -20.964  -6.543  -4.309  0.00  0.00     0.297 C 
BRANCH  16  17
HETATM   17  C           1     -20.586  -7.982  -3.982  0.00  0.00     0.206 C 
BRANCH  17  18
HETATM   18  O           1     -21.733  -8.787  -4.020  0.00  0.00    -0.398 OA
HETATM   19  H           1     -21.614  -9.401  -4.725  0.00  0.00     0.209 HD
ENDBRANCH  17  18
ENDBRANCH  16  17
BRANCH  16  20
HETATM   20  N           1     -22.195  -6.163  -3.542  0.00  0.00    -0.064 N 
HETATM   21  H           1     -23.027  -6.632  -3.966  0.00  0.00     0.275 HD
HETATM   22  H           1     -22.324  -5.127  -3.580  0.00  0.00     0.275 HD
HETATM   23  H           1     -22.093  -6.465  -2.547  0.00  0.00     0.275 HD
ENDBRANCH  16  20
ENDBRANCH   2  16
TORSDOF 10
ENDMDL
MODEL 6
REMARK VINA RESULT:      -4.8      2.588      4.705
REMARK  10 active torsions:
REMARK  status: ('A' for Active; 'I' for Inactive)
REMARK       I    between atoms: C_6  and  N_12 
REMARK    1  A    between atoms: C_6  and  C_7 
REMARK    2  A    between atoms: C_7  and  C_8 
REMARK    3  A    between atoms: C_7  and  N_13 
REMARK    4  A    between atoms: C_8  and  O_15 
REMARK    5  A    between atoms: O_10  and  P_22 
REMARK    6  A    between atoms: N_12  and  C_21 
REMARK    7  A    between atoms: C_16  and  C_21 
REMARK    8  A    between atoms: C_20  and  C_21 
REMARK    9  A    between atoms: C_20  and  O_23 
REMARK   10  A    between atoms: P_22  and  O_23 
ROOT
HETATM    1  O           1     -36.705  -2.239 -10.569  0.00  0.00    -0.271 OA
HETATM    2  C           1     -36.065  -1.661 -11.415  0.00  0.00     0.251 C 
HETATM    3  N           1     -35.123  -2.338 -12.142  0.00  0.00    -0.343 N 
HETATM    4  H           1     -34.587  -1.852 -12.850  0.00  0.00     0.163 HD
ENDROOT
BRANCH   3   5
HETATM    5  C           1     -34.892  -3.747 -11.897  0.00  0.00     0.210 C 
BRANCH   5   6
HETATM    6  C           1     -33.716  -3.910 -10.965  0.00  0.00     0.198 C 
HETATM    7  O           1     -32.713  -3.174 -11.090  0.00  0.00    -0.646 OA
HETATM    8  O           1     -33.745  -4.780 -10.068  0.00  0.00    -0.646 OA
ENDBRANCH   5   6
BRANCH   5   9
HETATM    9  C           1     -34.596  -4.448 -13.216  0.00  0.00     0.217 C 
BRANCH   9  10
HETATM   10  O           1     -34.088  -3.520 -14.136  0.00  0.00    -0.287 OA
BRANCH  10  11
HETATM   11  P           1     -34.172  -3.945 -15.692  0.00  0.00     0.406 P 
HETATM   12  O           1     -34.853  -2.878 -16.458  0.00  0.00    -0.624 OA
HETATM   13  O           1     -32.805  -4.138 -16.225  0.00  0.00    -0.624 OA
BRANCH  11  14
HETATM   14  O           1     -35.002  -5.323 -15.829  0.00  0.00    -0.300 OA
HETATM   15  H           1     -35.210  -5.393 -16.745  0.00  0.00     0.223 HD
ENDBRANCH  11  14
ENDBRANCH  10  11
ENDBRANCH   9  10
ENDBRANCH   5   9
ENDBRANCH   3   5
BRANCH   2  16
HETATM   16  C           1     -36.305  -0.193 -11.670  0.00  0.00     0.297 C 
BRANCH  16  17
HETATM   17  C           1     -37.160   0.385 -10.548  0.00  0.00     0.206 C 
BRANCH  17  18
HETATM   18  O           1     -36.400   0.459  -9.373  0.00  0.00    -0.398 OA
HETATM   19  H           1     -35.501   0.317  -9.618  0.00  0.00     0.209 HD
ENDBRANCH  17  18
ENDBRANCH  16  17
BRANCH  16  20
HETATM   20  N           1     -37.017  -0.024 -12.978  0.00  0.00    -0.064 N 
HETATM   21  H           1     -36.767  -0.813 -13.615  0.00  0.00     0.275 HD
HETATM   22  H           1     -36.730   0.881 -13.416  0.00  0.00     0.275 HD
HETATM   23  H           1     -38.049  -0.020 -12.816  0.00  0.00     0.275 HD
ENDBRANCH  16  20
ENDBRANCH   2  16
TORSDOF 10
ENDMDL
MODEL 7
REMARK VINA RESULT:      -4.7     15.295     18.035
REMARK  10 active torsions:
REMARK  status: ('A' for Active; 'I' for Inactive)
REMARK       I    between atoms: C_6  and  N_12 
REMARK    1  A    between atoms: C_6  and  C_7 
REMARK    2  A    between atoms: C_7  and  C_8 
REMARK    3  A    between atoms: C_7  and  N_13 
REMARK    4  A    between atoms: C_8  and  O_15 
REMARK    5  A    between atoms: O_10  and  P_22 
REMARK    6  A    between atoms: N_12  and  C_21 
REMARK    7  A    between atoms: C_16  and  C_21 
REMARK    8  A    between atoms: C_20  and  C_21 
REMARK    9  A    between atoms: C_20  and  O_23 
REMARK   10  A    between atoms: P_22  and  O_23 
ROOT
HETATM    1  O           1     -19.826  -4.466  -5.389  0.00  0.00    -0.271 OA
HETATM    2  C           1     -20.837  -4.818  -5.949  0.00  0.00     0.251 C 
HETATM    3  N           1     -21.462  -5.975  -5.568  0.00  0.00    -0.343 N 
HETATM    4  H           1     -22.309  -6.269  -6.038  0.00  0.00     0.163 HD
ENDROOT
BRANCH   3   5
HETATM    5  C           1     -20.910  -6.779  -4.496  0.00  0.00     0.210 C 
BRANCH   5   6
HETATM    6  C           1     -20.827  -8.220  -4.939  0.00  0.00     0.198 C 
HETATM    7  O           1     -21.700  -9.037  -4.574  0.00  0.00    -0.646 OA
HETATM    8  O           1     -19.886  -8.594  -5.670  0.00  0.00    -0.646 OA
ENDBRANCH   5   6
BRANCH   5   9
HETATM    9  C           1     -21.810  -6.675  -3.271  0.00  0.00     0.217 C 
BRANCH   9  10
HETATM   10  O           1     -21.066  -6.962  -2.118  0.00  0.00    -0.287 OA
BRANCH  10  11
HETATM   11  P           1     -21.807  -7.866  -1.003  0.00  0.00     0.406 P 
HETATM   12  O           1     -20.877  -8.123   0.119  0.00  0.00    -0.624 OA
HETATM   13  O           1     -22.999  -7.149  -0.500  0.00  0.00    -0.624 OA
BRANCH  11  14
HETATM   14  O           1     -22.260  -9.268  -1.662  0.00  0.00    -0.300 OA
HETATM   15  H           1     -21.797  -9.313  -2.481  0.00  0.00     0.223 HD
ENDBRANCH  11  14
ENDBRANCH  10  11
ENDBRANCH   9  10
ENDBRANCH   5   9
ENDBRANCH   3   5
BRANCH   2  16
HETATM   16  C           1     -21.412  -3.981  -7.065  0.00  0.00     0.297 C 
BRANCH  16  17
HETATM   17  C           1     -22.664  -4.655  -7.613  0.00  0.00     0.206 C 
BRANCH  17  18
HETATM   18  O           1     -23.760  -4.332  -6.802  0.00  0.00    -0.398 OA
HETATM   19  H           1     -23.960  -5.099  -6.292  0.00  0.00     0.209 HD
ENDBRANCH  17  18
ENDBRANCH  16  17
BRANCH  16  20
HETATM   20  N           1     -20.397  -3.846  -8.161  0.00  0.00    -0.064 N 
HETATM   21  H           1     -19.477  -3.569  -7.751  0.00  0.00     0.275 HD
HETATM   22  H           1     -20.711  -3.114  -8.838  0.00  0.00     0.275 HD
HETATM   23  H           1     -20.297  -4.760  -8.658  0.00  0.00     0.275 HD
ENDBRANCH  16  20
ENDBRANCH   2  16
TORSDOF 10
ENDMDL
MODEL 8
REMARK VINA RESULT:      -4.6     16.621     18.351
REMARK  10 active torsions:
REMARK  status: ('A' for Active; 'I' for Inactive)
REMARK       I    between atoms: C_6  and  N_12 
REMARK    1  A    between atoms: C_6  and  C_7 
REMARK    2  A    between atoms: C_7  and  C_8 
REMARK    3  A    between atoms: C_7  and  N_13 
REMARK    4  A    between atoms: C_8  and  O_15 
REMARK    5  A    between atoms: O_10  and  P_22 
REMARK    6  A    between atoms: N_12  and  C_21 
REMARK    7  A    between atoms: C_16  and  C_21 
REMARK    8  A    between atoms: C_20  and  C_21 
REMARK    9  A    between atoms: C_20  and  O_23 
REMARK   10  A    between atoms: P_22  and  O_23 
ROOT
HETATM    1  O           1     -18.929  -8.962  -3.160  0.00  0.00    -0.271 OA
HETATM    2  C           1     -19.955  -9.163  -3.765  0.00  0.00     0.251 C 
HETATM    3  N           1     -21.066  -8.411  -3.495  0.00  0.00    -0.343 N 
HETATM    4  H           1     -21.926  -8.580  -4.002  0.00  0.00     0.163 HD
ENDROOT
BRANCH   3   5
HETATM    5  C           1     -21.013  -7.375  -2.483  0.00  0.00     0.210 C 
BRANCH   5   6
HETATM    6  C           1     -21.999  -7.692  -1.385  0.00  0.00     0.198 C 
HETATM    7  O           1     -22.115  -8.865  -0.969  0.00  0.00    -0.646 OA
HETATM    8  O           1     -22.699  -6.782  -0.892  0.00  0.00    -0.646 OA
ENDBRANCH   5   6
BRANCH   5   9
HETATM    9  C           1     -21.368  -6.034  -3.113  0.00  0.00     0.217 C 
BRANCH   9  10
HETATM   10  O           1     -22.026  -6.249  -4.332  0.00  0.00    -0.287 OA
BRANCH  10  11
HETATM   11  P           1     -21.255  -5.733  -5.655  0.00  0.00     0.406 P 
HETATM   12  O           1     -22.227  -5.102  -6.576  0.00  0.00    -0.624 OA
HETATM   13  O           1     -20.226  -4.742  -5.271  0.00  0.00    -0.624 OA
BRANCH  11  14
HETATM   14  O           1     -20.549  -6.985  -6.388  0.00  0.00    -0.300 OA
HETATM   15  H           1     -20.704  -6.849  -7.307  0.00  0.00     0.223 HD
ENDBRANCH  11  14
ENDBRANCH  10  11
ENDBRANCH   9  10
ENDBRANCH   5   9
ENDBRANCH   3   5
BRANCH   2  16
HETATM   16  C           1     -20.011 -10.242  -4.818  0.00  0.00     0.297 C 
BRANCH  16  17
HETATM   17  C           1     -18.666 -10.329  -5.530  0.00  0.00     0.206 C 
BRANCH  17  18
HETATM   18  O           1     -18.404  -9.116  -6.181  0.00  0.00    -0.398 OA
HETATM   19  H           1     -17.705  -8.697  -5.709  0.00  0.00     0.209 HD
ENDBRANCH  17  18
ENDBRANCH  16  17
BRANCH  16  20
HETATM   20  N           1     -21.083  -9.913  -5.814  0.00  0.00    -0.064 N 
HETATM   21  H           1     -20.885 -10.407  -6.713  0.00  0.00     0.275 HD
HETATM   22  H           1     -21.099  -8.882  -5.980  0.00  0.00     0.275 HD
HETATM   23  H           1     -22.010 -10.220  -5.442  0.00  0.00     0.275 HD
ENDBRANCH  16  20
ENDBRANCH   2  16
TORSDOF 10
ENDMDL
MODEL 9
REMARK VINA RESULT:      -4.6      3.433      6.258
REMARK  10 active torsions:
REMARK  status: ('A' for Active; 'I' for Inactive)
REMARK       I    between atoms: C_6  and  N_12 
REMARK    1  A    between atoms: C_6  and  C_7 
REMARK    2  A    between atoms: C_7  and  C_8 
REMARK    3  A    between atoms: C_7  and  N_13 
REMARK    4  A    between atoms: C_8  and  O_15 
REMARK    5  A    between atoms: O_10  and  P_22 
REMARK    6  A    between atoms: N_12  and  C_21 
REMARK    7  A    between atoms: C_16  and  C_21 
REMARK    8  A    between atoms: C_20  and  C_21 
REMARK    9  A    between atoms: C_20  and  O_23 
REMARK   10  A    between atoms: P_22  and  O_23 
ROOT
HETATM    1  O           1     -36.276  -3.109 -10.813  0.00  0.00    -0.271 OA
HETATM    2  C           1     -35.504  -2.189 -10.949  0.00  0.00     0.251 C 
HETATM    3  N           1     -34.240  -2.421 -11.420  0.00  0.00    -0.343 N 
HETATM    4  H           1     -33.594  -1.649 -11.534  0.00  0.00     0.163 HD
ENDROOT
BRANCH   3   5
HETATM    5  C           1     -33.826  -3.768 -11.756  0.00  0.00     0.210 C 
BRANCH   5   6
HETATM    6  C           1     -34.441  -4.170 -13.074  0.00  0.00     0.198 C 
HETATM    7  O           1     -35.183  -5.174 -13.138  0.00  0.00    -0.646 OA
HETATM    8  O           1     -34.208  -3.499 -14.102  0.00  0.00    -0.646 OA
ENDBRANCH   5   6
BRANCH   5   9
HETATM    9  C           1     -34.289  -4.726 -10.666  0.00  0.00     0.217 C 
BRANCH   9  10
HETATM   10  O           1     -33.570  -5.926 -10.761  0.00  0.00    -0.287 OA
BRANCH  10  11
HETATM   11  P           1     -34.405  -7.278 -10.470  0.00  0.00     0.406 P 
HETATM   12  O           1     -33.469  -8.368 -10.115  0.00  0.00    -0.624 OA
HETATM   13  O           1     -35.342  -7.048  -9.348  0.00  0.00    -0.624 OA
BRANCH  11  14
HETATM   14  O           1     -35.238  -7.689 -11.791  0.00  0.00    -0.300 OA
HETATM   15  H           1     -35.682  -8.488 -11.560  0.00  0.00     0.223 HD
ENDBRANCH  11  14
ENDBRANCH  10  11
ENDBRANCH   9  10
ENDBRANCH   5   9
ENDBRANCH   3   5
BRANCH   2  16
HETATM   16  C           1     -35.935  -0.786 -10.600  0.00  0.00     0.297 C 
BRANCH  16  17
HETATM   17  C           1     -37.451  -0.741 -10.455  0.00  0.00     0.206 C 
BRANCH  17  18
HETATM   18  O           1     -38.046  -0.850 -11.719  0.00  0.00    -0.398 OA
HETATM   19  H           1     -38.976  -0.763 -11.594  0.00  0.00     0.209 HD
ENDBRANCH  17  18
ENDBRANCH  16  17
BRANCH  16  20
HETATM   20  N           1     -35.510   0.152 -11.690  0.00  0.00    -0.064 N 
HETATM   21  H           1     -36.346   0.658 -12.059  0.00  0.00     0.275 HD
HETATM   22  H           1     -35.064  -0.391 -12.463  0.00  0.00     0.275 HD
HETATM   23  H           1     -34.824   0.842 -11.308  0.00  0.00     0.275 HD
ENDBRANCH  16  20
ENDBRANCH   2  16
TORSDOF 10
ENDMDL
