MODEL 1
REMARK VINA RESULT:      -6.5      0.000      0.000
REMARK  6 active torsions:
REMARK  status: ('A' for Active; 'I' for Inactive)
REMARK    1  A    between atoms: C_8  and  C_21 
REMARK    2  A    between atoms: C_10  and  C_17 
REMARK    3  A    between atoms: C_10  and  C_20 
REMARK    4  A    between atoms: C_10  and  N_18 
REMARK    5  A    between atoms: N_11  and  C_21 
REMARK       I    between atoms: N_11  and  C_17 
REMARK    6  A    between atoms: C_19  and  C_20 
ROOT
HETATM    1  C           1     -23.136  -3.661  -9.163  0.00  0.00     0.280 C 
ENDROOT
BRANCH   1   2
HETATM    2  C           1     -24.079  -3.360 -10.302  0.00  0.00     0.249 C 
HETATM    3  N           1     -23.589  -3.199 -11.570  0.00  0.00    -0.349 N 
HETATM    4  H           1     -22.596  -3.283 -11.744  0.00  0.00     0.163 HD
HETATM    5  O           1     -25.265  -3.259 -10.095  0.00  0.00    -0.271 OA
BRANCH   3   6
HETATM    6  C           1     -24.494  -2.909 -12.666  0.00  0.00     0.235 C 
BRANCH   6   7
HETATM    7  C           1     -23.705  -2.416 -13.854  0.00  0.00     0.191 C 
HETATM    8  O           1     -24.168  -1.508 -14.578  0.00  0.00    -0.647 OA
HETATM    9  O           1     -22.587  -2.913 -14.112  0.00  0.00    -0.647 OA
ENDBRANCH   6   7
ENDBRANCH   3   6
ENDBRANCH   1   2
BRANCH   1  10
HETATM   10  C           1     -22.187  -4.781  -9.571  0.00  0.00     0.101 C 
BRANCH  10  11
HETATM   11  C           1     -21.085  -4.894  -8.565  0.00  0.00     0.028 A 
HETATM   12  C           1     -20.072  -3.978  -8.408  0.00  0.00     0.114 A 
HETATM   13  N           1     -19.301  -4.473  -7.394  0.00  0.00    -0.360 N 
HETATM   14  C           1     -19.865  -5.648  -6.985  0.00  0.00     0.180 A 
HETATM   15  H           1     -18.433  -4.032  -7.001  0.00  0.00     0.166 HD
HETATM   16  N           1     -20.946  -5.929  -7.676  0.00  0.00    -0.355 N 
ATOM     17  HN          1     -21.553  -6.743  -7.574  1.00  0.00     0.166 HD
ENDBRANCH  10  11
ENDBRANCH   1  10
BRANCH   1  18
HETATM   18  N           1     -23.924  -4.088  -7.961  0.00  0.00    -0.066 N 
HETATM   19  H           1     -24.585  -3.326  -7.689  0.00  0.00     0.275 HD
HETATM   20  H           1     -24.466  -4.953  -8.189  0.00  0.00     0.275 HD
HETATM   21  H           1     -23.273  -4.285  -7.167  0.00  0.00     0.275 HD
ENDBRANCH   1  18
TORSDOF 6
ENDMDL
MODEL 2
REMARK VINA RESULT:      -6.3      2.919      6.335
REMARK  6 active torsions:
REMARK  status: ('A' for Active; 'I' for Inactive)
REMARK    1  A    between atoms: C_8  and  C_21 
REMARK    2  A    between atoms: C_10  and  C_17 
REMARK    3  A    between atoms: C_10  and  C_20 
REMARK    4  A    between atoms: C_10  and  N_18 
REMARK    5  A    between atoms: N_11  and  C_21 
REMARK       I    between atoms: N_11  and  C_17 
REMARK    6  A    between atoms: C_19  and  C_20 
ROOT
HETATM    1  C           1     -21.308  -3.916 -10.520  0.00  0.00     0.280 C 
ENDROOT
BRANCH   1   2
HETATM    2  C           1     -21.687  -3.919  -9.059  0.00  0.00     0.249 C 
HETATM    3  N           1     -20.766  -4.285  -8.114  0.00  0.00    -0.349 N 
HETATM    4  H           1     -19.832  -4.552  -8.395  0.00  0.00     0.163 HD
HETATM    5  O           1     -22.803  -3.602  -8.723  0.00  0.00    -0.271 OA
BRANCH   3   6
HETATM    6  C           1     -21.130  -4.290  -6.711  0.00  0.00     0.235 C 
BRANCH   6   7
HETATM    7  C           1     -21.510  -5.690  -6.293  0.00  0.00     0.191 C 
HETATM    8  O           1     -20.977  -6.674  -6.850  0.00  0.00    -0.647 OA
HETATM    9  O           1     -22.354  -5.865  -5.388  0.00  0.00    -0.647 OA
ENDBRANCH   6   7
ENDBRANCH   3   6
ENDBRANCH   1   2
BRANCH   1  10
HETATM   10  C           1     -22.407  -4.589 -11.331  0.00  0.00     0.101 C 
BRANCH  10  11
HETATM   11  C           1     -22.938  -3.628 -12.349  0.00  0.00     0.028 A 
HETATM   12  C           1     -24.103  -2.912 -12.215  0.00  0.00     0.114 A 
HETATM   13  N           1     -24.199  -2.173 -13.361  0.00  0.00    -0.360 N 
HETATM   14  C           1     -23.109  -2.467 -14.131  0.00  0.00     0.180 A 
HETATM   15  H           1     -24.969  -1.504 -13.607  0.00  0.00     0.166 HD
HETATM   16  N           1     -22.328  -3.345 -13.544  0.00  0.00    -0.355 N 
ATOM     17  HN          1     -21.455  -3.733 -13.901  1.00  0.00     0.166 HD
ENDBRANCH  10  11
ENDBRANCH   1  10
BRANCH   1  18
HETATM   18  N           1     -20.022  -4.664 -10.704  0.00  0.00    -0.066 N 
HETATM   19  H           1     -19.274  -4.002 -11.010  0.00  0.00     0.275 HD
HETATM   20  H           1     -19.744  -5.108  -9.799  0.00  0.00     0.275 HD
HETATM   21  H           1     -20.149  -5.405 -11.431  0.00  0.00     0.275 HD
ENDBRANCH   1  18
TORSDOF 6
ENDMDL
MODEL 3
REMARK VINA RESULT:      -6.2      3.394      6.260
REMARK  6 active torsions:
REMARK  status: ('A' for Active; 'I' for Inactive)
REMARK    1  A    between atoms: C_8  and  C_21 
REMARK    2  A    between atoms: C_10  and  C_17 
REMARK    3  A    between atoms: C_10  and  C_20 
REMARK    4  A    between atoms: C_10  and  N_18 
REMARK    5  A    between atoms: N_11  and  C_21 
REMARK       I    between atoms: N_11  and  C_17 
REMARK    6  A    between atoms: C_19  and  C_20 
ROOT
HETATM    1  C           1     -23.303  -4.183  -9.023  0.00  0.00     0.280 C 
ENDROOT
BRANCH   1   2
HETATM    2  C           1     -22.622  -4.380  -7.691  0.00  0.00     0.249 C 
HETATM    3  N           1     -21.258  -4.308  -7.602  0.00  0.00    -0.349 N 
HETATM    4  H           1     -20.706  -4.121  -8.430  0.00  0.00     0.163 HD
HETATM    5  O           1     -23.280  -4.604  -6.703  0.00  0.00    -0.271 OA
BRANCH   3   6
HETATM    6  C           1     -20.603  -4.498  -6.323  0.00  0.00     0.235 C 
BRANCH   6   7
HETATM    7  C           1     -20.253  -5.956  -6.148  0.00  0.00     0.191 C 
HETATM    8  O           1     -20.591  -6.559  -5.106  0.00  0.00    -0.647 OA
HETATM    9  O           1     -19.628  -6.561  -7.046  0.00  0.00    -0.647 OA
ENDBRANCH   6   7
ENDBRANCH   3   6
ENDBRANCH   1   2
BRANCH   1  10
HETATM   10  C           1     -22.320  -3.562 -10.008  0.00  0.00     0.101 C 
BRANCH  10  11
HETATM   11  C           1     -22.944  -3.501 -11.367  0.00  0.00     0.028 A 
HETATM   12  C           1     -23.458  -4.583 -12.041  0.00  0.00     0.114 A 
HETATM   13  N           1     -23.918  -4.077 -13.225  0.00  0.00    -0.360 N 
HETATM   14  C           1     -23.668  -2.735 -13.222  0.00  0.00     0.180 A 
HETATM   15  H           1     -24.379  -4.621 -13.996  0.00  0.00     0.166 HD
HETATM   16  N           1     -23.079  -2.357 -12.111  0.00  0.00    -0.355 N 
ATOM     17  HN          1     -22.784  -1.414 -11.855  1.00  0.00     0.166 HD
ENDBRANCH  10  11
ENDBRANCH   1  10
BRANCH   1  18
HETATM   18  N           1     -24.481  -3.271  -8.853  0.00  0.00    -0.066 N 
HETATM   19  H           1     -24.188  -2.418  -8.326  0.00  0.00     0.275 HD
HETATM   20  H           1     -24.844  -2.993  -9.793  0.00  0.00     0.275 HD
HETATM   21  H           1     -25.233  -3.768  -8.322  0.00  0.00     0.275 HD
ENDBRANCH   1  18
TORSDOF 6
ENDMDL
MODEL 4
REMARK VINA RESULT:      -6.2     12.063     14.309
REMARK  6 active torsions:
REMARK  status: ('A' for Active; 'I' for Inactive)
REMARK    1  A    between atoms: C_8  and  C_21 
REMARK    2  A    between atoms: C_10  and  C_17 
REMARK    3  A    between atoms: C_10  and  C_20 
REMARK    4  A    between atoms: C_10  and  N_18 
REMARK    5  A    between atoms: N_11  and  C_21 
REMARK       I    between atoms: N_11  and  C_17 
REMARK    6  A    between atoms: C_19  and  C_20 
ROOT
HETATM    1  C           1     -35.616  -0.595 -12.417  0.00  0.00     0.280 C 
ENDROOT
BRANCH   1   2
HETATM    2  C           1     -34.612  -1.654 -12.032  0.00  0.00     0.249 C 
HETATM    3  N           1     -34.470  -2.774 -12.806  0.00  0.00    -0.349 N 
HETATM    4  H           1     -35.036  -2.892 -13.636  0.00  0.00     0.163 HD
HETATM    5  O           1     -33.936  -1.514 -11.041  0.00  0.00    -0.271 OA
BRANCH   3   6
HETATM    6  C           1     -33.506  -3.793 -12.436  0.00  0.00     0.235 C 
BRANCH   6   7
HETATM    7  C           1     -34.224  -4.960 -11.804  0.00  0.00     0.191 C 
HETATM    8  O           1     -33.955  -5.298 -10.631  0.00  0.00    -0.647 OA
HETATM    9  O           1     -35.090  -5.586 -12.453  0.00  0.00    -0.647 OA
ENDBRANCH   6   7
ENDBRANCH   3   6
ENDBRANCH   1   2
BRANCH   1  10
HETATM   10  C           1     -35.044   0.262 -13.540  0.00  0.00     0.101 C 
BRANCH  10  11
HETATM   11  C           1     -35.667  -0.137 -14.841  0.00  0.00     0.028 A 
HETATM   12  C           1     -36.920   0.244 -15.258  0.00  0.00     0.114 A 
HETATM   13  N           1     -37.079  -0.340 -16.484  0.00  0.00    -0.360 N 
HETATM   14  C           1     -35.938  -1.039 -16.756  0.00  0.00     0.180 A 
HETATM   15  H           1     -37.923  -0.266 -17.103  0.00  0.00     0.166 HD
HETATM   16  N           1     -35.065  -0.935 -15.780  0.00  0.00    -0.355 N 
ATOM     17  HN          1     -34.138  -1.358 -15.730  1.00  0.00     0.166 HD
ENDBRANCH  10  11
ENDBRANCH   1  10
BRANCH   1  18
HETATM   18  N           1     -35.910   0.271 -11.229  0.00  0.00    -0.066 N 
HETATM   19  H           1     -36.606   1.003 -11.495  0.00  0.00     0.275 HD
HETATM   20  H           1     -36.301  -0.317 -10.458  0.00  0.00     0.275 HD
HETATM   21  H           1     -35.029   0.730 -10.904  0.00  0.00     0.275 HD
ENDBRANCH   1  18
TORSDOF 6
ENDMDL
MODEL 5
REMARK VINA RESULT:      -6.0     11.714     12.999
REMARK  6 active torsions:
REMARK  status: ('A' for Active; 'I' for Inactive)
REMARK    1  A    between atoms: C_8  and  C_21 
REMARK    2  A    between atoms: C_10  and  C_17 
REMARK    3  A    between atoms: C_10  and  C_20 
REMARK    4  A    between atoms: C_10  and  N_18 
REMARK    5  A    between atoms: N_11  and  C_21 
REMARK       I    between atoms: N_11  and  C_17 
REMARK    6  A    between atoms: C_19  and  C_20 
ROOT
HETATM    1  C           1     -34.213  -2.060 -11.620  0.00  0.00     0.280 C 
ENDROOT
BRANCH   1   2
HETATM    2  C           1     -34.877  -0.874 -12.276  0.00  0.00     0.249 C 
HETATM    3  N           1     -35.021  -0.838 -13.637  0.00  0.00    -0.349 N 
HETATM    4  H           1     -34.684  -1.606 -14.203  0.00  0.00     0.163 HD
HETATM    5  O           1     -35.279   0.043 -11.601  0.00  0.00    -0.271 OA
BRANCH   3   6
HETATM    6  C           1     -35.658   0.301 -14.268  0.00  0.00     0.235 C 
BRANCH   6   7
HETATM    7  C           1     -36.961  -0.133 -14.894  0.00  0.00     0.191 C 
HETATM    8  O           1     -37.187   0.110 -16.099  0.00  0.00    -0.647 OA
HETATM    9  O           1     -37.813  -0.738 -14.208  0.00  0.00    -0.647 OA
ENDBRANCH   6   7
ENDBRANCH   3   6
ENDBRANCH   1   2
BRANCH   1  10
HETATM   10  C           1     -35.248  -3.151 -11.377  0.00  0.00     0.101 C 
BRANCH  10  11
HETATM   11  C           1     -34.558  -4.469 -11.212  0.00  0.00     0.028 A 
HETATM   12  C           1     -33.327  -4.778 -11.739  0.00  0.00     0.114 A 
HETATM   13  N           1     -33.087  -6.066 -11.349  0.00  0.00    -0.360 N 
HETATM   14  C           1     -34.163  -6.479 -10.615  0.00  0.00     0.180 A 
HETATM   15  H           1     -32.234  -6.635 -11.572  0.00  0.00     0.166 HD
HETATM   16  N           1     -35.069  -5.534 -10.516  0.00  0.00    -0.355 N 
ATOM     17  HN          1     -35.963  -5.581 -10.025  1.00  0.00     0.166 HD
ENDBRANCH  10  11
ENDBRANCH   1  10
BRANCH   1  18
HETATM   18  N           1     -33.615  -1.638 -10.311  0.00  0.00    -0.066 N 
HETATM   19  H           1     -32.573  -1.655 -10.382  0.00  0.00     0.275 HD
HETATM   20  H           1     -33.933  -0.669 -10.080  0.00  0.00     0.275 HD
HETATM   21  H           1     -33.924  -2.294  -9.558  0.00  0.00     0.275 HD
ENDBRANCH   1  18
TORSDOF 6
ENDMDL
MODEL 6
REMARK VINA RESULT:      -5.9     11.891     13.696
REMARK  6 active torsions:
REMARK  status: ('A' for Active; 'I' for Inactive)
REMARK    1  A    between atoms: C_8  and  C_21 
REMARK    2  A    between atoms: C_10  and  C_17 
REMARK    3  A    between atoms: C_10  and  C_20 
REMARK    4  A    between atoms: C_10  and  N_18 
REMARK    5  A    between atoms: N_11  and  C_21 
REMARK       I    between atoms: N_11  and  C_17 
REMARK    6  A    between atoms: C_19  and  C_20 
ROOT
HETATM    1  C           1     -36.071  -0.416 -11.226  0.00  0.00     0.280 C 
ENDROOT
BRANCH   1   2
HETATM    2  C           1     -36.846  -0.295 -12.516  0.00  0.00     0.249 C 
HETATM    3  N           1     -36.195   0.025 -13.677  0.00  0.00    -0.349 N 
HETATM    4  H           1     -35.195   0.179 -13.671  0.00  0.00     0.163 HD
HETATM    5  O           1     -38.040  -0.477 -12.523  0.00  0.00    -0.271 OA
BRANCH   3   6
HETATM    6  C           1     -36.938   0.143 -14.916  0.00  0.00     0.235 C 
BRANCH   6   7
HETATM    7  C           1     -36.292  -0.718 -15.975  0.00  0.00     0.191 C 
HETATM    8  O           1     -36.752  -0.728 -17.137  0.00  0.00    -0.647 OA
HETATM    9  O           1     -35.296  -1.417 -15.690  0.00  0.00    -0.647 OA
ENDBRANCH   6   7
ENDBRANCH   3   6
ENDBRANCH   1   2
BRANCH   1  10
HETATM   10  C           1     -36.278  -1.806 -10.639  0.00  0.00     0.101 C 
BRANCH  10  11
HETATM   11  C           1     -35.074  -2.652 -10.919  0.00  0.00     0.028 A 
HETATM   12  C           1     -33.793  -2.170 -11.045  0.00  0.00     0.114 A 
HETATM   13  N           1     -33.023  -3.273 -11.294  0.00  0.00    -0.360 N 
HETATM   14  C           1     -33.853  -4.357 -11.309  0.00  0.00     0.180 A 
HETATM   15  H           1     -31.985  -3.284 -11.447  0.00  0.00     0.166 HD
HETATM   16  N           1     -35.101  -4.012 -11.085  0.00  0.00    -0.355 N 
ATOM     17  HN          1     -35.915  -4.625 -11.044  1.00  0.00     0.166 HD
ENDBRANCH  10  11
ENDBRANCH   1  10
BRANCH   1  18
HETATM   18  N           1     -36.558   0.615 -10.252  0.00  0.00    -0.066 N 
HETATM   19  H           1     -35.828   1.352 -10.131  0.00  0.00     0.275 HD
HETATM   20  H           1     -37.436   1.050 -10.615  0.00  0.00     0.275 HD
HETATM   21  H           1     -36.751   0.161  -9.330  0.00  0.00     0.275 HD
ENDBRANCH   1  18
TORSDOF 6
ENDMDL
MODEL 7
REMARK VINA RESULT:      -5.7      3.513      6.711
REMARK  6 active torsions:
REMARK  status: ('A' for Active; 'I' for Inactive)
REMARK    1  A    between atoms: C_8  and  C_21 
REMARK    2  A    between atoms: C_10  and  C_17 
REMARK    3  A    between atoms: C_10  and  C_20 
REMARK    4  A    between atoms: C_10  and  N_18 
REMARK    5  A    between atoms: N_11  and  C_21 
REMARK       I    between atoms: N_11  and  C_17 
REMARK    6  A    between atoms: C_19  and  C_20 
ROOT
HETATM    1  C           1     -22.341  -4.684  -9.018  0.00  0.00     0.280 C 
ENDROOT
BRANCH   1   2
HETATM    2  C           1     -21.427  -5.097  -7.890  0.00  0.00     0.249 C 
HETATM    3  N           1     -21.867  -5.034  -6.595  0.00  0.00    -0.349 N 
HETATM    4  H           1     -22.805  -4.712  -6.394  0.00  0.00     0.163 HD
HETATM    5  O           1     -20.306  -5.480  -8.129  0.00  0.00    -0.271 OA
BRANCH   3   6
HETATM    6  C           1     -20.989  -5.429  -5.511  0.00  0.00     0.235 C 
BRANCH   6   7
HETATM    7  C           1     -21.709  -6.402  -4.609  0.00  0.00     0.191 C 
HETATM    8  O           1     -21.968  -7.556  -5.015  0.00  0.00    -0.647 OA
HETATM    9  O           1     -22.044  -6.055  -3.456  0.00  0.00    -0.647 OA
ENDBRANCH   6   7
ENDBRANCH   3   6
ENDBRANCH   1   2
BRANCH   1  10
HETATM   10  C           1     -21.505  -4.246 -10.213  0.00  0.00     0.101 C 
BRANCH  10  11
HETATM   11  C           1     -22.409  -3.838 -11.334  0.00  0.00     0.028 A 
HETATM   12  C           1     -22.442  -2.584 -11.896  0.00  0.00     0.114 A 
HETATM   13  N           1     -23.400  -2.657 -12.869  0.00  0.00    -0.360 N 
HETATM   14  C           1     -23.900  -3.927 -12.858  0.00  0.00     0.180 A 
HETATM   15  H           1     -23.697  -1.878 -13.508  0.00  0.00     0.166 HD
HETATM   16  N           1     -23.320  -4.665 -11.939  0.00  0.00    -0.355 N 
ATOM     17  HN          1     -23.508  -5.644 -11.722  1.00  0.00     0.166 HD
ENDBRANCH  10  11
ENDBRANCH   1  10
BRANCH   1  18
HETATM   18  N           1     -23.206  -3.545  -8.569  0.00  0.00    -0.066 N 
HETATM   19  H           1     -22.990  -2.697  -9.139  0.00  0.00     0.275 HD
HETATM   20  H           1     -24.212  -3.802  -8.695  0.00  0.00     0.275 HD
HETATM   21  H           1     -23.022  -3.343  -7.560  0.00  0.00     0.275 HD
ENDBRANCH   1  18
TORSDOF 6
ENDMDL
MODEL 8
REMARK VINA RESULT:      -5.7      4.088      7.268
REMARK  6 active torsions:
REMARK  status: ('A' for Active; 'I' for Inactive)
REMARK    1  A    between atoms: C_8  and  C_21 
REMARK    2  A    between atoms: C_10  and  C_17 
REMARK    3  A    between atoms: C_10  and  C_20 
REMARK    4  A    between atoms: C_10  and  N_18 
REMARK    5  A    between atoms: N_11  and  C_21 
REMARK       I    between atoms: N_11  and  C_17 
REMARK    6  A    between atoms: C_19  and  C_20 
ROOT
HETATM    1  C           1     -22.119  -4.545  -7.620  0.00  0.00     0.280 C 
ENDROOT
BRANCH   1   2
HETATM    2  C           1     -21.458  -5.653  -6.836  0.00  0.00     0.249 C 
HETATM    3  N           1     -21.877  -5.933  -5.564  0.00  0.00    -0.349 N 
HETATM    4  H           1     -22.630  -5.399  -5.149  0.00  0.00     0.163 HD
HETATM    5  O           1     -20.559  -6.290  -7.331  0.00  0.00    -0.271 OA
BRANCH   3   6
HETATM    6  C           1     -21.243  -6.997  -4.810  0.00  0.00     0.235 C 
BRANCH   6   7
HETATM    7  C           1     -21.495  -6.790  -3.336  0.00  0.00     0.191 C 
HETATM    8  O           1     -22.366  -5.976  -2.960  0.00  0.00    -0.647 OA
HETATM    9  O           1     -20.836  -7.435  -2.492  0.00  0.00    -0.647 OA
ENDBRANCH   6   7
ENDBRANCH   3   6
ENDBRANCH   1   2
BRANCH   1  10
HETATM   10  C           1     -21.805  -4.714  -9.101  0.00  0.00     0.101 C 
BRANCH  10  11
HETATM   11  C           1     -22.906  -4.113  -9.918  0.00  0.00     0.028 A 
HETATM   12  C           1     -24.235  -4.126  -9.569  0.00  0.00     0.114 A 
HETATM   13  N           1     -24.875  -3.476 -10.588  0.00  0.00    -0.360 N 
HETATM   14  C           1     -23.926  -3.104 -11.497  0.00  0.00     0.180 A 
HETATM   15  H           1     -25.907  -3.297 -10.660  0.00  0.00     0.166 HD
HETATM   16  N           1     -22.725  -3.476 -11.119  0.00  0.00    -0.355 N 
ATOM     17  HN          1     -21.845  -3.325 -11.613  1.00  0.00     0.166 HD
ENDBRANCH  10  11
ENDBRANCH   1  10
BRANCH   1  18
HETATM   18  N           1     -21.600  -3.220  -7.148  0.00  0.00    -0.066 N 
HETATM   19  H           1     -21.436  -3.257  -6.117  0.00  0.00     0.275 HD
HETATM   20  H           1     -20.700  -3.005  -7.636  0.00  0.00     0.275 HD
HETATM   21  H           1     -22.300  -2.474  -7.363  0.00  0.00     0.275 HD
ENDBRANCH   1  18
TORSDOF 6
ENDMDL
MODEL 9
REMARK VINA RESULT:      -5.6      2.082      3.148
REMARK  6 active torsions:
REMARK  status: ('A' for Active; 'I' for Inactive)
REMARK    1  A    between atoms: C_8  and  C_21 
REMARK    2  A    between atoms: C_10  and  C_17 
REMARK    3  A    between atoms: C_10  and  C_20 
REMARK    4  A    between atoms: C_10  and  N_18 
REMARK    5  A    between atoms: N_11  and  C_21 
REMARK       I    between atoms: N_11  and  C_17 
REMARK    6  A    between atoms: C_19  and  C_20 
ROOT
HETATM    1  C           1     -20.758  -4.614  -8.684  0.00  0.00     0.280 C 
ENDROOT
BRANCH   1   2
HETATM    2  C           1     -21.225  -4.203 -10.059  0.00  0.00     0.249 C 
HETATM    3  N           1     -22.457  -3.631 -10.220  0.00  0.00    -0.349 N 
HETATM    4  H           1     -23.055  -3.481  -9.417  0.00  0.00     0.163 HD
HETATM    5  O           1     -20.512  -4.382 -11.018  0.00  0.00    -0.271 OA
BRANCH   3   6
HETATM    6  C           1     -22.907  -3.236 -11.541  0.00  0.00     0.235 C 
BRANCH   6   7
HETATM    7  C           1     -24.416  -3.205 -11.571  0.00  0.00     0.191 C 
HETATM    8  O           1     -25.017  -3.128 -12.664  0.00  0.00    -0.647 OA
HETATM    9  O           1     -25.063  -3.260 -10.503  0.00  0.00    -0.647 OA
ENDBRANCH   6   7
ENDBRANCH   3   6
ENDBRANCH   1   2
BRANCH   1  10
HETATM   10  C           1     -21.910  -4.483  -7.696  0.00  0.00     0.101 C 
BRANCH  10  11
HETATM   11  C           1     -21.747  -5.489  -6.600  0.00  0.00     0.028 A 
HETATM   12  C           1     -20.683  -6.350  -6.481  0.00  0.00     0.114 A 
HETATM   13  N           1     -20.941  -7.080  -5.354  0.00  0.00    -0.360 N 
HETATM   14  C           1     -22.130  -6.640  -4.845  0.00  0.00     0.180 A 
HETATM   15  H           1     -20.337  -7.839  -4.953  0.00  0.00     0.166 HD
HETATM   16  N           1     -22.642  -5.679  -5.578  0.00  0.00    -0.355 N 
ATOM     17  HN          1     -23.517  -5.179  -5.422  1.00  0.00     0.166 HD
ENDBRANCH  10  11
ENDBRANCH   1  10
BRANCH   1  18
HETATM   18  N           1     -19.628  -3.727  -8.253  0.00  0.00    -0.066 N 
HETATM   19  H           1     -18.746  -4.284  -8.204  0.00  0.00     0.275 HD
HETATM   20  H           1     -19.512  -2.951  -8.945  0.00  0.00     0.275 HD
HETATM   21  H           1     -19.839  -3.324  -7.312  0.00  0.00     0.275 HD
ENDBRANCH   1  18
TORSDOF 6
ENDMDL
