MODEL 1
REMARK VINA RESULT:      -6.7      0.000      0.000
REMARK  11 active torsions:
REMARK  status: ('A' for Active; 'I' for Inactive)
REMARK    1  A    between atoms: O_2  and  P_3 
REMARK    2  A    between atoms: P_3  and  O_4 
REMARK    3  A    between atoms: O_4  and  C_5 
REMARK    4  A    between atoms: C_5  and  C_6 
REMARK    5  A    between atoms: C_6  and  C_7 
REMARK    6  A    between atoms: C_6  and  N_24 
REMARK       I    between atoms: C_7  and  N_8 
REMARK    7  A    between atoms: N_8  and  C_12 
REMARK    8  A    between atoms: C_11  and  C_12 
REMARK    9  A    between atoms: C_12  and  C_13 
REMARK   10  A    between atoms: C_13  and  C_14 
REMARK   11  A    between atoms: C_14  and  C_16 
ROOT
HETATM    1  C           1     -21.801  -4.136  -9.614  0.00  0.00     0.251 C 
HETATM    2  N           1     -22.556  -4.089 -10.755  0.00  0.00    -0.345 N 
HETATM    3  H           1     -22.335  -4.697 -11.534  0.00  0.00     0.163 HD
HETATM    4  O           1     -22.064  -3.409  -8.686  0.00  0.00    -0.271 OA
ENDROOT
BRANCH   1   5
HETATM    5  C           1     -20.640  -5.095  -9.516  0.00  0.00     0.298 C 
BRANCH   5   6
HETATM    6  C           1     -20.021  -5.005  -8.127  0.00  0.00     0.224 C 
BRANCH   6   7
HETATM    7  O           1     -20.414  -6.116  -7.367  0.00  0.00    -0.287 OA
BRANCH   7   8
HETATM    8  P           1     -20.844  -5.813  -5.841  0.00  0.00     0.406 P 
HETATM    9  O           1     -20.462  -6.958  -4.985  0.00  0.00    -0.624 OA
HETATM   10  O           1     -20.155  -4.591  -5.368  0.00  0.00    -0.624 OA
BRANCH   8  11
HETATM   11  O           1     -22.443  -5.593  -5.764  0.00  0.00    -0.300 OA
HETATM   12  H           1     -22.592  -4.755  -6.166  0.00  0.00     0.223 HD
ENDBRANCH   8  11
ENDBRANCH   7   8
ENDBRANCH   6   7
ENDBRANCH   5   6
BRANCH   5  13
HETATM   13  N           1     -19.609  -4.738 -10.546  0.00  0.00    -0.064 N 
HETATM   14  H           1     -20.065  -4.660 -11.482  0.00  0.00     0.275 HD
HETATM   15  H           1     -18.875  -5.481 -10.575  0.00  0.00     0.275 HD
HETATM   16  H           1     -19.169  -3.824 -10.295  0.00  0.00     0.275 HD
ENDBRANCH   5  13
ENDBRANCH   1   5
BRANCH   2  17
HETATM   17  C           1     -23.671  -3.167 -10.849  0.00  0.00     0.186 C 
BRANCH  17  18
HETATM   18  C           1     -24.853  -3.730 -10.100  0.00  0.00     0.196 C 
HETATM   19  O           1     -24.888  -4.945  -9.808  0.00  0.00    -0.646 OA
HETATM   20  O           1     -25.798  -2.981  -9.770  0.00  0.00    -0.646 OA
ENDBRANCH  17  18
BRANCH  17  21
HETATM   21  C           1     -24.044  -2.971 -12.314  0.00  0.00     0.046 C 
BRANCH  21  22
HETATM   22  C           1     -22.781  -2.976 -13.164  0.00  0.00     0.116 C 
BRANCH  22  23
HETATM   23  C           1     -23.097  -2.440 -14.539  0.00  0.00     0.172 C 
HETATM   24  O           1     -24.050  -1.645 -14.697  0.00  0.00    -0.648 OA
HETATM   25  O           1     -22.406  -2.790 -15.520  0.00  0.00    -0.648 OA
ENDBRANCH  22  23
ENDBRANCH  21  22
ENDBRANCH  17  21
ENDBRANCH   2  17
TORSDOF 11
ENDMDL
MODEL 2
REMARK VINA RESULT:      -6.6      1.651      2.091
REMARK  11 active torsions:
REMARK  status: ('A' for Active; 'I' for Inactive)
REMARK    1  A    between atoms: O_2  and  P_3 
REMARK    2  A    between atoms: P_3  and  O_4 
REMARK    3  A    between atoms: O_4  and  C_5 
REMARK    4  A    between atoms: C_5  and  C_6 
REMARK    5  A    between atoms: C_6  and  C_7 
REMARK    6  A    between atoms: C_6  and  N_24 
REMARK       I    between atoms: C_7  and  N_8 
REMARK    7  A    between atoms: N_8  and  C_12 
REMARK    8  A    between atoms: C_11  and  C_12 
REMARK    9  A    between atoms: C_12  and  C_13 
REMARK   10  A    between atoms: C_13  and  C_14 
REMARK   11  A    between atoms: C_14  and  C_16 
ROOT
HETATM    1  C           1     -21.218  -4.354  -8.384  0.00  0.00     0.251 C 
HETATM    2  N           1     -21.734  -4.607  -9.626  0.00  0.00    -0.345 N 
HETATM    3  H           1     -21.534  -5.485 -10.088  0.00  0.00     0.163 HD
HETATM    4  O           1     -21.455  -3.305  -7.833  0.00  0.00    -0.271 OA
ENDROOT
BRANCH   1   5
HETATM    5  C           1     -20.351  -5.384  -7.703  0.00  0.00     0.298 C 
BRANCH   5   6
HETATM    6  C           1     -21.214  -6.261  -6.804  0.00  0.00     0.224 C 
BRANCH   6   7
HETATM    7  O           1     -20.654  -6.309  -5.520  0.00  0.00    -0.287 OA
BRANCH   7   8
HETATM    8  P           1     -21.676  -6.632  -4.313  0.00  0.00     0.406 P 
HETATM    9  O           1     -21.255  -5.897  -3.099  0.00  0.00    -0.624 OA
HETATM   10  O           1     -23.042  -6.208  -4.698  0.00  0.00    -0.624 OA
BRANCH   8  11
HETATM   11  O           1     -21.671  -8.218  -4.011  0.00  0.00    -0.300 OA
HETATM   12  H           1     -21.950  -8.620  -4.816  0.00  0.00     0.223 HD
ENDBRANCH   8  11
ENDBRANCH   7   8
ENDBRANCH   6   7
ENDBRANCH   5   6
BRANCH   5  13
HETATM   13  N           1     -19.310  -4.692  -6.874  0.00  0.00    -0.064 N 
HETATM   14  H           1     -19.671  -4.557  -5.903  0.00  0.00     0.275 HD
HETATM   15  H           1     -19.090  -3.762  -7.298  0.00  0.00     0.275 HD
HETATM   16  H           1     -18.444  -5.275  -6.845  0.00  0.00     0.275 HD
ENDBRANCH   5  13
ENDBRANCH   1   5
BRANCH   2  17
HETATM   17  C           1     -22.566  -3.615 -10.281  0.00  0.00     0.186 C 
BRANCH  17  18
HETATM   18  C           1     -24.014  -3.878  -9.950  0.00  0.00     0.196 C 
HETATM   19  O           1     -24.732  -2.956  -9.505  0.00  0.00    -0.646 OA
HETATM   20  O           1     -24.497  -5.018 -10.120  0.00  0.00    -0.646 OA
ENDBRANCH  17  18
BRANCH  17  21
HETATM   21  C           1     -22.365  -3.702 -11.788  0.00  0.00     0.046 C 
BRANCH  21  22
HETATM   22  C           1     -22.828  -2.405 -12.438  0.00  0.00     0.116 C 
BRANCH  22  23
HETATM   23  C           1     -23.880  -2.708 -13.476  0.00  0.00     0.172 C 
HETATM   24  O           1     -25.064  -2.906 -13.128  0.00  0.00    -0.648 OA
HETATM   25  O           1     -23.567  -2.762 -14.685  0.00  0.00    -0.648 OA
ENDBRANCH  22  23
ENDBRANCH  21  22
ENDBRANCH  17  21
ENDBRANCH   2  17
TORSDOF 11
ENDMDL
MODEL 3
REMARK VINA RESULT:      -6.5      3.183      7.875
REMARK  11 active torsions:
REMARK  status: ('A' for Active; 'I' for Inactive)
REMARK    1  A    between atoms: O_2  and  P_3 
REMARK    2  A    between atoms: P_3  and  O_4 
REMARK    3  A    between atoms: O_4  and  C_5 
REMARK    4  A    between atoms: C_5  and  C_6 
REMARK    5  A    between atoms: C_6  and  C_7 
REMARK    6  A    between atoms: C_6  and  N_24 
REMARK       I    between atoms: C_7  and  N_8 
REMARK    7  A    between atoms: N_8  and  C_12 
REMARK    8  A    between atoms: C_11  and  C_12 
REMARK    9  A    between atoms: C_12  and  C_13 
REMARK   10  A    between atoms: C_13  and  C_14 
REMARK   11  A    between atoms: C_14  and  C_16 
ROOT
HETATM    1  C           1     -22.604  -4.313  -8.458  0.00  0.00     0.251 C 
HETATM    2  N           1     -22.277  -5.403  -7.697  0.00  0.00    -0.345 N 
HETATM    3  H           1     -22.680  -6.307  -7.908  0.00  0.00     0.163 HD
HETATM    4  O           1     -22.124  -3.234  -8.205  0.00  0.00    -0.271 OA
ENDROOT
BRANCH   1   5
HETATM    5  C           1     -23.564  -4.459  -9.612  0.00  0.00     0.298 C 
BRANCH   5   6
HETATM    6  C           1     -22.784  -4.526 -10.919  0.00  0.00     0.224 C 
BRANCH   6   7
HETATM    7  O           1     -23.676  -4.683 -11.989  0.00  0.00    -0.287 OA
BRANCH   7   8
HETATM    8  P           1     -23.949  -3.365 -12.881  0.00  0.00     0.406 P 
HETATM    9  O           1     -25.343  -2.912 -12.679  0.00  0.00    -0.624 OA
HETATM   10  O           1     -23.016  -2.290 -12.471  0.00  0.00    -0.624 OA
BRANCH   8  11
HETATM   11  O           1     -23.716  -3.712 -14.442  0.00  0.00    -0.300 OA
HETATM   12  H           1     -24.568  -3.638 -14.836  0.00  0.00     0.223 HD
ENDBRANCH   8  11
ENDBRANCH   7   8
ENDBRANCH   6   7
ENDBRANCH   5   6
BRANCH   5  13
HETATM   13  N           1     -24.490  -3.279  -9.644  0.00  0.00    -0.064 N 
HETATM   14  H           1     -24.514  -2.882 -10.609  0.00  0.00     0.275 HD
HETATM   15  H           1     -24.150  -2.552  -8.974  0.00  0.00     0.275 HD
HETATM   16  H           1     -25.451  -3.584  -9.368  0.00  0.00     0.275 HD
ENDBRANCH   5  13
ENDBRANCH   1   5
BRANCH   2  17
HETATM   17  C           1     -21.354  -5.262  -6.587  0.00  0.00     0.186 C 
BRANCH  17  18
HETATM   18  C           1     -19.956  -5.586  -7.052  0.00  0.00     0.196 C 
HETATM   19  O           1     -19.582  -6.777  -7.129  0.00  0.00    -0.646 OA
HETATM   20  O           1     -19.171  -4.663  -7.360  0.00  0.00    -0.646 OA
ENDBRANCH  17  18
BRANCH  17  21
HETATM   21  C           1     -21.754  -6.220  -5.472  0.00  0.00     0.046 C 
BRANCH  21  22
HETATM   22  C           1     -21.040  -5.828  -4.185  0.00  0.00     0.116 C 
BRANCH  22  23
HETATM   23  C           1     -21.689  -6.525  -3.015  0.00  0.00     0.172 C 
HETATM   24  O           1     -21.497  -7.746  -2.829  0.00  0.00    -0.648 OA
HETATM   25  O           1     -22.420  -5.881  -2.232  0.00  0.00    -0.648 OA
ENDBRANCH  22  23
ENDBRANCH  21  22
ENDBRANCH  17  21
ENDBRANCH   2  17
TORSDOF 11
ENDMDL
MODEL 4
REMARK VINA RESULT:      -6.4      3.765      8.303
REMARK  11 active torsions:
REMARK  status: ('A' for Active; 'I' for Inactive)
REMARK    1  A    between atoms: O_2  and  P_3 
REMARK    2  A    between atoms: P_3  and  O_4 
REMARK    3  A    between atoms: O_4  and  C_5 
REMARK    4  A    between atoms: C_5  and  C_6 
REMARK    5  A    between atoms: C_6  and  C_7 
REMARK    6  A    between atoms: C_6  and  N_24 
REMARK       I    between atoms: C_7  and  N_8 
REMARK    7  A    between atoms: N_8  and  C_12 
REMARK    8  A    between atoms: C_11  and  C_12 
REMARK    9  A    between atoms: C_12  and  C_13 
REMARK   10  A    between atoms: C_13  and  C_14 
REMARK   11  A    between atoms: C_14  and  C_16 
ROOT
HETATM    1  C           1     -20.683  -4.788  -6.453  0.00  0.00     0.251 C 
HETATM    2  N           1     -21.550  -5.608  -5.782  0.00  0.00    -0.345 N 
HETATM    3  H           1     -22.513  -5.683  -6.085  0.00  0.00     0.163 HD
HETATM    4  O           1     -19.534  -4.697  -6.090  0.00  0.00    -0.271 OA
ENDROOT
BRANCH   1   5
HETATM    5  C           1     -21.162  -3.998  -7.646  0.00  0.00     0.298 C 
BRANCH   5   6
HETATM    6  C           1     -22.651  -4.243  -7.854  0.00  0.00     0.224 C 
BRANCH   6   7
HETATM    7  O           1     -23.146  -3.337  -8.802  0.00  0.00    -0.287 OA
BRANCH   7   8
HETATM    8  P           1     -23.941  -3.982 -10.050  0.00  0.00     0.406 P 
HETATM    9  O           1     -24.317  -2.913 -11.002  0.00  0.00    -0.624 OA
HETATM   10  O           1     -23.073  -4.968 -10.732  0.00  0.00    -0.624 OA
BRANCH   8  11
HETATM   11  O           1     -25.275  -4.720  -9.516  0.00  0.00    -0.300 OA
HETATM   12  H           1     -25.623  -5.167 -10.268  0.00  0.00     0.223 HD
ENDBRANCH   8  11
ENDBRANCH   7   8
ENDBRANCH   6   7
ENDBRANCH   5   6
BRANCH   5  13
HETATM   13  N           1     -20.409  -4.433  -8.868  0.00  0.00    -0.064 N 
HETATM   14  H           1     -20.588  -5.446  -9.045  0.00  0.00     0.275 HD
HETATM   15  H           1     -19.385  -4.279  -8.719  0.00  0.00     0.275 HD
HETATM   16  H           1     -20.728  -3.874  -9.691  0.00  0.00     0.275 HD
ENDBRANCH   5  13
ENDBRANCH   1   5
BRANCH   2  17
HETATM   17  C           1     -21.089  -6.366  -4.635  0.00  0.00     0.186 C 
BRANCH  17  18
HETATM   18  C           1     -20.628  -7.730  -5.087  0.00  0.00     0.196 C 
HETATM   19  O           1     -19.701  -8.310  -4.481  0.00  0.00    -0.646 OA
HETATM   20  O           1     -21.172  -8.279  -6.070  0.00  0.00    -0.646 OA
ENDBRANCH  17  18
BRANCH  17  21
HETATM   21  C           1     -22.232  -6.521  -3.639  0.00  0.00     0.046 C 
BRANCH  21  22
HETATM   22  C           1     -21.778  -6.039  -2.267  0.00  0.00     0.116 C 
BRANCH  22  23
HETATM   23  C           1     -21.958  -7.146  -1.258  0.00  0.00     0.172 C 
HETATM   24  O           1     -22.927  -7.121  -0.468  0.00  0.00    -0.648 OA
HETATM   25  O           1     -21.139  -8.089  -1.213  0.00  0.00    -0.648 OA
ENDBRANCH  22  23
ENDBRANCH  21  22
ENDBRANCH  17  21
ENDBRANCH   2  17
TORSDOF 11
ENDMDL
MODEL 5
REMARK VINA RESULT:      -5.9      5.064      8.875
REMARK  11 active torsions:
REMARK  status: ('A' for Active; 'I' for Inactive)
REMARK    1  A    between atoms: O_2  and  P_3 
REMARK    2  A    between atoms: P_3  and  O_4 
REMARK    3  A    between atoms: O_4  and  C_5 
REMARK    4  A    between atoms: C_5  and  C_6 
REMARK    5  A    between atoms: C_6  and  C_7 
REMARK    6  A    between atoms: C_6  and  N_24 
REMARK       I    between atoms: C_7  and  N_8 
REMARK    7  A    between atoms: N_8  and  C_12 
REMARK    8  A    between atoms: C_11  and  C_12 
REMARK    9  A    between atoms: C_12  and  C_13 
REMARK   10  A    between atoms: C_13  and  C_14 
REMARK   11  A    between atoms: C_14  and  C_16 
ROOT
HETATM    1  C           1     -20.893  -7.951  -5.249  0.00  0.00     0.251 C 
HETATM    2  N           1     -21.669  -8.377  -4.205  0.00  0.00    -0.345 N 
HETATM    3  H           1     -22.543  -7.909  -4.001  0.00  0.00     0.163 HD
HETATM    4  O           1     -19.849  -8.509  -5.492  0.00  0.00    -0.271 OA
ENDROOT
BRANCH   1   5
HETATM    5  C           1     -21.339  -6.785  -6.095  0.00  0.00     0.298 C 
BRANCH   5   6
HETATM    6  C           1     -20.119  -6.026  -6.601  0.00  0.00     0.224 C 
BRANCH   6   7
HETATM    7  O           1     -20.219  -5.851  -7.988  0.00  0.00    -0.287 OA
BRANCH   7   8
HETATM    8  P           1     -21.014  -4.535  -8.481  0.00  0.00     0.406 P 
HETATM    9  O           1     -22.355  -4.923  -8.971  0.00  0.00    -0.624 OA
HETATM   10  O           1     -21.155  -3.591  -7.348  0.00  0.00    -0.624 OA
BRANCH   8  11
HETATM   11  O           1     -20.190  -3.822  -9.674  0.00  0.00    -0.300 OA
HETATM   12  H           1     -19.829  -4.532 -10.177  0.00  0.00     0.223 HD
ENDBRANCH   8  11
ENDBRANCH   7   8
ENDBRANCH   6   7
ENDBRANCH   5   6
BRANCH   5  13
HETATM   13  N           1     -22.192  -5.867  -5.270  0.00  0.00    -0.064 N 
HETATM   14  H           1     -22.310  -4.958  -5.770  0.00  0.00     0.275 HD
HETATM   15  H           1     -21.731  -5.701  -4.346  0.00  0.00     0.275 HD
HETATM   16  H           1     -23.128  -6.305  -5.118  0.00  0.00     0.275 HD
ENDBRANCH   5  13
ENDBRANCH   1   5
BRANCH   2  17
HETATM   17  C           1     -21.239  -9.498  -3.392  0.00  0.00     0.186 C 
BRANCH  17  18
HETATM   18  C           1     -22.020 -10.729  -3.780  0.00  0.00     0.196 C 
HETATM   19  O           1     -21.650 -11.426  -4.750  0.00  0.00    -0.646 OA
HETATM   20  O           1     -23.038 -11.053  -3.131  0.00  0.00    -0.646 OA
ENDBRANCH  17  18
BRANCH  17  21
HETATM   21  C           1     -21.487  -9.181  -1.922  0.00  0.00     0.046 C 
BRANCH  21  22
HETATM   22  C           1     -20.992  -7.774  -1.616  0.00  0.00     0.116 C 
BRANCH  22  23
HETATM   23  C           1     -22.173  -6.858  -1.412  0.00  0.00     0.172 C 
HETATM   24  O           1     -22.433  -5.973  -2.258  0.00  0.00    -0.648 OA
HETATM   25  O           1     -22.893  -6.982  -0.398  0.00  0.00    -0.648 OA
ENDBRANCH  22  23
ENDBRANCH  21  22
ENDBRANCH  17  21
ENDBRANCH   2  17
TORSDOF 11
ENDMDL
MODEL 6
REMARK VINA RESULT:      -5.7      4.589      8.955
REMARK  11 active torsions:
REMARK  status: ('A' for Active; 'I' for Inactive)
REMARK    1  A    between atoms: O_2  and  P_3 
REMARK    2  A    between atoms: P_3  and  O_4 
REMARK    3  A    between atoms: O_4  and  C_5 
REMARK    4  A    between atoms: C_5  and  C_6 
REMARK    5  A    between atoms: C_6  and  C_7 
REMARK    6  A    between atoms: C_6  and  N_24 
REMARK       I    between atoms: C_7  and  N_8 
REMARK    7  A    between atoms: N_8  and  C_12 
REMARK    8  A    between atoms: C_11  and  C_12 
REMARK    9  A    between atoms: C_12  and  C_13 
REMARK   10  A    between atoms: C_13  and  C_14 
REMARK   11  A    between atoms: C_14  and  C_16 
ROOT
HETATM    1  C           1     -21.870  -6.006  -5.522  0.00  0.00     0.251 C 
HETATM    2  N           1     -21.088  -6.806  -4.734  0.00  0.00    -0.345 N 
HETATM    3  H           1     -20.084  -6.823  -4.869  0.00  0.00     0.163 HD
HETATM    4  O           1     -23.067  -5.987  -5.363  0.00  0.00    -0.271 OA
ENDROOT
BRANCH   1   5
HETATM    5  C           1     -21.238  -5.149  -6.591  0.00  0.00     0.298 C 
BRANCH   5   6
HETATM    6  C           1     -22.327  -4.436  -7.382  0.00  0.00     0.224 C 
BRANCH   6   7
HETATM    7  O           1     -22.143  -4.676  -8.751  0.00  0.00    -0.287 OA
BRANCH   7   8
HETATM    8  P           1     -23.314  -4.144  -9.727  0.00  0.00     0.406 P 
HETATM    9  O           1     -22.743  -3.205 -10.718  0.00  0.00    -0.624 OA
HETATM   10  O           1     -23.928  -5.293 -10.432  0.00  0.00    -0.624 OA
BRANCH   8  11
HETATM   11  O           1     -24.441  -3.385  -8.854  0.00  0.00    -0.300 OA
HETATM   12  H           1     -24.775  -4.041  -8.266  0.00  0.00     0.223 HD
ENDBRANCH   8  11
ENDBRANCH   7   8
ENDBRANCH   6   7
ENDBRANCH   5   6
BRANCH   5  13
HETATM   13  N           1     -20.434  -6.015  -7.515  0.00  0.00    -0.064 N 
HETATM   14  H           1     -21.051  -6.750  -7.927  0.00  0.00     0.275 HD
HETATM   15  H           1     -19.659  -6.469  -6.980  0.00  0.00     0.275 HD
HETATM   16  H           1     -20.032  -5.428  -8.280  0.00  0.00     0.275 HD
ENDBRANCH   5  13
ENDBRANCH   1   5
BRANCH   2  17
HETATM   17  C           1     -21.696  -7.631  -3.708  0.00  0.00     0.186 C 
BRANCH  17  18
HETATM   18  C           1     -21.573  -6.941  -2.372  0.00  0.00     0.196 C 
HETATM   19  O           1     -22.263  -5.928  -2.124  0.00  0.00    -0.646 OA
HETATM   20  O           1     -20.780  -7.382  -1.512  0.00  0.00    -0.646 OA
ENDBRANCH  17  18
BRANCH  17  21
HETATM   21  C           1     -20.985  -8.977  -3.652  0.00  0.00     0.046 C 
BRANCH  21  22
HETATM   22  C           1     -22.016 -10.093  -3.555  0.00  0.00     0.116 C 
BRANCH  22  23
HETATM   23  C           1     -22.009 -10.666  -2.159  0.00  0.00     0.172 C 
HETATM   24  O           1     -21.131 -11.492  -1.827  0.00  0.00    -0.648 OA
HETATM   25  O           1     -22.880 -10.314  -1.334  0.00  0.00    -0.648 OA
ENDBRANCH  22  23
ENDBRANCH  21  22
ENDBRANCH  17  21
ENDBRANCH   2  17
TORSDOF 11
ENDMDL
MODEL 7
REMARK VINA RESULT:      -5.7      3.522      7.777
REMARK  11 active torsions:
REMARK  status: ('A' for Active; 'I' for Inactive)
REMARK    1  A    between atoms: O_2  and  P_3 
REMARK    2  A    between atoms: P_3  and  O_4 
REMARK    3  A    between atoms: O_4  and  C_5 
REMARK    4  A    between atoms: C_5  and  C_6 
REMARK    5  A    between atoms: C_6  and  C_7 
REMARK    6  A    between atoms: C_6  and  N_24 
REMARK       I    between atoms: C_7  and  N_8 
REMARK    7  A    between atoms: N_8  and  C_12 
REMARK    8  A    between atoms: C_11  and  C_12 
REMARK    9  A    between atoms: C_12  and  C_13 
REMARK   10  A    between atoms: C_13  and  C_14 
REMARK   11  A    between atoms: C_14  and  C_16 
ROOT
HETATM    1  C           1     -21.870  -5.178  -6.540  0.00  0.00     0.251 C 
HETATM    2  N           1     -21.162  -6.108  -5.829  0.00  0.00    -0.345 N 
HETATM    3  H           1     -20.159  -6.183  -5.951  0.00  0.00     0.163 HD
HETATM    4  O           1     -23.066  -5.090  -6.396  0.00  0.00    -0.271 OA
ENDROOT
BRANCH   1   5
HETATM    5  C           1     -21.158  -4.263  -7.506  0.00  0.00     0.298 C 
BRANCH   5   6
HETATM    6  C           1     -21.483  -4.678  -8.935  0.00  0.00     0.224 C 
BRANCH   6   7
HETATM    7  O           1     -22.154  -3.633  -9.585  0.00  0.00    -0.287 OA
BRANCH   7   8
HETATM    8  P           1     -23.716  -3.885  -9.904  0.00  0.00     0.406 P 
HETATM    9  O           1     -24.180  -2.900 -10.907  0.00  0.00    -0.624 OA
HETATM   10  O           1     -23.895  -5.255 -10.438  0.00  0.00    -0.624 OA
BRANCH   8  11
HETATM   11  O           1     -24.578  -3.719  -8.548  0.00  0.00    -0.300 OA
HETATM   12  H           1     -25.443  -3.484  -8.837  0.00  0.00     0.223 HD
ENDBRANCH   8  11
ENDBRANCH   7   8
ENDBRANCH   6   7
ENDBRANCH   5   6
BRANCH   5  13
HETATM   13  N           1     -19.678  -4.356  -7.282  0.00  0.00    -0.064 N 
HETATM   14  H           1     -19.185  -4.333  -8.203  0.00  0.00     0.275 HD
HETATM   15  H           1     -19.456  -5.251  -6.790  0.00  0.00     0.275 HD
HETATM   16  H           1     -19.362  -3.550  -6.697  0.00  0.00     0.275 HD
ENDBRANCH   5  13
ENDBRANCH   1   5
BRANCH   2  17
HETATM   17  C           1     -21.847  -6.988  -4.902  0.00  0.00     0.186 C 
BRANCH  17  18
HETATM   18  C           1     -21.616  -6.509  -3.491  0.00  0.00     0.196 C 
HETATM   19  O           1     -21.126  -5.377  -3.286  0.00  0.00    -0.646 OA
HETATM   20  O           1     -21.914  -7.244  -2.525  0.00  0.00    -0.646 OA
ENDBRANCH  17  18
BRANCH  17  21
HETATM   21  C           1     -21.304  -8.404  -5.053  0.00  0.00     0.046 C 
BRANCH  21  22
HETATM   22  C           1     -19.784  -8.359  -5.131  0.00  0.00     0.116 C 
BRANCH  22  23
HETATM   23  C           1     -19.238  -9.766  -5.136  0.00  0.00     0.172 C 
HETATM   24  O           1     -18.831 -10.284  -4.073  0.00  0.00    -0.648 OA
HETATM   25  O           1     -19.193 -10.414  -6.204  0.00  0.00    -0.648 OA
ENDBRANCH  22  23
ENDBRANCH  21  22
ENDBRANCH  17  21
ENDBRANCH   2  17
TORSDOF 11
ENDMDL
MODEL 8
REMARK VINA RESULT:      -5.6      4.320      6.237
REMARK  11 active torsions:
REMARK  status: ('A' for Active; 'I' for Inactive)
REMARK    1  A    between atoms: O_2  and  P_3 
REMARK    2  A    between atoms: P_3  and  O_4 
REMARK    3  A    between atoms: O_4  and  C_5 
REMARK    4  A    between atoms: C_5  and  C_6 
REMARK    5  A    between atoms: C_6  and  C_7 
REMARK    6  A    between atoms: C_6  and  N_24 
REMARK       I    between atoms: C_7  and  N_8 
REMARK    7  A    between atoms: N_8  and  C_12 
REMARK    8  A    between atoms: C_11  and  C_12 
REMARK    9  A    between atoms: C_12  and  C_13 
REMARK   10  A    between atoms: C_13  and  C_14 
REMARK   11  A    between atoms: C_14  and  C_16 
ROOT
HETATM    1  C           1     -21.558  -6.422  -4.484  0.00  0.00     0.251 C 
HETATM    2  N           1     -21.148  -5.401  -5.299  0.00  0.00    -0.345 N 
HETATM    3  H           1     -20.653  -4.609  -4.908  0.00  0.00     0.163 HD
HETATM    4  O           1     -22.149  -7.367  -4.950  0.00  0.00    -0.271 OA
ENDROOT
BRANCH   1   5
HETATM    5  C           1     -21.270  -6.368  -3.004  0.00  0.00     0.298 C 
BRANCH   5   6
HETATM    6  C           1     -20.896  -7.758  -2.506  0.00  0.00     0.224 C 
BRANCH   6   7
HETATM    7  O           1     -22.036  -8.396  -1.998  0.00  0.00    -0.287 OA
BRANCH   7   8
HETATM    8  P           1     -21.867  -9.111  -0.561  0.00  0.00     0.406 P 
HETATM    9  O           1     -21.073  -8.239   0.333  0.00  0.00    -0.624 OA
HETATM   10  O           1     -23.202  -9.344   0.034  0.00  0.00    -0.624 OA
BRANCH   8  11
HETATM   11  O           1     -21.107 -10.525  -0.747  0.00  0.00    -0.300 OA
HETATM   12  H           1     -21.756 -11.177  -0.546  0.00  0.00     0.223 HD
ENDBRANCH   8  11
ENDBRANCH   7   8
ENDBRANCH   6   7
ENDBRANCH   5   6
BRANCH   5  13
HETATM   13  N           1     -22.492  -5.889  -2.275  0.00  0.00    -0.064 N 
HETATM   14  H           1     -22.254  -5.036  -1.721  0.00  0.00     0.275 HD
HETATM   15  H           1     -22.830  -6.641  -1.633  0.00  0.00     0.275 HD
HETATM   16  H           1     -23.241  -5.659  -2.966  0.00  0.00     0.275 HD
ENDBRANCH   5  13
ENDBRANCH   1   5
BRANCH   2  17
HETATM   17  C           1     -21.425  -5.454  -6.721  0.00  0.00     0.186 C 
BRANCH  17  18
HETATM   18  C           1     -20.161  -5.805  -7.466  0.00  0.00     0.196 C 
HETATM   19  O           1     -19.455  -6.763  -7.085  0.00  0.00    -0.646 OA
HETATM   20  O           1     -19.819  -5.136  -8.465  0.00  0.00    -0.646 OA
ENDBRANCH  17  18
BRANCH  17  21
HETATM   21  C           1     -21.931  -4.095  -7.189  0.00  0.00     0.046 C 
BRANCH  21  22
HETATM   22  C           1     -23.303  -4.256  -7.829  0.00  0.00     0.116 C 
BRANCH  22  23
HETATM   23  C           1     -23.169  -4.195  -9.331  0.00  0.00     0.172 C 
HETATM   24  O           1     -22.297  -3.466  -9.852  0.00  0.00    -0.648 OA
HETATM   25  O           1     -23.931  -4.873 -10.054  0.00  0.00    -0.648 OA
ENDBRANCH  22  23
ENDBRANCH  21  22
ENDBRANCH  17  21
ENDBRANCH   2  17
TORSDOF 11
ENDMDL
MODEL 9
REMARK VINA RESULT:      -5.5      7.672     10.001
REMARK  11 active torsions:
REMARK  status: ('A' for Active; 'I' for Inactive)
REMARK    1  A    between atoms: O_2  and  P_3 
REMARK    2  A    between atoms: P_3  and  O_4 
REMARK    3  A    between atoms: O_4  and  C_5 
REMARK    4  A    between atoms: C_5  and  C_6 
REMARK    5  A    between atoms: C_6  and  C_7 
REMARK    6  A    between atoms: C_6  and  N_24 
REMARK       I    between atoms: C_7  and  N_8 
REMARK    7  A    between atoms: N_8  and  C_12 
REMARK    8  A    between atoms: C_11  and  C_12 
REMARK    9  A    between atoms: C_12  and  C_13 
REMARK   10  A    between atoms: C_13  and  C_14 
REMARK   11  A    between atoms: C_14  and  C_16 
ROOT
HETATM    1  C           1     -19.208 -10.389  -2.859  0.00  0.00     0.251 C 
HETATM    2  N           1     -20.452  -9.872  -2.621  0.00  0.00    -0.345 N 
HETATM    3  H           1     -20.886  -9.263  -3.305  0.00  0.00     0.163 HD
HETATM    4  O           1     -18.690 -11.115  -2.043  0.00  0.00    -0.271 OA
ENDROOT
BRANCH   1   5
HETATM    5  C           1     -18.482 -10.054  -4.138  0.00  0.00     0.298 C 
BRANCH   5   6
HETATM    6  C           1     -19.446  -9.389  -5.111  0.00  0.00     0.224 C 
BRANCH   6   7
HETATM    7  O           1     -19.506  -8.014  -4.845  0.00  0.00    -0.287 OA
BRANCH   7   8
HETATM    8  P           1     -20.906  -7.287  -5.185  0.00  0.00     0.406 P 
HETATM    9  O           1     -21.041  -7.137  -6.651  0.00  0.00    -0.624 OA
HETATM   10  O           1     -22.026  -8.105  -4.667  0.00  0.00    -0.624 OA
BRANCH   8  11
HETATM   11  O           1     -20.940  -5.829  -4.491  0.00  0.00    -0.300 OA
HETATM   12  H           1     -20.086  -5.465  -4.648  0.00  0.00     0.223 HD
ENDBRANCH   8  11
ENDBRANCH   7   8
ENDBRANCH   6   7
ENDBRANCH   5   6
BRANCH   5  13
HETATM   13  N           1     -17.942 -11.313  -4.751  0.00  0.00    -0.064 N 
HETATM   14  H           1     -17.994 -11.242  -5.792  0.00  0.00     0.275 HD
HETATM   15  H           1     -18.510 -12.128  -4.427  0.00  0.00     0.275 HD
HETATM   16  H           1     -16.948 -11.443  -4.459  0.00  0.00     0.275 HD
ENDBRANCH   5  13
ENDBRANCH   1   5
BRANCH   2  17
HETATM   17  C           1     -21.149 -10.194  -1.391  0.00  0.00     0.186 C 
BRANCH  17  18
HETATM   18  C           1     -22.573 -10.580  -1.707  0.00  0.00     0.196 C 
HETATM   19  O           1     -23.453 -10.505  -0.823  0.00  0.00    -0.646 OA
HETATM   20  O           1     -22.872 -10.976  -2.855  0.00  0.00    -0.646 OA
ENDBRANCH  17  18
BRANCH  17  21
HETATM   21  C           1     -21.145  -8.977  -0.474  0.00  0.00     0.046 C 
BRANCH  21  22
HETATM   22  C           1     -21.031  -7.710  -1.311  0.00  0.00     0.116 C 
BRANCH  22  23
HETATM   23  C           1     -22.297  -6.900  -1.174  0.00  0.00     0.172 C 
HETATM   24  O           1     -22.540  -5.978  -1.982  0.00  0.00    -0.648 OA
HETATM   25  O           1     -23.102  -7.152  -0.252  0.00  0.00    -0.648 OA
ENDBRANCH  22  23
ENDBRANCH  21  22
ENDBRANCH  17  21
ENDBRANCH   2  17
TORSDOF 11
ENDMDL
