MODEL 1
REMARK VINA RESULT:      -5.5      0.000      0.000
REMARK  8 active torsions:
REMARK  status: ('A' for Active; 'I' for Inactive)
REMARK    1  A    between atoms: C_1  and  C_9 
REMARK       I    between atoms: C_3  and  N_4 
REMARK    2  A    between atoms: C_3  and  C_15 
REMARK    3  A    between atoms: N_4  and  C_9 
REMARK    4  A    between atoms: O_8  and  C_10 
REMARK    5  A    between atoms: C_9  and  C_10 
REMARK    6  A    between atoms: S_13  and  C_14 
REMARK    7  A    between atoms: C_14  and  C_15 
REMARK    8  A    between atoms: C_15  and  N_16 
ROOT
HETATM    1  H           1     -33.993  -0.781 -14.199  0.00  0.00     0.163 HD
HETATM    2  C           1     -35.467  -1.285 -12.836  0.00  0.00     0.249 C 
HETATM    3  N           1     -34.986  -0.761 -14.006  0.00  0.00    -0.343 N 
HETATM    4  O           1     -36.653  -1.260 -12.605  0.00  0.00    -0.271 OA
ENDROOT
BRANCH   2   5
HETATM    5  C           1     -34.517  -1.893 -11.834  0.00  0.00     0.283 C 
BRANCH   5   6
HETATM    6  C           1     -34.598  -3.411 -11.913  0.00  0.00     0.113 C 
BRANCH   6   7
HETATM    7  S           1     -32.924  -4.112 -11.856  0.00  0.00    -0.180 SA
HETATM    8  H           1     -32.879  -4.259 -10.520  0.00  0.00     0.101 HD
ENDBRANCH   6   7
ENDBRANCH   5   6
BRANCH   5   9
HETATM    9  N           1     -34.893  -1.444 -10.453  0.00  0.00    -0.066 N 
HETATM   10  H           1     -34.426  -2.058  -9.748  0.00  0.00     0.275 HD
HETATM   11  H           1     -35.930  -1.506 -10.336  0.00  0.00     0.275 HD
HETATM   12  H           1     -34.585  -0.456 -10.312  0.00  0.00     0.275 HD
ENDBRANCH   5   9
ENDBRANCH   2   5
BRANCH   3  13
HETATM   13  C           1     -35.901  -0.177 -14.968  0.00  0.00     0.209 C 
BRANCH  13  14
HETATM   14  C           1     -35.896  -1.003 -16.231  0.00  0.00     0.198 C 
HETATM   15  O           1     -36.699  -0.741 -17.152  0.00  0.00    -0.646 OA
HETATM   16  O           1     -35.087  -1.948 -16.356  0.00  0.00    -0.646 OA
ENDBRANCH  13  14
BRANCH  13  17
HETATM   17  C           1     -35.458   1.245 -15.289  0.00  0.00     0.200 C 
BRANCH  17  18
HETATM   18  O           1     -36.461   1.893 -16.024  0.00  0.00    -0.398 OA
HETATM   19  H           1     -36.937   2.434 -15.419  0.00  0.00     0.209 HD
ENDBRANCH  17  18
ENDBRANCH  13  17
ENDBRANCH   3  13
TORSDOF 8
ENDMDL
MODEL 2
REMARK VINA RESULT:      -5.2      3.029      5.004
REMARK  8 active torsions:
REMARK  status: ('A' for Active; 'I' for Inactive)
REMARK    1  A    between atoms: C_1  and  C_9 
REMARK       I    between atoms: C_3  and  N_4 
REMARK    2  A    between atoms: C_3  and  C_15 
REMARK    3  A    between atoms: N_4  and  C_9 
REMARK    4  A    between atoms: O_8  and  C_10 
REMARK    5  A    between atoms: C_9  and  C_10 
REMARK    6  A    between atoms: S_13  and  C_14 
REMARK    7  A    between atoms: C_14  and  C_15 
REMARK    8  A    between atoms: C_15  and  N_16 
ROOT
HETATM    1  H           1     -34.056  -1.720 -13.900  0.00  0.00     0.163 HD
HETATM    2  C           1     -35.782  -0.920 -13.083  0.00  0.00     0.249 C 
HETATM    3  N           1     -34.755  -1.821 -13.175  0.00  0.00    -0.343 N 
HETATM    4  O           1     -36.617  -1.041 -12.219  0.00  0.00    -0.271 OA
ENDROOT
BRANCH   2   5
HETATM    5  C           1     -35.871   0.225 -14.062  0.00  0.00     0.283 C 
BRANCH   5   6
HETATM    6  C           1     -36.899  -0.103 -15.136  0.00  0.00     0.113 C 
BRANCH   6   7
HETATM    7  S           1     -36.073  -0.896 -16.545  0.00  0.00    -0.180 SA
HETATM    8  H           1     -35.969   0.219 -17.291  0.00  0.00     0.101 HD
ENDBRANCH   6   7
ENDBRANCH   5   6
BRANCH   5   9
HETATM    9  N           1     -34.531   0.439 -14.702  0.00  0.00    -0.066 N 
HETATM   10  H           1     -33.786   0.409 -13.970  0.00  0.00     0.275 HD
HETATM   11  H           1     -34.515   1.370 -15.176  0.00  0.00     0.275 HD
HETATM   12  H           1     -34.357  -0.313 -15.407  0.00  0.00     0.275 HD
ENDBRANCH   5   9
ENDBRANCH   2   5
BRANCH   3  13
HETATM   13  C           1     -34.671  -2.921 -12.234  0.00  0.00     0.209 C 
BRANCH  13  14
HETATM   14  C           1     -33.492  -2.708 -11.317  0.00  0.00     0.198 C 
HETATM   15  O           1     -33.540  -1.827 -10.432  0.00  0.00    -0.646 OA
HETATM   16  O           1     -32.468  -3.414 -11.442  0.00  0.00    -0.646 OA
ENDBRANCH  13  14
BRANCH  13  17
HETATM   17  C           1     -34.492  -4.228 -12.996  0.00  0.00     0.200 C 
BRANCH  17  18
HETATM   18  O           1     -33.676  -4.010 -14.115  0.00  0.00    -0.398 OA
HETATM   19  H           1     -33.665  -4.813 -14.606  0.00  0.00     0.209 HD
ENDBRANCH  17  18
ENDBRANCH  13  17
ENDBRANCH   3  13
TORSDOF 8
ENDMDL
MODEL 3
REMARK VINA RESULT:      -5.0     12.715     13.814
REMARK  8 active torsions:
REMARK  status: ('A' for Active; 'I' for Inactive)
REMARK    1  A    between atoms: C_1  and  C_9 
REMARK       I    between atoms: C_3  and  N_4 
REMARK    2  A    between atoms: C_3  and  C_15 
REMARK    3  A    between atoms: N_4  and  C_9 
REMARK    4  A    between atoms: O_8  and  C_10 
REMARK    5  A    between atoms: C_9  and  C_10 
REMARK    6  A    between atoms: S_13  and  C_14 
REMARK    7  A    between atoms: C_14  and  C_15 
REMARK    8  A    between atoms: C_15  and  N_16 
ROOT
HETATM    1  H           1     -24.045  -4.239  -8.999  0.00  0.00     0.163 HD
HETATM    2  C           1     -22.042  -3.955  -8.561  0.00  0.00     0.249 C 
HETATM    3  N           1     -23.148  -3.951  -9.368  0.00  0.00    -0.343 N 
HETATM    4  O           1     -20.971  -3.612  -9.003  0.00  0.00    -0.271 OA
ENDROOT
BRANCH   2   5
HETATM    5  C           1     -22.160  -4.387  -7.120  0.00  0.00     0.283 C 
BRANCH   5   6
HETATM    6  C           1     -21.412  -5.698  -6.920  0.00  0.00     0.113 C 
BRANCH   6   7
HETATM    7  S           1     -20.901  -5.846  -5.184  0.00  0.00    -0.180 SA
HETATM    8  H           1     -20.522  -7.135  -5.259  0.00  0.00     0.101 HD
ENDBRANCH   6   7
ENDBRANCH   5   6
BRANCH   5   9
HETATM    9  N           1     -23.606  -4.580  -6.774  0.00  0.00    -0.066 N 
HETATM   10  H           1     -23.826  -4.059  -5.895  0.00  0.00     0.275 HD
HETATM   11  H           1     -23.799  -5.597  -6.634  0.00  0.00     0.275 HD
HETATM   12  H           1     -24.202  -4.217  -7.552  0.00  0.00     0.275 HD
ENDBRANCH   5   9
ENDBRANCH   2   5
BRANCH   3  13
HETATM   13  C           1     -23.033  -3.536 -10.753  0.00  0.00     0.209 C 
BRANCH  13  14
HETATM   14  C           1     -24.392  -3.130 -11.269  0.00  0.00     0.198 C 
HETATM   15  O           1     -25.400  -3.252 -10.540  0.00  0.00    -0.646 OA
HETATM   16  O           1     -24.509  -2.672 -12.427  0.00  0.00    -0.646 OA
ENDBRANCH  13  14
BRANCH  13  17
HETATM   17  C           1     -22.497  -4.693 -11.587  0.00  0.00     0.200 C 
BRANCH  17  18
HETATM   18  O           1     -23.550  -5.286 -12.296  0.00  0.00    -0.398 OA
HETATM   19  H           1     -23.443  -6.218 -12.215  0.00  0.00     0.209 HD
ENDBRANCH  17  18
ENDBRANCH  13  17
ENDBRANCH   3  13
TORSDOF 8
ENDMDL
MODEL 4
REMARK VINA RESULT:      -5.0     13.665     14.739
REMARK  8 active torsions:
REMARK  status: ('A' for Active; 'I' for Inactive)
REMARK    1  A    between atoms: C_1  and  C_9 
REMARK       I    between atoms: C_3  and  N_4 
REMARK    2  A    between atoms: C_3  and  C_15 
REMARK    3  A    between atoms: N_4  and  C_9 
REMARK    4  A    between atoms: O_8  and  C_10 
REMARK    5  A    between atoms: C_9  and  C_10 
REMARK    6  A    between atoms: S_13  and  C_14 
REMARK    7  A    between atoms: C_14  and  C_15 
REMARK    8  A    between atoms: C_15  and  N_16 
ROOT
HETATM    1  H           1     -22.209  -5.753  -9.366  0.00  0.00     0.163 HD
HETATM    2  C           1     -21.652  -4.544  -7.781  0.00  0.00     0.249 C 
HETATM    3  N           1     -22.142  -4.800  -9.034  0.00  0.00    -0.343 N 
HETATM    4  O           1     -21.571  -3.406  -7.385  0.00  0.00    -0.271 OA
ENDROOT
BRANCH   2   5
HETATM    5  C           1     -21.212  -5.684  -6.895  0.00  0.00     0.283 C 
BRANCH   5   6
HETATM    6  C           1     -20.916  -5.157  -5.498  0.00  0.00     0.113 C 
BRANCH   6   7
HETATM    7  S           1     -21.459  -6.373  -4.263  0.00  0.00    -0.180 SA
HETATM    8  H           1     -20.345  -6.316  -3.512  0.00  0.00     0.101 HD
ENDBRANCH   6   7
ENDBRANCH   5   6
BRANCH   5   9
HETATM    9  N           1     -19.974  -6.310  -7.465  0.00  0.00    -0.066 N 
HETATM   10  H           1     -19.133  -5.797  -7.116  0.00  0.00     0.275 HD
HETATM   11  H           1     -20.005  -6.258  -8.509  0.00  0.00     0.275 HD
HETATM   12  H           1     -19.920  -7.310  -7.168  0.00  0.00     0.275 HD
ENDBRANCH   5   9
ENDBRANCH   2   5
BRANCH   3  13
HETATM   13  C           1     -22.564  -3.704  -9.884  0.00  0.00     0.209 C 
BRANCH  13  14
HETATM   14  C           1     -24.024  -3.869 -10.228  0.00  0.00     0.198 C 
HETATM   15  O           1     -24.635  -2.950 -10.816  0.00  0.00    -0.646 OA
HETATM   16  O           1     -24.622  -4.924  -9.926  0.00  0.00    -0.646 OA
ENDBRANCH  13  14
BRANCH  13  17
HETATM   17  C           1     -21.737  -3.707 -11.163  0.00  0.00     0.200 C 
BRANCH  17  18
HETATM   18  O           1     -22.386  -4.477 -12.139  0.00  0.00    -0.398 OA
HETATM   19  H           1     -23.120  -3.972 -12.441  0.00  0.00     0.209 HD
ENDBRANCH  17  18
ENDBRANCH  13  17
ENDBRANCH   3  13
TORSDOF 8
ENDMDL
MODEL 5
REMARK VINA RESULT:      -4.9      1.824      2.219
REMARK  8 active torsions:
REMARK  status: ('A' for Active; 'I' for Inactive)
REMARK    1  A    between atoms: C_1  and  C_9 
REMARK       I    between atoms: C_3  and  N_4 
REMARK    2  A    between atoms: C_3  and  C_15 
REMARK    3  A    between atoms: N_4  and  C_9 
REMARK    4  A    between atoms: O_8  and  C_10 
REMARK    5  A    between atoms: C_9  and  C_10 
REMARK    6  A    between atoms: S_13  and  C_14 
REMARK    7  A    between atoms: C_14  and  C_15 
REMARK    8  A    between atoms: C_15  and  N_16 
ROOT
HETATM    1  H           1     -34.024  -1.940 -14.079  0.00  0.00     0.163 HD
HETATM    2  C           1     -34.909  -2.688 -12.364  0.00  0.00     0.249 C 
HETATM    3  N           1     -34.764  -1.807 -13.403  0.00  0.00    -0.343 N 
HETATM    4  O           1     -35.793  -2.529 -11.556  0.00  0.00    -0.271 OA
ENDROOT
BRANCH   2   5
HETATM    5  C           1     -33.965  -3.857 -12.229  0.00  0.00     0.283 C 
BRANCH   5   6
HETATM    6  C           1     -34.763  -5.154 -12.211  0.00  0.00     0.113 C 
BRANCH   6   7
HETATM    7  S           1     -34.287  -6.138 -10.761  0.00  0.00    -0.180 SA
HETATM    8  H           1     -33.811  -7.188 -11.455  0.00  0.00     0.101 HD
ENDBRANCH   6   7
ENDBRANCH   5   6
BRANCH   5   9
HETATM    9  N           1     -33.192  -3.729 -10.951  0.00  0.00    -0.066 N 
HETATM   10  H           1     -32.248  -3.329 -11.154  0.00  0.00     0.275 HD
HETATM   11  H           1     -33.083  -4.671 -10.511  0.00  0.00     0.275 HD
HETATM   12  H           1     -33.704  -3.096 -10.295  0.00  0.00     0.275 HD
ENDBRANCH   5   9
ENDBRANCH   2   5
BRANCH   3  13
HETATM   13  C           1     -35.672  -0.684 -13.532  0.00  0.00     0.209 C 
BRANCH  13  14
HETATM   14  C           1     -35.891  -0.380 -14.993  0.00  0.00     0.198 C 
HETATM   15  O           1     -35.099  -0.828 -15.850  0.00  0.00    -0.646 OA
HETATM   16  O           1     -36.866   0.317 -15.347  0.00  0.00    -0.646 OA
ENDBRANCH  13  14
BRANCH  13  17
HETATM   17  C           1     -35.070   0.536 -12.844  0.00  0.00     0.200 C 
BRANCH  17  18
HETATM   18  O           1     -34.493   1.378 -13.805  0.00  0.00    -0.398 OA
HETATM   19  H           1     -33.842   1.893 -13.361  0.00  0.00     0.209 HD
ENDBRANCH  17  18
ENDBRANCH  13  17
ENDBRANCH   3  13
TORSDOF 8
ENDMDL
MODEL 6
REMARK VINA RESULT:      -4.8     14.651     16.042
REMARK  8 active torsions:
REMARK  status: ('A' for Active; 'I' for Inactive)
REMARK    1  A    between atoms: C_1  and  C_9 
REMARK       I    between atoms: C_3  and  N_4 
REMARK    2  A    between atoms: C_3  and  C_15 
REMARK    3  A    between atoms: N_4  and  C_9 
REMARK    4  A    between atoms: O_8  and  C_10 
REMARK    5  A    between atoms: C_9  and  C_10 
REMARK    6  A    between atoms: S_13  and  C_14 
REMARK    7  A    between atoms: C_14  and  C_15 
REMARK    8  A    between atoms: C_15  and  N_16 
ROOT
HETATM    1  H           1     -22.012  -3.712  -8.721  0.00  0.00     0.163 HD
HETATM    2  C           1     -20.984  -4.123 -10.470  0.00  0.00     0.249 C 
HETATM    3  N           1     -21.248  -4.234  -9.131  0.00  0.00    -0.343 N 
HETATM    4  O           1     -20.071  -4.746 -10.959  0.00  0.00    -0.271 OA
ENDROOT
BRANCH   2   5
HETATM    5  C           1     -21.832  -3.224 -11.335  0.00  0.00     0.283 C 
BRANCH   5   6
HETATM    6  C           1     -23.297  -3.388 -10.956  0.00  0.00     0.113 C 
BRANCH   6   7
HETATM    7  S           1     -24.338  -3.095 -12.415  0.00  0.00    -0.180 SA
HETATM    8  H           1     -23.984  -1.808 -12.582  0.00  0.00     0.101 HD
ENDBRANCH   6   7
ENDBRANCH   5   6
BRANCH   5   9
HETATM    9  N           1     -21.644  -3.595 -12.776  0.00  0.00    -0.066 N 
HETATM   10  H           1     -20.649  -3.428 -13.051  0.00  0.00     0.275 HD
HETATM   11  H           1     -22.273  -3.012 -13.372  0.00  0.00     0.275 HD
HETATM   12  H           1     -21.876  -4.605 -12.909  0.00  0.00     0.275 HD
ENDBRANCH   5   9
ENDBRANCH   2   5
BRANCH   3  13
HETATM   13  C           1     -20.432  -5.099  -8.301  0.00  0.00     0.209 C 
BRANCH  13  14
HETATM   14  C           1     -21.286  -5.701  -7.212  0.00  0.00     0.198 C 
HETATM   15  O           1     -22.215  -5.034  -6.706  0.00  0.00    -0.646 OA
HETATM   16  O           1     -21.066  -6.866  -6.817  0.00  0.00    -0.646 OA
ENDBRANCH  13  14
BRANCH  13  17
HETATM   17  C           1     -19.307  -4.285  -7.673  0.00  0.00     0.200 C 
BRANCH  17  18
HETATM   18  O           1     -19.256  -4.542  -6.296  0.00  0.00    -0.398 OA
HETATM   19  H           1     -18.381  -4.342  -6.013  0.00  0.00     0.209 HD
ENDBRANCH  17  18
ENDBRANCH  13  17
ENDBRANCH   3  13
TORSDOF 8
ENDMDL
MODEL 7
REMARK VINA RESULT:      -4.8     10.838     12.033
REMARK  8 active torsions:
REMARK  status: ('A' for Active; 'I' for Inactive)
REMARK    1  A    between atoms: C_1  and  C_9 
REMARK       I    between atoms: C_3  and  N_4 
REMARK    2  A    between atoms: C_3  and  C_15 
REMARK    3  A    between atoms: N_4  and  C_9 
REMARK    4  A    between atoms: O_8  and  C_10 
REMARK    5  A    between atoms: C_9  and  C_10 
REMARK    6  A    between atoms: S_13  and  C_14 
REMARK    7  A    between atoms: C_14  and  C_15 
REMARK    8  A    between atoms: C_15  and  N_16 
ROOT
HETATM    1  H           1     -26.034  -7.115 -17.463  0.00  0.00     0.163 HD
HETATM    2  C           1     -26.474  -6.487 -19.385  0.00  0.00     0.249 C 
HETATM    3  N           1     -26.735  -6.691 -18.057  0.00  0.00    -0.343 N 
HETATM    4  O           1     -27.312  -5.981 -20.094  0.00  0.00    -0.271 OA
ENDROOT
BRANCH   2   5
HETATM    5  C           1     -25.141  -6.893 -19.965  0.00  0.00     0.283 C 
BRANCH   5   6
HETATM    6  C           1     -25.358  -7.924 -21.064  0.00  0.00     0.113 C 
BRANCH   6   7
HETATM    7  S           1     -23.988  -7.840 -22.252  0.00  0.00    -0.180 SA
HETATM    8  H           1     -24.506  -6.844 -22.993  0.00  0.00     0.101 HD
ENDBRANCH   6   7
ENDBRANCH   5   6
BRANCH   5   9
HETATM    9  N           1     -24.288  -7.487 -18.884  0.00  0.00    -0.066 N 
HETATM   10  H           1     -24.071  -8.482 -19.119  0.00  0.00     0.275 HD
HETATM   11  H           1     -24.800  -7.448 -17.974  0.00  0.00     0.275 HD
HETATM   12  H           1     -23.398  -6.945 -18.806  0.00  0.00     0.275 HD
ENDBRANCH   5   9
ENDBRANCH   2   5
BRANCH   3  13
HETATM   13  C           1     -28.016  -6.301 -17.501  0.00  0.00     0.209 C 
BRANCH  13  14
HETATM   14  C           1     -27.993  -6.490 -16.004  0.00  0.00     0.198 C 
HETATM   15  O           1     -28.790  -5.855 -15.281  0.00  0.00    -0.646 OA
HETATM   16  O           1     -27.176  -7.283 -15.487  0.00  0.00    -0.646 OA
ENDBRANCH  13  14
BRANCH  13  17
HETATM   17  C           1     -29.115  -7.165 -18.106  0.00  0.00     0.200 C 
BRANCH  17  18
HETATM   18  O           1     -29.384  -8.245 -17.253  0.00  0.00    -0.398 OA
HETATM   19  H           1     -30.320  -8.345 -17.227  0.00  0.00     0.209 HD
ENDBRANCH  17  18
ENDBRANCH  13  17
ENDBRANCH   3  13
TORSDOF 8
ENDMDL
MODEL 8
REMARK VINA RESULT:      -4.7     10.314     11.231
REMARK  8 active torsions:
REMARK  status: ('A' for Active; 'I' for Inactive)
REMARK    1  A    between atoms: C_1  and  C_9 
REMARK       I    between atoms: C_3  and  N_4 
REMARK    2  A    between atoms: C_3  and  C_15 
REMARK    3  A    between atoms: N_4  and  C_9 
REMARK    4  A    between atoms: O_8  and  C_10 
REMARK    5  A    between atoms: C_9  and  C_10 
REMARK    6  A    between atoms: S_13  and  C_14 
REMARK    7  A    between atoms: C_14  and  C_15 
REMARK    8  A    between atoms: C_15  and  N_16 
ROOT
HETATM    1  H           1     -27.817  -7.263 -19.800  0.00  0.00     0.163 HD
HETATM    2  C           1     -26.546  -6.404 -18.410  0.00  0.00     0.249 C 
HETATM    3  N           1     -27.759  -6.815 -18.895  0.00  0.00    -0.343 N 
HETATM    4  O           1     -26.478  -5.868 -17.329  0.00  0.00    -0.271 OA
ENDROOT
BRANCH   2   5
HETATM    5  C           1     -25.295  -6.621 -19.224  0.00  0.00     0.283 C 
BRANCH   5   6
HETATM    6  C           1     -25.642  -7.379 -20.498  0.00  0.00     0.113 C 
BRANCH   6   7
HETATM    7  S           1     -24.128  -8.063 -21.229  0.00  0.00    -0.180 SA
HETATM    8  H           1     -24.748  -8.933 -22.047  0.00  0.00     0.101 HD
ENDBRANCH   6   7
ENDBRANCH   5   6
BRANCH   5   9
HETATM    9  N           1     -24.309  -7.417 -18.422  0.00  0.00    -0.066 N 
HETATM   10  H           1     -24.584  -8.426 -18.435  0.00  0.00     0.275 HD
HETATM   11  H           1     -24.301  -7.072 -17.436  0.00  0.00     0.275 HD
HETATM   12  H           1     -23.356  -7.311 -18.836  0.00  0.00     0.275 HD
ENDBRANCH   5   9
ENDBRANCH   2   5
BRANCH   3  13
HETATM   13  C           1     -28.961  -6.606 -18.111  0.00  0.00     0.209 C 
BRANCH  13  14
HETATM   14  C           1     -29.939  -7.722 -18.385  0.00  0.00     0.198 C 
HETATM   15  O           1     -31.008  -7.789 -17.740  0.00  0.00    -0.646 OA
HETATM   16  O           1     -29.680  -8.580 -19.257  0.00  0.00    -0.646 OA
ENDBRANCH  13  14
BRANCH  13  17
HETATM   17  C           1     -29.592  -5.273 -18.495  0.00  0.00     0.200 C 
BRANCH  17  18
HETATM   18  O           1     -30.575  -4.933 -17.555  0.00  0.00    -0.398 OA
HETATM   19  H           1     -30.127  -4.570 -16.810  0.00  0.00     0.209 HD
ENDBRANCH  17  18
ENDBRANCH  13  17
ENDBRANCH   3  13
TORSDOF 8
ENDMDL
MODEL 9
REMARK VINA RESULT:      -4.7     13.858     15.284
REMARK  8 active torsions:
REMARK  status: ('A' for Active; 'I' for Inactive)
REMARK    1  A    between atoms: C_1  and  C_9 
REMARK       I    between atoms: C_3  and  N_4 
REMARK    2  A    between atoms: C_3  and  C_15 
REMARK    3  A    between atoms: N_4  and  C_9 
REMARK    4  A    between atoms: O_8  and  C_10 
REMARK    5  A    between atoms: C_9  and  C_10 
REMARK    6  A    between atoms: S_13  and  C_14 
REMARK    7  A    between atoms: C_14  and  C_15 
REMARK    8  A    between atoms: C_15  and  N_16 
ROOT
HETATM    1  H           1     -20.634  -3.441  -9.670  0.00  0.00     0.163 HD
HETATM    2  C           1     -22.400  -4.102 -10.525  0.00  0.00     0.249 C 
HETATM    3  N           1     -21.402  -4.095  -9.587  0.00  0.00    -0.343 N 
HETATM    4  O           1     -23.317  -4.883 -10.425  0.00  0.00    -0.271 OA
ENDROOT
BRANCH   2   5
HETATM    5  C           1     -22.355  -3.135 -11.682  0.00  0.00     0.283 C 
BRANCH   5   6
HETATM    6  C           1     -23.769  -2.879 -12.186  0.00  0.00     0.113 C 
BRANCH   6   7
HETATM    7  S           1     -23.708  -2.351 -13.922  0.00  0.00    -0.180 SA
HETATM    8  H           1     -25.032  -2.448 -14.144  0.00  0.00     0.101 HD
ENDBRANCH   6   7
ENDBRANCH   5   6
BRANCH   5   9
HETATM    9  N           1     -21.529  -3.720 -12.789  0.00  0.00    -0.066 N 
HETATM   10  H           1     -20.940  -4.496 -12.410  0.00  0.00     0.275 HD
HETATM   11  H           1     -20.911  -2.980 -13.192  0.00  0.00     0.275 HD
HETATM   12  H           1     -22.159  -4.093 -13.534  0.00  0.00     0.275 HD
ENDBRANCH   5   9
ENDBRANCH   2   5
BRANCH   3  13
HETATM   13  C           1     -21.446  -5.024  -8.475  0.00  0.00     0.209 C 
BRANCH  13  14
HETATM   14  C           1     -22.063  -4.345  -7.277  0.00  0.00     0.198 C 
HETATM   15  O           1     -23.283  -4.482  -7.040  0.00  0.00    -0.646 OA
HETATM   16  O           1     -21.354  -3.647  -6.520  0.00  0.00    -0.646 OA
ENDBRANCH  13  14
BRANCH  13  17
HETATM   17  C           1     -20.031  -5.472  -8.132  0.00  0.00     0.200 C 
BRANCH  17  18
HETATM   18  O           1     -20.074  -6.394  -7.077  0.00  0.00    -0.398 OA
HETATM   19  H           1     -19.549  -6.038  -6.381  0.00  0.00     0.209 HD
ENDBRANCH  17  18
ENDBRANCH  13  17
ENDBRANCH   3  13
TORSDOF 8
ENDMDL
