MODEL 1
REMARK VINA RESULT:      -7.0      0.000      0.000
REMARK  11 active torsions:
REMARK  status: ('A' for Active; 'I' for Inactive)
REMARK    1  A    between atoms: N_1  and  C_20 
REMARK    2  A    between atoms: C_2  and  C_3 
REMARK    3  A    between atoms: C_3  and  C_5 
REMARK    4  A    between atoms: C_3  and  N_17 
REMARK    5  A    between atoms: C_5  and  C_10 
REMARK       I    between atoms: C_7  and  N_17 
REMARK    6  A    between atoms: C_7  and  C_8 
REMARK    7  A    between atoms: C_8  and  C_22 
REMARK    8  A    between atoms: C_8  and  N_11 
REMARK    9  A    between atoms: C_9  and  O_14 
REMARK   10  A    between atoms: C_20  and  C_21 
REMARK   11  A    between atoms: C_21  and  C_22 
ROOT
HETATM    1  C           1     -37.001  -0.292 -14.083  0.00  0.00     0.249 C 
HETATM    2  O           1     -37.909  -1.056 -13.862  0.00  0.00    -0.271 OA
HETATM    3  N           1     -36.031  -0.089 -13.138  0.00  0.00    -0.344 N 
HETATM    4  H           1     -35.269   0.550 -13.323  0.00  0.00     0.163 HD
ENDROOT
BRANCH   3   5
HETATM    5  C           1     -36.095  -0.793 -11.872  0.00  0.00     0.189 C 
BRANCH   5   6
HETATM    6  C           1     -36.835   0.052 -10.864  0.00  0.00     0.197 C 
HETATM    7  O           1     -36.208   0.857 -10.144  0.00  0.00    -0.646 OA
HETATM    8  O           1     -38.075  -0.055 -10.749  0.00  0.00    -0.646 OA
ENDBRANCH   5   6
BRANCH   5   9
HETATM    9  C           1     -34.683  -1.064 -11.370  0.00  0.00     0.074 C 
BRANCH   9  10
HETATM   10  C           1     -34.447  -2.542 -11.315  0.00  0.00    -0.056 A 
HETATM   11  C           1     -35.481  -3.400 -10.939  0.00  0.00     0.010 A 
HETATM   12  C           1     -35.261  -4.776 -10.888  0.00  0.00     0.037 A 
HETATM   13  C           1     -34.006  -5.294 -11.210  0.00  0.00     0.065 A 
HETATM   14  C           1     -32.972  -4.437 -11.585  0.00  0.00     0.037 A 
HETATM   15  C           1     -33.193  -3.060 -11.637  0.00  0.00     0.010 A 
BRANCH  13  16
HETATM   16  O           1     -33.792  -6.631 -11.160  0.00  0.00    -0.361 OA
HETATM   17  H           1     -33.505  -6.856 -10.259  0.00  0.00     0.217 HD
ENDBRANCH  13  16
ENDBRANCH   9  10
ENDBRANCH   5   9
ENDBRANCH   3   5
BRANCH   1  18
HETATM   18  C           1     -36.934   0.440 -15.401  0.00  0.00     0.274 C 
BRANCH  18  19
HETATM   19  C           1     -36.668  -0.556 -16.523  0.00  0.00     0.044 C 
BRANCH  19  20
HETATM   20  C           1     -35.195  -0.943 -16.519  0.00  0.00     0.030 C 
BRANCH  20  21
HETATM   21  C           1     -35.068  -2.459 -16.467  0.00  0.00     0.230 C 
BRANCH  21  22
HETATM   22  N           1     -33.873  -2.890 -17.264  0.00  0.00    -0.079 N 
HETATM   23  H           1     -33.818  -2.328 -18.143  0.00  0.00     0.274 HD
HETATM   24  H           1     -33.960  -3.903 -17.503  0.00  0.00     0.274 HD
HETATM   25  H           1     -33.005  -2.738 -16.701  0.00  0.00     0.274 HD
ENDBRANCH  21  22
ENDBRANCH  20  21
ENDBRANCH  19  20
ENDBRANCH  18  19
BRANCH  18  26
HETATM   26  N           1     -35.825   1.449 -15.356  0.00  0.00    -0.067 N 
HETATM   27  H           1     -34.959   1.001 -14.980  0.00  0.00     0.275 HD
HETATM   28  H           1     -35.640   1.807 -16.320  0.00  0.00     0.275 HD
HETATM   29  H           1     -36.102   2.245 -14.736  0.00  0.00     0.275 HD
ENDBRANCH  18  26
ENDBRANCH   1  18
TORSDOF 11
ENDMDL
MODEL 2
REMARK VINA RESULT:      -6.6     14.213     17.444
REMARK  11 active torsions:
REMARK  status: ('A' for Active; 'I' for Inactive)
REMARK    1  A    between atoms: N_1  and  C_20 
REMARK    2  A    between atoms: C_2  and  C_3 
REMARK    3  A    between atoms: C_3  and  C_5 
REMARK    4  A    between atoms: C_3  and  N_17 
REMARK    5  A    between atoms: C_5  and  C_10 
REMARK       I    between atoms: C_7  and  N_17 
REMARK    6  A    between atoms: C_7  and  C_8 
REMARK    7  A    between atoms: C_8  and  C_22 
REMARK    8  A    between atoms: C_8  and  N_11 
REMARK    9  A    between atoms: C_9  and  O_14 
REMARK   10  A    between atoms: C_20  and  C_21 
REMARK   11  A    between atoms: C_21  and  C_22 
ROOT
HETATM    1  C           1     -21.325  -6.250  -4.402  0.00  0.00     0.249 C 
HETATM    2  O           1     -21.670  -7.271  -4.946  0.00  0.00    -0.271 OA
HETATM    3  N           1     -20.973  -5.160  -5.152  0.00  0.00    -0.344 N 
HETATM    4  H           1     -20.685  -4.303  -4.696  0.00  0.00     0.163 HD
ENDROOT
BRANCH   3   5
HETATM    5  C           1     -21.015  -5.233  -6.600  0.00  0.00     0.189 C 
BRANCH   5   6
HETATM    6  C           1     -19.634  -5.533  -7.127  0.00  0.00     0.197 C 
HETATM    7  O           1     -19.307  -6.711  -7.386  0.00  0.00    -0.646 OA
HETATM    8  O           1     -18.817  -4.604  -7.305  0.00  0.00    -0.646 OA
ENDBRANCH   5   6
BRANCH   5   9
HETATM    9  C           1     -21.495  -3.901  -7.160  0.00  0.00     0.074 C 
BRANCH   9  10
HETATM   10  C           1     -22.061  -4.110  -8.531  0.00  0.00    -0.056 A 
HETATM   11  C           1     -23.432  -4.309  -8.696  0.00  0.00     0.010 A 
HETATM   12  C           1     -23.959  -4.503  -9.973  0.00  0.00     0.037 A 
HETATM   13  C           1     -23.114  -4.500 -11.084  0.00  0.00     0.065 A 
HETATM   14  C           1     -21.744  -4.300 -10.918  0.00  0.00     0.037 A 
HETATM   15  C           1     -21.217  -4.106  -9.641  0.00  0.00     0.010 A 
BRANCH  13  16
HETATM   16  O           1     -23.626  -4.689 -12.324  0.00  0.00    -0.361 OA
HETATM   17  H           1     -22.897  -4.943 -12.914  0.00  0.00     0.217 HD
ENDBRANCH  13  16
ENDBRANCH   9  10
ENDBRANCH   5   9
ENDBRANCH   3   5
BRANCH   1  18
HETATM   18  C           1     -21.282  -6.174  -2.895  0.00  0.00     0.274 C 
BRANCH  18  19
HETATM   19  C           1     -20.812  -7.510  -2.333  0.00  0.00     0.044 C 
BRANCH  19  20
HETATM   20  C           1     -21.853  -8.046  -1.359  0.00  0.00     0.030 C 
BRANCH  20  21
HETATM   21  C           1     -21.176  -8.425  -0.049  0.00  0.00     0.230 C 
BRANCH  21  22
HETATM   22  N           1     -22.026  -7.974   1.102  0.00  0.00    -0.079 N 
HETATM   23  H           1     -22.505  -8.800   1.527  0.00  0.00     0.274 HD
HETATM   24  H           1     -22.742  -7.293   0.762  0.00  0.00     0.274 HD
HETATM   25  H           1     -21.423  -7.515   1.822  0.00  0.00     0.274 HD
ENDBRANCH  21  22
ENDBRANCH  20  21
ENDBRANCH  19  20
ENDBRANCH  18  19
BRANCH  18  26
HETATM   26  N           1     -22.653  -5.867  -2.371  0.00  0.00    -0.067 N 
HETATM   27  H           1     -22.740  -4.840  -2.200  0.00  0.00     0.275 HD
HETATM   28  H           1     -23.369  -6.164  -3.072  0.00  0.00     0.275 HD
HETATM   29  H           1     -22.807  -6.383  -1.474  0.00  0.00     0.275 HD
ENDBRANCH  18  26
ENDBRANCH   1  18
TORSDOF 11
ENDMDL
MODEL 3
REMARK VINA RESULT:      -6.6     13.545     15.969
REMARK  11 active torsions:
REMARK  status: ('A' for Active; 'I' for Inactive)
REMARK    1  A    between atoms: N_1  and  C_20 
REMARK    2  A    between atoms: C_2  and  C_3 
REMARK    3  A    between atoms: C_3  and  C_5 
REMARK    4  A    between atoms: C_3  and  N_17 
REMARK    5  A    between atoms: C_5  and  C_10 
REMARK       I    between atoms: C_7  and  N_17 
REMARK    6  A    between atoms: C_7  and  C_8 
REMARK    7  A    between atoms: C_8  and  C_22 
REMARK    8  A    between atoms: C_8  and  N_11 
REMARK    9  A    between atoms: C_9  and  O_14 
REMARK   10  A    between atoms: C_20  and  C_21 
REMARK   11  A    between atoms: C_21  and  C_22 
ROOT
HETATM    1  C           1     -23.027  -4.560  -7.739  0.00  0.00     0.249 C 
HETATM    2  O           1     -23.754  -4.391  -6.790  0.00  0.00    -0.271 OA
HETATM    3  N           1     -21.756  -5.033  -7.552  0.00  0.00    -0.344 N 
HETATM    4  H           1     -21.146  -5.175  -8.347  0.00  0.00     0.163 HD
ENDROOT
BRANCH   3   5
HETATM    5  C           1     -21.284  -5.332  -6.213  0.00  0.00     0.189 C 
BRANCH   5   6
HETATM    6  C           1     -19.905  -4.751  -6.025  0.00  0.00     0.197 C 
HETATM    7  O           1     -19.575  -4.269  -4.921  0.00  0.00    -0.646 OA
HETATM    8  O           1     -19.092  -4.751  -6.975  0.00  0.00    -0.646 OA
ENDBRANCH   5   6
BRANCH   5   9
HETATM    9  C           1     -21.231  -6.842  -6.020  0.00  0.00     0.074 C 
BRANCH   9  10
HETATM   10  C           1     -21.157  -7.156  -4.557  0.00  0.00    -0.056 A 
HETATM   11  C           1     -20.316  -8.173  -4.105  0.00  0.00     0.010 A 
HETATM   12  C           1     -20.247  -8.466  -2.744  0.00  0.00     0.037 A 
HETATM   13  C           1     -21.019  -7.743  -1.834  0.00  0.00     0.065 A 
HETATM   14  C           1     -21.860  -6.726  -2.286  0.00  0.00     0.037 A 
HETATM   15  C           1     -21.929  -6.433  -3.649  0.00  0.00     0.010 A 
BRANCH  13  16
HETATM   16  O           1     -20.952  -8.028  -0.511  0.00  0.00    -0.361 OA
HETATM   17  H           1     -21.546  -8.776  -0.334  0.00  0.00     0.217 HD
ENDBRANCH  13  16
ENDBRANCH   9  10
ENDBRANCH   5   9
ENDBRANCH   3   5
BRANCH   1  18
HETATM   18  C           1     -23.518  -4.249  -9.132  0.00  0.00     0.274 C 
BRANCH  18  19
HETATM   19  C           1     -22.365  -3.709  -9.968  0.00  0.00     0.044 C 
BRANCH  19  20
HETATM   20  C           1     -22.545  -4.137 -11.418  0.00  0.00     0.030 C 
BRANCH  20  21
HETATM   21  C           1     -22.753  -2.905 -12.289  0.00  0.00     0.230 C 
BRANCH  21  22
HETATM   22  N           1     -22.348  -3.215 -13.700  0.00  0.00    -0.079 N 
HETATM   23  H           1     -23.035  -2.789 -14.362  0.00  0.00     0.274 HD
HETATM   24  H           1     -22.330  -4.251 -13.838  0.00  0.00     0.274 HD
HETATM   25  H           1     -21.397  -2.822 -13.884  0.00  0.00     0.274 HD
ENDBRANCH  21  22
ENDBRANCH  20  21
ENDBRANCH  19  20
ENDBRANCH  18  19
BRANCH  18  26
HETATM   26  N           1     -24.606  -3.220  -9.060  0.00  0.00    -0.067 N 
HETATM   27  H           1     -24.839  -2.889 -10.023  0.00  0.00     0.275 HD
HETATM   28  H           1     -25.456  -3.642  -8.623  0.00  0.00     0.275 HD
HETATM   29  H           1     -24.283  -2.410  -8.483  0.00  0.00     0.275 HD
ENDBRANCH  18  26
ENDBRANCH   1  18
TORSDOF 11
ENDMDL
MODEL 4
REMARK VINA RESULT:      -6.5      1.584      2.385
REMARK  11 active torsions:
REMARK  status: ('A' for Active; 'I' for Inactive)
REMARK    1  A    between atoms: N_1  and  C_20 
REMARK    2  A    between atoms: C_2  and  C_3 
REMARK    3  A    between atoms: C_3  and  C_5 
REMARK    4  A    between atoms: C_3  and  N_17 
REMARK    5  A    between atoms: C_5  and  C_10 
REMARK       I    between atoms: C_7  and  N_17 
REMARK    6  A    between atoms: C_7  and  C_8 
REMARK    7  A    between atoms: C_8  and  C_22 
REMARK    8  A    between atoms: C_8  and  N_11 
REMARK    9  A    between atoms: C_9  and  O_14 
REMARK   10  A    between atoms: C_20  and  C_21 
REMARK   11  A    between atoms: C_21  and  C_22 
ROOT
HETATM    1  C           1     -35.878  -0.829 -13.403  0.00  0.00     0.249 C 
HETATM    2  O           1     -36.903  -1.098 -12.825  0.00  0.00    -0.271 OA
HETATM    3  N           1     -34.701  -1.415 -13.019  0.00  0.00    -0.344 N 
HETATM    4  H           1     -33.841  -1.190 -13.504  0.00  0.00     0.163 HD
ENDROOT
BRANCH   3   5
HETATM    5  C           1     -34.687  -2.359 -11.918  0.00  0.00     0.189 C 
BRANCH   5   6
HETATM    6  C           1     -34.373  -1.630 -10.635  0.00  0.00     0.197 C 
HETATM    7  O           1     -35.296  -1.126  -9.961  0.00  0.00    -0.646 OA
HETATM    8  O           1     -33.189  -1.530 -10.247  0.00  0.00    -0.646 OA
ENDBRANCH   5   6
BRANCH   5   9
HETATM    9  C           1     -33.625  -3.420 -12.174  0.00  0.00     0.074 C 
BRANCH   9  10
HETATM   10  C           1     -33.987  -4.676 -11.443  0.00  0.00    -0.056 A 
HETATM   11  C           1     -33.066  -5.720 -11.353  0.00  0.00     0.010 A 
HETATM   12  C           1     -33.403  -6.890 -10.673  0.00  0.00     0.037 A 
HETATM   13  C           1     -34.661  -7.016 -10.083  0.00  0.00     0.065 A 
HETATM   14  C           1     -35.582  -5.972 -10.173  0.00  0.00     0.037 A 
HETATM   15  C           1     -35.244  -4.802 -10.853  0.00  0.00     0.010 A 
BRANCH  13  16
HETATM   16  O           1     -34.989  -8.153  -9.422  0.00  0.00    -0.361 OA
HETATM   17  H           1     -34.171  -8.652  -9.259  0.00  0.00     0.217 HD
ENDBRANCH  13  16
ENDBRANCH   9  10
ENDBRANCH   5   9
ENDBRANCH   3   5
BRANCH   1  18
HETATM   18  C           1     -35.892   0.153 -14.549  0.00  0.00     0.274 C 
BRANCH  18  19
HETATM   19  C           1     -36.509  -0.507 -15.775  0.00  0.00     0.044 C 
BRANCH  19  20
HETATM   20  C           1     -35.407  -0.901 -16.749  0.00  0.00     0.030 C 
BRANCH  20  21
HETATM   21  C           1     -35.098  -2.384 -16.595  0.00  0.00     0.230 C 
BRANCH  21  22
HETATM   22  N           1     -33.871  -2.725 -17.386  0.00  0.00    -0.079 N 
HETATM   23  H           1     -33.339  -1.852 -17.601  0.00  0.00     0.274 HD
HETATM   24  H           1     -34.151  -3.191 -18.280  0.00  0.00     0.274 HD
HETATM   25  H           1     -33.267  -3.373 -16.831  0.00  0.00     0.274 HD
ENDBRANCH  21  22
ENDBRANCH  20  21
ENDBRANCH  19  20
ENDBRANCH  18  19
BRANCH  18  26
HETATM   26  N           1     -34.488   0.575 -14.862  0.00  0.00    -0.067 N 
HETATM   27  H           1     -33.816  -0.114 -14.456  0.00  0.00     0.275 HD
HETATM   28  H           1     -34.359   0.615 -15.899  0.00  0.00     0.275 HD
HETATM   29  H           1     -34.308   1.520 -14.452  0.00  0.00     0.275 HD
ENDBRANCH  18  26
ENDBRANCH   1  18
TORSDOF 11
ENDMDL
MODEL 5
REMARK VINA RESULT:      -6.4     14.780     17.640
REMARK  11 active torsions:
REMARK  status: ('A' for Active; 'I' for Inactive)
REMARK    1  A    between atoms: N_1  and  C_20 
REMARK    2  A    between atoms: C_2  and  C_3 
REMARK    3  A    between atoms: C_3  and  C_5 
REMARK    4  A    between atoms: C_3  and  N_17 
REMARK    5  A    between atoms: C_5  and  C_10 
REMARK       I    between atoms: C_7  and  N_17 
REMARK    6  A    between atoms: C_7  and  C_8 
REMARK    7  A    between atoms: C_8  and  C_22 
REMARK    8  A    between atoms: C_8  and  N_11 
REMARK    9  A    between atoms: C_9  and  O_14 
REMARK   10  A    between atoms: C_20  and  C_21 
REMARK   11  A    between atoms: C_21  and  C_22 
ROOT
HETATM    1  C           1     -20.138  -5.267  -6.110  0.00  0.00     0.249 C 
HETATM    2  O           1     -20.186  -4.742  -5.024  0.00  0.00    -0.271 OA
HETATM    3  N           1     -20.045  -6.629  -6.209  0.00  0.00    -0.344 N 
HETATM    4  H           1     -20.005  -7.069  -7.120  0.00  0.00     0.163 HD
ENDROOT
BRANCH   3   5
HETATM    5  C           1     -20.004  -7.441  -5.008  0.00  0.00     0.189 C 
BRANCH   5   6
HETATM    6  C           1     -19.029  -8.576  -5.202  0.00  0.00     0.197 C 
HETATM    7  O           1     -18.695  -9.285  -4.229  0.00  0.00    -0.646 OA
HETATM    8  O           1     -18.554  -8.806  -6.335  0.00  0.00    -0.646 OA
ENDBRANCH   5   6
BRANCH   5   9
HETATM    9  C           1     -21.392  -8.005  -4.731  0.00  0.00     0.074 C 
BRANCH   9  10
HETATM   10  C           1     -21.681  -7.922  -3.264  0.00  0.00    -0.056 A 
HETATM   11  C           1     -21.940  -6.685  -2.673  0.00  0.00     0.010 A 
HETATM   12  C           1     -22.209  -6.609  -1.307  0.00  0.00     0.037 A 
HETATM   13  C           1     -22.219  -7.769  -0.532  0.00  0.00     0.065 A 
HETATM   14  C           1     -21.960  -9.006  -1.123  0.00  0.00     0.037 A 
HETATM   15  C           1     -21.691  -9.082  -2.490  0.00  0.00     0.010 A 
BRANCH  13  16
HETATM   16  O           1     -22.481  -7.695   0.796  0.00  0.00    -0.361 OA
HETATM   17  H           1     -23.333  -7.242   0.909  0.00  0.00     0.217 HD
ENDBRANCH  13  16
ENDBRANCH   9  10
ENDBRANCH   5   9
ENDBRANCH   3   5
BRANCH   1  18
HETATM   18  C           1     -20.180  -4.421  -7.360  0.00  0.00     0.274 C 
BRANCH  18  19
HETATM   19  C           1     -21.509  -3.679  -7.426  0.00  0.00     0.044 C 
BRANCH  19  20
HETATM   20  C           1     -22.515  -4.507  -8.213  0.00  0.00     0.030 C 
BRANCH  20  21
HETATM   21  C           1     -23.120  -3.655  -9.320  0.00  0.00     0.230 C 
BRANCH  21  22
HETATM   22  N           1     -24.545  -3.332  -8.981  0.00  0.00    -0.079 N 
HETATM   23  H           1     -24.648  -2.301  -8.847  0.00  0.00     0.274 HD
HETATM   24  H           1     -24.815  -3.826  -8.100  0.00  0.00     0.274 HD
HETATM   25  H           1     -25.168  -3.644  -9.760  0.00  0.00     0.274 HD
ENDBRANCH  21  22
ENDBRANCH  20  21
ENDBRANCH  19  20
ENDBRANCH  18  19
BRANCH  18  26
HETATM   26  N           1     -20.041  -5.303  -8.565  0.00  0.00    -0.067 N 
HETATM   27  H           1     -19.775  -6.268  -8.263  0.00  0.00     0.275 HD
HETATM   28  H           1     -20.950  -5.338  -9.078  0.00  0.00     0.275 HD
HETATM   29  H           1     -19.299  -4.919  -9.194  0.00  0.00     0.275 HD
ENDBRANCH  18  26
ENDBRANCH   1  18
TORSDOF 11
ENDMDL
MODEL 6
REMARK VINA RESULT:      -6.3     14.149     17.338
REMARK  11 active torsions:
REMARK  status: ('A' for Active; 'I' for Inactive)
REMARK    1  A    between atoms: N_1  and  C_20 
REMARK    2  A    between atoms: C_2  and  C_3 
REMARK    3  A    between atoms: C_3  and  C_5 
REMARK    4  A    between atoms: C_3  and  N_17 
REMARK    5  A    between atoms: C_5  and  C_10 
REMARK       I    between atoms: C_7  and  N_17 
REMARK    6  A    between atoms: C_7  and  C_8 
REMARK    7  A    between atoms: C_8  and  C_22 
REMARK    8  A    between atoms: C_8  and  N_11 
REMARK    9  A    between atoms: C_9  and  O_14 
REMARK   10  A    between atoms: C_20  and  C_21 
REMARK   11  A    between atoms: C_21  and  C_22 
ROOT
HETATM    1  C           1     -21.047  -7.351  -5.562  0.00  0.00     0.249 C 
HETATM    2  O           1     -19.974  -7.655  -6.024  0.00  0.00    -0.271 OA
HETATM    3  N           1     -21.673  -6.207  -5.979  0.00  0.00    -0.344 N 
HETATM    4  H           1     -22.573  -5.951  -5.592  0.00  0.00     0.163 HD
ENDROOT
BRANCH   3   5
HETATM    5  C           1     -21.046  -5.361  -6.977  0.00  0.00     0.189 C 
BRANCH   5   6
HETATM    6  C           1     -19.803  -4.734  -6.396  0.00  0.00     0.197 C 
HETATM    7  O           1     -18.780  -4.605  -7.101  0.00  0.00    -0.646 OA
HETATM    8  O           1     -19.797  -4.345  -5.208  0.00  0.00    -0.646 OA
ENDBRANCH   5   6
BRANCH   5   9
HETATM    9  C           1     -22.019  -4.267  -7.397  0.00  0.00     0.074 C 
BRANCH   9  10
HETATM   10  C           1     -21.978  -4.105  -8.885  0.00  0.00    -0.056 A 
HETATM   11  C           1     -20.803  -4.383  -9.584  0.00  0.00     0.010 A 
HETATM   12  C           1     -20.765  -4.232 -10.970  0.00  0.00     0.037 A 
HETATM   13  C           1     -21.901  -3.802 -11.657  0.00  0.00     0.065 A 
HETATM   14  C           1     -23.075  -3.525 -10.958  0.00  0.00     0.037 A 
HETATM   15  C           1     -23.113  -3.676  -9.571  0.00  0.00     0.010 A 
BRANCH  13  16
HETATM   16  O           1     -21.864  -3.656 -13.004  0.00  0.00    -0.361 OA
HETATM   17  H           1     -21.415  -2.817 -13.202  0.00  0.00     0.217 HD
ENDBRANCH  13  16
ENDBRANCH   9  10
ENDBRANCH   5   9
ENDBRANCH   3   5
BRANCH   1  18
HETATM   18  C           1     -21.699  -8.231  -4.523  0.00  0.00     0.274 C 
BRANCH  18  19
HETATM   19  C           1     -21.158  -7.875  -3.145  0.00  0.00     0.044 C 
BRANCH  19  20
HETATM   20  C           1     -21.769  -6.560  -2.682  0.00  0.00     0.030 C 
BRANCH  20  21
HETATM   21  C           1     -22.347  -6.732  -1.284  0.00  0.00     0.230 C 
BRANCH  21  22
HETATM   22  N           1     -21.985  -8.087  -0.754  0.00  0.00    -0.079 N 
HETATM   23  H           1     -21.866  -8.753  -1.550  0.00  0.00     0.274 HD
HETATM   24  H           1     -22.744  -8.430  -0.123  0.00  0.00     0.274 HD
HETATM   25  H           1     -21.089  -8.024  -0.218  0.00  0.00     0.274 HD
ENDBRANCH  21  22
ENDBRANCH  20  21
ENDBRANCH  19  20
ENDBRANCH  18  19
BRANCH  18  26
HETATM   26  N           1     -21.394  -9.668  -4.824  0.00  0.00    -0.067 N 
HETATM   27  H           1     -20.361  -9.794  -4.920  0.00  0.00     0.275 HD
HETATM   28  H           1     -21.746 -10.269  -4.045  0.00  0.00     0.275 HD
HETATM   29  H           1     -21.862  -9.944  -5.717  0.00  0.00     0.275 HD
ENDBRANCH  18  26
ENDBRANCH   1  18
TORSDOF 11
ENDMDL
MODEL 7
REMARK VINA RESULT:      -6.3      1.809      2.469
REMARK  11 active torsions:
REMARK  status: ('A' for Active; 'I' for Inactive)
REMARK    1  A    between atoms: N_1  and  C_20 
REMARK    2  A    between atoms: C_2  and  C_3 
REMARK    3  A    between atoms: C_3  and  C_5 
REMARK    4  A    between atoms: C_3  and  N_17 
REMARK    5  A    between atoms: C_5  and  C_10 
REMARK       I    between atoms: C_7  and  N_17 
REMARK    6  A    between atoms: C_7  and  C_8 
REMARK    7  A    between atoms: C_8  and  C_22 
REMARK    8  A    between atoms: C_8  and  N_11 
REMARK    9  A    between atoms: C_9  and  O_14 
REMARK   10  A    between atoms: C_20  and  C_21 
REMARK   11  A    between atoms: C_21  and  C_22 
ROOT
HETATM    1  C           1     -36.768  -0.156 -12.588  0.00  0.00     0.249 C 
HETATM    2  O           1     -37.927  -0.494 -12.619  0.00  0.00    -0.271 OA
HETATM    3  N           1     -36.110  -0.072 -11.390  0.00  0.00    -0.344 N 
HETATM    4  H           1     -35.139   0.210 -11.364  0.00  0.00     0.163 HD
ENDROOT
BRANCH   3   5
HETATM    5  C           1     -36.807  -0.388 -10.158  0.00  0.00     0.189 C 
BRANCH   5   6
HETATM    6  C           1     -37.058   0.882  -9.383  0.00  0.00     0.197 C 
HETATM    7  O           1     -36.252   1.245  -8.501  0.00  0.00    -0.646 OA
HETATM    8  O           1     -38.074   1.570  -9.623  0.00  0.00    -0.646 OA
ENDBRANCH   5   6
BRANCH   5   9
HETATM    9  C           1     -35.955  -1.334  -9.323  0.00  0.00     0.074 C 
BRANCH   9  10
HETATM   10  C           1     -35.166  -2.229 -10.229  0.00  0.00    -0.056 A 
HETATM   11  C           1     -35.800  -3.273 -10.902  0.00  0.00     0.010 A 
HETATM   12  C           1     -35.066  -4.106 -11.745  0.00  0.00     0.037 A 
HETATM   13  C           1     -33.697  -3.895 -11.915  0.00  0.00     0.065 A 
HETATM   14  C           1     -33.063  -2.850 -11.243  0.00  0.00     0.037 A 
HETATM   15  C           1     -33.799  -2.017 -10.399  0.00  0.00     0.010 A 
BRANCH  13  16
HETATM   16  O           1     -32.983  -4.704 -12.735  0.00  0.00    -0.361 OA
HETATM   17  H           1     -32.428  -4.143 -13.302  0.00  0.00     0.217 HD
ENDBRANCH  13  16
ENDBRANCH   9  10
ENDBRANCH   5   9
ENDBRANCH   3   5
BRANCH   1  18
HETATM   18  C           1     -36.043   0.173 -13.871  0.00  0.00     0.274 C 
BRANCH  18  19
HETATM   19  C           1     -37.012   0.075 -15.042  0.00  0.00     0.044 C 
BRANCH  19  20
HETATM   20  C           1     -36.376   0.690 -16.280  0.00  0.00     0.030 C 
BRANCH  20  21
HETATM   21  C           1     -35.845   2.077 -15.945  0.00  0.00     0.230 C 
BRANCH  21  22
HETATM   22  N           1     -36.699   3.115 -16.611  0.00  0.00    -0.079 N 
HETATM   23  H           1     -36.420   4.064 -16.276  0.00  0.00     0.274 HD
HETATM   24  H           1     -37.703   2.944 -16.375  0.00  0.00     0.274 HD
HETATM   25  H           1     -36.570   3.060 -17.647  0.00  0.00     0.274 HD
ENDBRANCH  21  22
ENDBRANCH  20  21
ENDBRANCH  19  20
ENDBRANCH  18  19
BRANCH  18  26
HETATM   26  N           1     -34.918  -0.798 -14.072  0.00  0.00    -0.067 N 
HETATM   27  H           1     -35.113  -1.392 -14.909  0.00  0.00     0.275 HD
HETATM   28  H           1     -34.027  -0.273 -14.219  0.00  0.00     0.275 HD
HETATM   29  H           1     -34.828  -1.408 -13.227  0.00  0.00     0.275 HD
ENDBRANCH  18  26
ENDBRANCH   1  18
TORSDOF 11
ENDMDL
MODEL 8
REMARK VINA RESULT:      -6.2     15.964     17.947
REMARK  11 active torsions:
REMARK  status: ('A' for Active; 'I' for Inactive)
REMARK    1  A    between atoms: N_1  and  C_20 
REMARK    2  A    between atoms: C_2  and  C_3 
REMARK    3  A    between atoms: C_3  and  C_5 
REMARK    4  A    between atoms: C_3  and  N_17 
REMARK    5  A    between atoms: C_5  and  C_10 
REMARK       I    between atoms: C_7  and  N_17 
REMARK    6  A    between atoms: C_7  and  C_8 
REMARK    7  A    between atoms: C_8  and  C_22 
REMARK    8  A    between atoms: C_8  and  N_11 
REMARK    9  A    between atoms: C_9  and  O_14 
REMARK   10  A    between atoms: C_20  and  C_21 
REMARK   11  A    between atoms: C_21  and  C_22 
ROOT
HETATM    1  C           1     -20.856  -6.169  -6.155  0.00  0.00     0.249 C 
HETATM    2  O           1     -20.680  -5.451  -5.201  0.00  0.00    -0.271 OA
HETATM    3  N           1     -20.674  -7.521  -6.039  0.00  0.00    -0.344 N 
HETATM    4  H           1     -20.823  -8.123  -6.839  0.00  0.00     0.163 HD
ENDROOT
BRANCH   3   5
HETATM    5  C           1     -20.270  -8.091  -4.767  0.00  0.00     0.189 C 
BRANCH   5   6
HETATM    6  C           1     -18.986  -8.862  -4.947  0.00  0.00     0.197 C 
HETATM    7  O           1     -18.336  -9.235  -3.948  0.00  0.00    -0.646 OA
HETATM    8  O           1     -18.573  -9.127  -6.097  0.00  0.00    -0.646 OA
ENDBRANCH   5   6
BRANCH   5   9
HETATM    9  C           1     -21.360  -9.027  -4.262  0.00  0.00     0.074 C 
BRANCH   9  10
HETATM   10  C           1     -21.659  -8.719  -2.827  0.00  0.00    -0.056 A 
HETATM   11  C           1     -21.932  -9.756  -1.935  0.00  0.00     0.010 A 
HETATM   12  C           1     -22.210  -9.469  -0.598  0.00  0.00     0.037 A 
HETATM   13  C           1     -22.216  -8.146  -0.156  0.00  0.00     0.065 A 
HETATM   14  C           1     -21.943  -7.110  -1.048  0.00  0.00     0.037 A 
HETATM   15  C           1     -21.665  -7.397  -2.385  0.00  0.00     0.010 A 
BRANCH  13  16
HETATM   16  O           1     -22.486  -7.867   1.143  0.00  0.00    -0.361 OA
HETATM   17  H           1     -21.798  -8.284   1.689  0.00  0.00     0.217 HD
ENDBRANCH  13  16
ENDBRANCH   9  10
ENDBRANCH   5   9
ENDBRANCH   3   5
BRANCH   1  18
HETATM   18  C           1     -21.276  -5.577  -7.478  0.00  0.00     0.274 C 
BRANCH  18  19
HETATM   19  C           1     -20.042  -5.127  -8.249  0.00  0.00     0.044 C 
BRANCH  19  20
HETATM   20  C           1     -20.417  -3.995  -9.195  0.00  0.00     0.030 C 
BRANCH  20  21
HETATM   21  C           1     -20.352  -4.491 -10.633  0.00  0.00     0.230 C 
BRANCH  21  22
HETATM   22  N           1     -20.415  -3.322 -11.570  0.00  0.00    -0.079 N 
HETATM   23  H           1     -21.409  -3.139 -11.835  0.00  0.00     0.274 HD
HETATM   24  H           1     -19.858  -3.533 -12.429  0.00  0.00     0.274 HD
HETATM   25  H           1     -20.020  -2.476 -11.099  0.00  0.00     0.274 HD
ENDBRANCH  21  22
ENDBRANCH  20  21
ENDBRANCH  19  20
ENDBRANCH  18  19
BRANCH  18  26
HETATM   26  N           1     -22.170  -4.397  -7.236  0.00  0.00    -0.067 N 
HETATM   27  H           1     -21.603  -3.596  -6.880  0.00  0.00     0.275 HD
HETATM   28  H           1     -22.635  -4.123  -8.131  0.00  0.00     0.275 HD
HETATM   29  H           1     -22.897  -4.650  -6.528  0.00  0.00     0.275 HD
ENDBRANCH  18  26
ENDBRANCH   1  18
TORSDOF 11
ENDMDL
MODEL 9
REMARK VINA RESULT:      -5.9     16.686     19.132
REMARK  11 active torsions:
REMARK  status: ('A' for Active; 'I' for Inactive)
REMARK    1  A    between atoms: N_1  and  C_20 
REMARK    2  A    between atoms: C_2  and  C_3 
REMARK    3  A    between atoms: C_3  and  C_5 
REMARK    4  A    between atoms: C_3  and  N_17 
REMARK    5  A    between atoms: C_5  and  C_10 
REMARK       I    between atoms: C_7  and  N_17 
REMARK    6  A    between atoms: C_7  and  C_8 
REMARK    7  A    between atoms: C_8  and  C_22 
REMARK    8  A    between atoms: C_8  and  N_11 
REMARK    9  A    between atoms: C_9  and  O_14 
REMARK   10  A    between atoms: C_20  and  C_21 
REMARK   11  A    between atoms: C_21  and  C_22 
ROOT
HETATM    1  C           1     -21.093  -9.157  -3.649  0.00  0.00     0.249 C 
HETATM    2  O           1     -22.036  -9.911  -3.678  0.00  0.00    -0.271 OA
HETATM    3  N           1     -20.927  -8.308  -2.588  0.00  0.00    -0.344 N 
HETATM    4  H           1     -20.136  -7.677  -2.563  0.00  0.00     0.163 HD
ENDROOT
BRANCH   3   5
HETATM    5  C           1     -21.885  -8.314  -1.499  0.00  0.00     0.189 C 
BRANCH   5   6
HETATM    6  C           1     -22.323  -6.900  -1.207  0.00  0.00     0.197 C 
HETATM    7  O           1     -22.620  -6.566  -0.040  0.00  0.00    -0.646 OA
HETATM    8  O           1     -22.390  -6.063  -2.133  0.00  0.00    -0.646 OA
ENDBRANCH   5   6
BRANCH   5   9
HETATM    9  C           1     -21.237  -8.913  -0.257  0.00  0.00     0.074 C 
BRANCH   9  10
HETATM   10  C           1     -21.869 -10.236   0.048  0.00  0.00    -0.056 A 
HETATM   11  C           1     -23.203 -10.465  -0.287  0.00  0.00     0.010 A 
HETATM   12  C           1     -23.791 -11.698  -0.002  0.00  0.00     0.037 A 
HETATM   13  C           1     -23.044 -12.700   0.616  0.00  0.00     0.065 A 
HETATM   14  C           1     -21.709 -12.471   0.951  0.00  0.00     0.037 A 
HETATM   15  C           1     -21.122 -11.238   0.666  0.00  0.00     0.010 A 
BRANCH  13  16
HETATM   16  O           1     -23.615 -13.898   0.893  0.00  0.00    -0.361 OA
HETATM   17  H           1     -24.233 -13.773   1.632  0.00  0.00     0.217 HD
ENDBRANCH  13  16
ENDBRANCH   9  10
ENDBRANCH   5   9
ENDBRANCH   3   5
BRANCH   1  18
HETATM   18  C           1     -20.096  -9.151  -4.782  0.00  0.00     0.274 C 
BRANCH  18  19
HETATM   19  C           1     -19.933  -7.731  -5.307  0.00  0.00     0.044 C 
BRANCH  19  20
HETATM   20  C           1     -21.190  -7.319  -6.059  0.00  0.00     0.030 C 
BRANCH  20  21
HETATM   21  C           1     -21.668  -5.966  -5.551  0.00  0.00     0.230 C 
BRANCH  21  22
HETATM   22  N           1     -23.045  -6.104  -4.974  0.00  0.00    -0.079 N 
HETATM   23  H           1     -22.996  -6.632  -4.074  0.00  0.00     0.274 HD
HETATM   24  H           1     -23.655  -6.622  -5.647  0.00  0.00     0.274 HD
HETATM   25  H           1     -23.447  -5.155  -4.799  0.00  0.00     0.274 HD
ENDBRANCH  21  22
ENDBRANCH  20  21
ENDBRANCH  19  20
ENDBRANCH  18  19
BRANCH  18  26
HETATM   26  N           1     -20.590 -10.038  -5.886  0.00  0.00    -0.067 N 
HETATM   27  H           1     -21.276 -10.725  -5.503  0.00  0.00     0.275 HD
HETATM   28  H           1     -21.055  -9.455  -6.619  0.00  0.00     0.275 HD
HETATM   29  H           1     -19.783 -10.550  -6.309  0.00  0.00     0.275 HD
ENDBRANCH  18  26
ENDBRANCH   1  18
TORSDOF 11
ENDMDL
