MODEL 1
REMARK VINA RESULT:      -7.3      0.000      0.000
REMARK  9 active torsions:
REMARK  status: ('A' for Active; 'I' for Inactive)
REMARK    1  A    between atoms: N_2  and  C_14 
REMARK    2  A    between atoms: C_4  and  O_5 
REMARK    3  A    between atoms: C_4  and  C_7 
REMARK    4  A    between atoms: C_7  and  C_24 
REMARK    5  A    between atoms: C_7  and  N_17 
REMARK       I    between atoms: C_13  and  N_17 
REMARK    6  A    between atoms: C_13  and  C_14 
REMARK    7  A    between atoms: C_14  and  C_15 
REMARK    8  A    between atoms: C_15  and  C_16 
REMARK    9  A    between atoms: C_25  and  O_26 
ROOT
HETATM    1  C           1     -35.899  -0.687 -11.259  0.00  0.00     0.278 C 
ENDROOT
BRANCH   1   2
HETATM    2  N           1     -36.196   0.425 -10.297  0.00  0.00    -0.066 N 
HETATM    3  H           1     -35.463   1.164 -10.382  0.00  0.00     0.275 HD
HETATM    4  H           1     -36.201   0.050  -9.322  0.00  0.00     0.275 HD
HETATM    5  H           1     -37.131   0.834 -10.518  0.00  0.00     0.275 HD
ENDBRANCH   1   2
BRANCH   1   6
HETATM    6  C           1     -36.715  -0.499 -12.514  0.00  0.00     0.249 C 
HETATM    7  O           1     -37.911  -0.341 -12.438  0.00  0.00    -0.271 OA
HETATM    8  N           1     -36.101  -0.505 -13.737  0.00  0.00    -0.343 N 
HETATM    9  H           1     -35.100  -0.636 -13.800  0.00  0.00     0.163 HD
BRANCH   8  10
HETATM   10  C           1     -36.886  -0.324 -14.943  0.00  0.00     0.214 C 
BRANCH  10  11
HETATM   11  C           1     -37.049   1.165 -15.225  0.00  0.00     0.147 C 
HETATM   12  C           1     -35.746   1.722 -15.782  0.00  0.00     0.042 C 
BRANCH  11  13
HETATM   13  O           1     -38.075   1.352 -16.162  0.00  0.00    -0.393 OA
HETATM   14  H           1     -38.182   0.535 -16.618  0.00  0.00     0.210 HD
ENDBRANCH  11  13
ENDBRANCH  10  11
BRANCH  10  15
HETATM   15  C           1     -36.181  -0.980 -16.105  0.00  0.00     0.199 C 
HETATM   16  O           1     -36.654  -0.885 -17.257  0.00  0.00    -0.646 OA
HETATM   17  O           1     -35.123  -1.619 -15.913  0.00  0.00    -0.646 OA
ENDBRANCH  10  15
ENDBRANCH   8  10
ENDBRANCH   1   6
BRANCH   1  18
HETATM   18  C           1     -36.254  -2.022 -10.617  0.00  0.00     0.081 C 
BRANCH  18  19
HETATM   19  C           1     -35.178  -3.021 -10.912  0.00  0.00    -0.056 A 
HETATM   20  C           1     -33.884  -2.588 -11.199  0.00  0.00     0.010 A 
HETATM   21  C           1     -32.882  -3.518 -11.474  0.00  0.00     0.037 A 
HETATM   22  C           1     -33.174  -4.882 -11.462  0.00  0.00     0.065 A 
HETATM   23  C           1     -34.469  -5.315 -11.175  0.00  0.00     0.037 A 
HETATM   24  C           1     -35.471  -4.385 -10.900  0.00  0.00     0.010 A 
BRANCH  22  25
HETATM   25  O           1     -32.202  -5.786 -11.730  0.00  0.00    -0.361 OA
HETATM   26  H           1     -32.035  -6.298 -10.920  0.00  0.00     0.217 HD
ENDBRANCH  22  25
ENDBRANCH  18  19
ENDBRANCH   1  18
TORSDOF 9
ENDMDL
MODEL 2
REMARK VINA RESULT:      -7.3     12.773     15.573
REMARK  9 active torsions:
REMARK  status: ('A' for Active; 'I' for Inactive)
REMARK    1  A    between atoms: N_2  and  C_14 
REMARK    2  A    between atoms: C_4  and  O_5 
REMARK    3  A    between atoms: C_4  and  C_7 
REMARK    4  A    between atoms: C_7  and  C_24 
REMARK    5  A    between atoms: C_7  and  N_17 
REMARK       I    between atoms: C_13  and  N_17 
REMARK    6  A    between atoms: C_13  and  C_14 
REMARK    7  A    between atoms: C_14  and  C_15 
REMARK    8  A    between atoms: C_15  and  C_16 
REMARK    9  A    between atoms: C_25  and  O_26 
ROOT
HETATM    1  C           1     -21.157  -5.654  -7.068  0.00  0.00     0.278 C 
ENDROOT
BRANCH   1   2
HETATM    2  N           1     -19.842  -6.056  -7.668  0.00  0.00    -0.066 N 
HETATM    3  H           1     -19.843  -7.085  -7.852  0.00  0.00     0.275 HD
HETATM    4  H           1     -19.069  -5.823  -7.004  0.00  0.00     0.275 HD
HETATM    5  H           1     -19.697  -5.541  -8.565  0.00  0.00     0.275 HD
ENDBRANCH   1   2
BRANCH   1   6
HETATM    6  C           1     -21.758  -4.534  -7.880  0.00  0.00     0.249 C 
HETATM    7  O           1     -21.889  -3.437  -7.391  0.00  0.00    -0.271 OA
HETATM    8  N           1     -22.154  -4.761  -9.171  0.00  0.00    -0.343 N 
HETATM    9  H           1     -22.043  -5.680  -9.580  0.00  0.00     0.163 HD
BRANCH   8  10
HETATM   10  C           1     -22.732  -3.684  -9.951  0.00  0.00     0.214 C 
BRANCH  10  11
HETATM   11  C           1     -22.012  -3.583 -11.290  0.00  0.00     0.147 C 
HETATM   12  C           1     -20.559  -4.005 -11.119  0.00  0.00     0.042 C 
BRANCH  11  13
HETATM   13  O           1     -22.637  -4.425 -12.220  0.00  0.00    -0.393 OA
HETATM   14  H           1     -23.040  -3.870 -12.866  0.00  0.00     0.210 HD
ENDBRANCH  11  13
ENDBRANCH  10  11
BRANCH  10  15
HETATM   15  C           1     -24.196  -3.967 -10.189  0.00  0.00     0.199 C 
HETATM   16  O           1     -24.926  -3.091 -10.699  0.00  0.00    -0.646 OA
HETATM   17  O           1     -24.677  -5.077  -9.874  0.00  0.00    -0.646 OA
ENDBRANCH  10  15
ENDBRANCH   8  10
ENDBRANCH   1   6
BRANCH   1  18
HETATM   18  C           1     -20.938  -5.184  -5.636  0.00  0.00     0.081 C 
BRANCH  18  19
HETATM   19  C           1     -21.177  -6.323  -4.693  0.00  0.00    -0.056 A 
HETATM   20  C           1     -21.314  -7.619  -5.188  0.00  0.00     0.010 A 
HETATM   21  C           1     -21.536  -8.680  -4.310  0.00  0.00     0.037 A 
HETATM   22  C           1     -21.622  -8.444  -2.938  0.00  0.00     0.065 A 
HETATM   23  C           1     -21.485  -7.147  -2.444  0.00  0.00     0.037 A 
HETATM   24  C           1     -21.263  -6.086  -3.321  0.00  0.00     0.010 A 
BRANCH  22  25
HETATM   25  O           1     -21.838  -9.474  -2.086  0.00  0.00    -0.361 OA
HETATM   26  H           1     -21.456  -9.237  -1.224  0.00  0.00     0.217 HD
ENDBRANCH  22  25
ENDBRANCH  18  19
ENDBRANCH   1  18
TORSDOF 9
ENDMDL
MODEL 3
REMARK VINA RESULT:      -7.3     13.816     17.278
REMARK  9 active torsions:
REMARK  status: ('A' for Active; 'I' for Inactive)
REMARK    1  A    between atoms: N_2  and  C_14 
REMARK    2  A    between atoms: C_4  and  O_5 
REMARK    3  A    between atoms: C_4  and  C_7 
REMARK    4  A    between atoms: C_7  and  C_24 
REMARK    5  A    between atoms: C_7  and  N_17 
REMARK       I    between atoms: C_13  and  N_17 
REMARK    6  A    between atoms: C_13  and  C_14 
REMARK    7  A    between atoms: C_14  and  C_15 
REMARK    8  A    between atoms: C_15  and  C_16 
REMARK    9  A    between atoms: C_25  and  O_26 
ROOT
HETATM    1  C           1     -22.262  -5.164  -6.797  0.00  0.00     0.278 C 
ENDROOT
BRANCH   1   2
HETATM    2  N           1     -23.656  -4.875  -6.325  0.00  0.00    -0.066 N 
HETATM    3  H           1     -24.297  -5.636  -6.647  0.00  0.00     0.275 HD
HETATM    4  H           1     -23.976  -3.962  -6.718  0.00  0.00     0.275 HD
HETATM    5  H           1     -23.667  -4.829  -5.281  0.00  0.00     0.275 HD
ENDBRANCH   1   2
BRANCH   1   6
HETATM    6  C           1     -21.450  -5.722  -5.654  0.00  0.00     0.249 C 
HETATM    7  O           1     -20.247  -5.602  -5.653  0.00  0.00    -0.271 OA
HETATM    8  N           1     -22.075  -6.362  -4.619  0.00  0.00    -0.343 N 
HETATM    9  H           1     -23.082  -6.462  -4.620  0.00  0.00     0.163 HD
BRANCH   8  10
HETATM   10  C           1     -21.294  -6.898  -3.521  0.00  0.00     0.214 C 
BRANCH  10  11
HETATM   11  C           1     -22.139  -6.907  -2.253  0.00  0.00     0.147 C 
HETATM   12  C           1     -21.358  -7.573  -1.127  0.00  0.00     0.042 C 
BRANCH  11  13
HETATM   13  O           1     -22.448  -5.589  -1.890  0.00  0.00    -0.393 OA
HETATM   14  H           1     -22.134  -5.033  -2.582  0.00  0.00     0.210 HD
ENDBRANCH  11  13
ENDBRANCH  10  11
BRANCH  10  15
HETATM   15  C           1     -20.869  -8.309  -3.850  0.00  0.00     0.199 C 
HETATM   16  O           1     -19.656  -8.607  -3.869  0.00  0.00    -0.646 OA
HETATM   17  O           1     -21.731  -9.179  -4.104  0.00  0.00    -0.646 OA
ENDBRANCH  10  15
ENDBRANCH   8  10
ENDBRANCH   1   6
BRANCH   1  18
HETATM   18  C           1     -21.619  -3.876  -7.296  0.00  0.00     0.081 C 
BRANCH  18  19
HETATM   19  C           1     -21.640  -3.855  -8.794  0.00  0.00    -0.056 A 
HETATM   20  C           1     -22.822  -3.557  -9.470  0.00  0.00     0.010 A 
HETATM   21  C           1     -22.842  -3.537 -10.864  0.00  0.00     0.037 A 
HETATM   22  C           1     -21.679  -3.815 -11.582  0.00  0.00     0.065 A 
HETATM   23  C           1     -20.496  -4.114 -10.905  0.00  0.00     0.037 A 
HETATM   24  C           1     -20.477  -4.134  -9.511  0.00  0.00     0.010 A 
BRANCH  22  25
HETATM   25  O           1     -21.698  -3.797 -12.936  0.00  0.00    -0.361 OA
HETATM   26  H           1     -22.325  -4.475 -13.238  0.00  0.00     0.217 HD
ENDBRANCH  22  25
ENDBRANCH  18  19
ENDBRANCH   1  18
TORSDOF 9
ENDMDL
MODEL 4
REMARK VINA RESULT:      -7.2      1.704      2.004
REMARK  9 active torsions:
REMARK  status: ('A' for Active; 'I' for Inactive)
REMARK    1  A    between atoms: N_2  and  C_14 
REMARK    2  A    between atoms: C_4  and  O_5 
REMARK    3  A    between atoms: C_4  and  C_7 
REMARK    4  A    between atoms: C_7  and  C_24 
REMARK    5  A    between atoms: C_7  and  N_17 
REMARK       I    between atoms: C_13  and  N_17 
REMARK    6  A    between atoms: C_13  and  C_14 
REMARK    7  A    between atoms: C_14  and  C_15 
REMARK    8  A    between atoms: C_15  and  C_16 
REMARK    9  A    between atoms: C_25  and  O_26 
ROOT
HETATM    1  C           1     -34.544  -2.474 -11.758  0.00  0.00     0.278 C 
ENDROOT
BRANCH   1   2
HETATM    2  N           1     -33.656  -1.508 -11.032  0.00  0.00    -0.066 N 
HETATM    3  H           1     -33.828  -1.581 -10.004  0.00  0.00     0.275 HD
HETATM    4  H           1     -33.863  -0.535 -11.352  0.00  0.00     0.275 HD
HETATM    5  H           1     -32.656  -1.735 -11.234  0.00  0.00     0.275 HD
ENDBRANCH   1   2
BRANCH   1   6
HETATM    6  C           1     -35.500  -1.712 -12.642  0.00  0.00     0.249 C 
HETATM    7  O           1     -36.625  -1.490 -12.262  0.00  0.00    -0.271 OA
HETATM    8  N           1     -35.092  -1.272 -13.872  0.00  0.00    -0.343 N 
HETATM    9  H           1     -34.149  -1.458 -14.189  0.00  0.00     0.163 HD
BRANCH   8  10
HETATM   10  C           1     -36.012  -0.540 -14.721  0.00  0.00     0.214 C 
BRANCH  10  11
HETATM   11  C           1     -35.801   0.957 -14.526  0.00  0.00     0.147 C 
HETATM   12  C           1     -34.433   1.202 -13.903  0.00  0.00     0.042 C 
BRANCH  11  13
HETATM   13  O           1     -35.871   1.602 -15.769  0.00  0.00    -0.393 OA
HETATM   14  H           1     -35.049   1.450 -16.203  0.00  0.00     0.210 HD
ENDBRANCH  11  13
ENDBRANCH  10  11
BRANCH  10  15
HETATM   15  C           1     -35.757  -0.898 -16.165  0.00  0.00     0.199 C 
HETATM   16  O           1     -36.660  -0.751 -17.014  0.00  0.00    -0.646 OA
HETATM   17  O           1     -34.640  -1.344 -16.510  0.00  0.00    -0.646 OA
ENDBRANCH  10  15
ENDBRANCH   8  10
ENDBRANCH   1   6
BRANCH   1  18
HETATM   18  C           1     -35.331  -3.297 -10.747  0.00  0.00     0.081 C 
BRANCH  18  19
HETATM   19  C           1     -34.753  -4.677 -10.666  0.00  0.00    -0.056 A 
HETATM   20  C           1     -33.511  -4.946 -11.239  0.00  0.00     0.010 A 
HETATM   21  C           1     -32.972  -6.230 -11.164  0.00  0.00     0.037 A 
HETATM   22  C           1     -33.676  -7.245 -10.516  0.00  0.00     0.065 A 
HETATM   23  C           1     -34.920  -6.975  -9.943  0.00  0.00     0.037 A 
HETATM   24  C           1     -35.458  -5.691 -10.018  0.00  0.00     0.010 A 
BRANCH  22  25
HETATM   25  O           1     -33.154  -8.493 -10.443  0.00  0.00    -0.361 OA
HETATM   26  H           1     -33.012  -8.706  -9.505  0.00  0.00     0.217 HD
ENDBRANCH  22  25
ENDBRANCH  18  19
ENDBRANCH   1  18
TORSDOF 9
ENDMDL
MODEL 5
REMARK VINA RESULT:      -7.1      5.286      7.296
REMARK  9 active torsions:
REMARK  status: ('A' for Active; 'I' for Inactive)
REMARK    1  A    between atoms: N_2  and  C_14 
REMARK    2  A    between atoms: C_4  and  O_5 
REMARK    3  A    between atoms: C_4  and  C_7 
REMARK    4  A    between atoms: C_7  and  C_24 
REMARK    5  A    between atoms: C_7  and  N_17 
REMARK       I    between atoms: C_13  and  N_17 
REMARK    6  A    between atoms: C_13  and  C_14 
REMARK    7  A    between atoms: C_14  and  C_15 
REMARK    8  A    between atoms: C_15  and  C_16 
REMARK    9  A    between atoms: C_25  and  O_26 
ROOT
HETATM    1  C           1     -33.026  -4.501 -16.677  0.00  0.00     0.278 C 
ENDROOT
BRANCH   1   2
HETATM    2  N           1     -33.204  -3.197 -17.396  0.00  0.00    -0.066 N 
HETATM    3  H           1     -32.491  -2.512 -17.057  0.00  0.00     0.275 HD
HETATM    4  H           1     -34.162  -2.823 -17.209  0.00  0.00     0.275 HD
HETATM    5  H           1     -33.083  -3.347 -18.423  0.00  0.00     0.275 HD
ENDBRANCH   1   2
BRANCH   1   6
HETATM    6  C           1     -33.852  -4.497 -15.414  0.00  0.00     0.249 C 
HETATM    7  O           1     -34.987  -4.910 -15.434  0.00  0.00    -0.271 OA
HETATM    8  N           1     -33.315  -4.025 -14.247  0.00  0.00    -0.343 N 
HETATM    9  H           1     -32.364  -3.680 -14.231  0.00  0.00     0.163 HD
BRANCH   8  10
HETATM   10  C           1     -34.109  -4.021 -13.034  0.00  0.00     0.214 C 
BRANCH  10  11
HETATM   11  C           1     -33.249  -4.473 -11.861  0.00  0.00     0.147 C 
HETATM   12  C           1     -33.916  -5.653 -11.166  0.00  0.00     0.042 C 
BRANCH  11  13
HETATM   13  O           1     -31.986  -4.862 -12.331  0.00  0.00    -0.393 OA
HETATM   14  H           1     -31.840  -5.742 -12.029  0.00  0.00     0.210 HD
ENDBRANCH  11  13
ENDBRANCH  10  11
BRANCH  10  15
HETATM   15  C           1     -34.619  -2.624 -12.773  0.00  0.00     0.199 C 
HETATM   16  O           1     -35.023  -1.919 -13.721  0.00  0.00    -0.646 OA
HETATM   17  O           1     -34.635  -2.174 -11.606  0.00  0.00    -0.646 OA
ENDBRANCH  10  15
ENDBRANCH   8  10
ENDBRANCH   1   6
BRANCH   1  18
HETATM   18  C           1     -31.556  -4.689 -16.323  0.00  0.00     0.081 C 
BRANCH  18  19
HETATM   19  C           1     -30.983  -5.806 -17.140  0.00  0.00    -0.056 A 
HETATM   20  C           1     -29.604  -5.897 -17.325  0.00  0.00     0.010 A 
HETATM   21  C           1     -29.071  -6.936 -18.085  0.00  0.00     0.037 A 
HETATM   22  C           1     -29.915  -7.885 -18.660  0.00  0.00     0.065 A 
HETATM   23  C           1     -31.296  -7.794 -18.475  0.00  0.00     0.037 A 
HETATM   24  C           1     -31.829  -6.754 -17.715  0.00  0.00     0.010 A 
BRANCH  22  25
HETATM   25  O           1     -29.398  -8.895 -19.400  0.00  0.00    -0.361 OA
HETATM   26  H           1     -29.514  -9.723 -18.903  0.00  0.00     0.217 HD
ENDBRANCH  22  25
ENDBRANCH  18  19
ENDBRANCH   1  18
TORSDOF 9
ENDMDL
MODEL 6
REMARK VINA RESULT:      -7.1      2.180      3.224
REMARK  9 active torsions:
REMARK  status: ('A' for Active; 'I' for Inactive)
REMARK    1  A    between atoms: N_2  and  C_14 
REMARK    2  A    between atoms: C_4  and  O_5 
REMARK    3  A    between atoms: C_4  and  C_7 
REMARK    4  A    between atoms: C_7  and  C_24 
REMARK    5  A    between atoms: C_7  and  N_17 
REMARK       I    between atoms: C_13  and  N_17 
REMARK    6  A    between atoms: C_13  and  C_14 
REMARK    7  A    between atoms: C_14  and  C_15 
REMARK    8  A    between atoms: C_15  and  C_16 
REMARK    9  A    between atoms: C_25  and  O_26 
ROOT
HETATM    1  C           1     -34.070  -3.015 -11.403  0.00  0.00     0.278 C 
ENDROOT
BRANCH   1   2
HETATM    2  N           1     -33.617  -1.934 -10.467  0.00  0.00    -0.066 N 
HETATM    3  H           1     -34.183  -1.973  -9.590  0.00  0.00     0.275 HD
HETATM    4  H           1     -33.745  -1.002 -10.923  0.00  0.00     0.275 HD
HETATM    5  H           1     -32.608  -2.073 -10.237  0.00  0.00     0.275 HD
ENDBRANCH   1   2
BRANCH   1   6
HETATM    6  C           1     -34.629  -2.393 -12.659  0.00  0.00     0.249 C 
HETATM    7  O           1     -34.518  -2.964 -13.717  0.00  0.00    -0.271 OA
HETATM    8  N           1     -35.264  -1.181 -12.597  0.00  0.00    -0.343 N 
HETATM    9  H           1     -35.357  -0.703 -11.710  0.00  0.00     0.163 HD
BRANCH   8  10
HETATM   10  C           1     -35.801  -0.583 -13.804  0.00  0.00     0.214 C 
BRANCH  10  11
HETATM   11  C           1     -37.170   0.016 -13.509  0.00  0.00     0.147 C 
HETATM   12  C           1     -38.029  -0.036 -14.766  0.00  0.00     0.042 C 
BRANCH  11  13
HETATM   13  O           1     -37.791  -0.719 -12.489  0.00  0.00    -0.393 OA
HETATM   14  H           1     -38.688  -0.435 -12.454  0.00  0.00     0.210 HD
ENDBRANCH  11  13
ENDBRANCH  10  11
BRANCH  10  15
HETATM   15  C           1     -34.870   0.505 -14.282  0.00  0.00     0.199 C 
HETATM   16  O           1     -34.688   1.524 -13.583  0.00  0.00    -0.646 OA
HETATM   17  O           1     -34.283   0.386 -15.380  0.00  0.00    -0.646 OA
ENDBRANCH  10  15
ENDBRANCH   8  10
ENDBRANCH   1   6
BRANCH   1  18
HETATM   18  C           1     -35.148  -3.852 -10.727  0.00  0.00     0.081 C 
BRANCH  18  19
HETATM   19  C           1     -34.651  -5.253 -10.543  0.00  0.00    -0.056 A 
HETATM   20  C           1     -35.398  -6.165  -9.798  0.00  0.00     0.010 A 
HETATM   21  C           1     -34.936  -7.469  -9.626  0.00  0.00     0.037 A 
HETATM   22  C           1     -33.727  -7.862 -10.199  0.00  0.00     0.065 A 
HETATM   23  C           1     -32.979  -6.949 -10.944  0.00  0.00     0.037 A 
HETATM   24  C           1     -33.442  -5.645 -11.116  0.00  0.00     0.010 A 
BRANCH  22  25
HETATM   25  O           1     -33.277  -9.129 -10.032  0.00  0.00    -0.361 OA
HETATM   26  H           1     -33.914  -9.732 -10.450  0.00  0.00     0.217 HD
ENDBRANCH  22  25
ENDBRANCH  18  19
ENDBRANCH   1  18
TORSDOF 9
ENDMDL
MODEL 7
REMARK VINA RESULT:      -6.8     14.008     17.577
REMARK  9 active torsions:
REMARK  status: ('A' for Active; 'I' for Inactive)
REMARK    1  A    between atoms: N_2  and  C_14 
REMARK    2  A    between atoms: C_4  and  O_5 
REMARK    3  A    between atoms: C_4  and  C_7 
REMARK    4  A    between atoms: C_7  and  C_24 
REMARK    5  A    between atoms: C_7  and  N_17 
REMARK       I    between atoms: C_13  and  N_17 
REMARK    6  A    between atoms: C_13  and  C_14 
REMARK    7  A    between atoms: C_14  and  C_15 
REMARK    8  A    between atoms: C_15  and  C_16 
REMARK    9  A    between atoms: C_25  and  O_26 
ROOT
HETATM    1  C           1     -21.920  -5.598  -6.788  0.00  0.00     0.278 C 
ENDROOT
BRANCH   1   2
HETATM    2  N           1     -23.145  -5.186  -6.026  0.00  0.00    -0.066 N 
HETATM    3  H           1     -22.860  -4.734  -5.128  0.00  0.00     0.275 HD
HETATM    4  H           1     -23.728  -6.029  -5.822  0.00  0.00     0.275 HD
HETATM    5  H           1     -23.699  -4.509  -6.598  0.00  0.00     0.275 HD
ENDBRANCH   1   2
BRANCH   1   6
HETATM    6  C           1     -21.036  -6.440  -5.902  0.00  0.00     0.249 C 
HETATM    7  O           1     -19.931  -6.756  -6.277  0.00  0.00    -0.271 OA
HETATM    8  N           1     -21.484  -6.844  -4.674  0.00  0.00    -0.343 N 
HETATM    9  H           1     -22.409  -6.579  -4.360  0.00  0.00     0.163 HD
BRANCH   8  10
HETATM   10  C           1     -20.634  -7.653  -3.823  0.00  0.00     0.214 C 
BRANCH  10  11
HETATM   11  C           1     -20.923  -7.332  -2.362  0.00  0.00     0.147 C 
HETATM   12  C           1     -22.062  -6.324  -2.279  0.00  0.00     0.042 C 
BRANCH  11  13
HETATM   13  O           1     -21.291  -8.507  -1.691  0.00  0.00    -0.393 OA
HETATM   14  H           1     -20.529  -9.060  -1.669  0.00  0.00     0.210 HD
ENDBRANCH  11  13
ENDBRANCH  10  11
BRANCH  10  15
HETATM   15  C           1     -20.911  -9.115  -4.079  0.00  0.00     0.199 C 
HETATM   16  O           1     -22.086  -9.512  -4.225  0.00  0.00    -0.646 OA
HETATM   17  O           1     -19.963  -9.928  -4.145  0.00  0.00    -0.646 OA
ENDBRANCH  10  15
ENDBRANCH   8  10
ENDBRANCH   1   6
BRANCH   1  18
HETATM   18  C           1     -21.159  -4.357  -7.235  0.00  0.00     0.081 C 
BRANCH  18  19
HETATM   19  C           1     -21.312  -4.181  -8.714  0.00  0.00    -0.056 A 
HETATM   20  C           1     -20.250  -4.485  -9.565  0.00  0.00     0.010 A 
HETATM   21  C           1     -20.392  -4.321 -10.943  0.00  0.00     0.037 A 
HETATM   22  C           1     -21.596  -3.854 -11.469  0.00  0.00     0.065 A 
HETATM   23  C           1     -22.658  -3.550 -10.618  0.00  0.00     0.037 A 
HETATM   24  C           1     -22.516  -3.713  -9.240  0.00  0.00     0.010 A 
BRANCH  22  25
HETATM   25  O           1     -21.734  -3.695 -12.807  0.00  0.00    -0.361 OA
HETATM   26  H           1     -20.854  -3.777 -13.213  0.00  0.00     0.217 HD
ENDBRANCH  22  25
ENDBRANCH  18  19
ENDBRANCH   1  18
TORSDOF 9
ENDMDL
MODEL 8
REMARK VINA RESULT:      -6.8     14.004     17.608
REMARK  9 active torsions:
REMARK  status: ('A' for Active; 'I' for Inactive)
REMARK    1  A    between atoms: N_2  and  C_14 
REMARK    2  A    between atoms: C_4  and  O_5 
REMARK    3  A    between atoms: C_4  and  C_7 
REMARK    4  A    between atoms: C_7  and  C_24 
REMARK    5  A    between atoms: C_7  and  N_17 
REMARK       I    between atoms: C_13  and  N_17 
REMARK    6  A    between atoms: C_13  and  C_14 
REMARK    7  A    between atoms: C_14  and  C_15 
REMARK    8  A    between atoms: C_15  and  C_16 
REMARK    9  A    between atoms: C_25  and  O_26 
ROOT
HETATM    1  C           1     -20.899  -4.902  -6.474  0.00  0.00     0.278 C 
ENDROOT
BRANCH   1   2
HETATM    2  N           1     -19.592  -4.482  -5.870  0.00  0.00    -0.066 N 
HETATM    3  H           1     -18.831  -4.587  -6.579  0.00  0.00     0.275 HD
HETATM    4  H           1     -19.380  -5.082  -5.042  0.00  0.00     0.275 HD
HETATM    5  H           1     -19.653  -3.483  -5.570  0.00  0.00     0.275 HD
ENDBRANCH   1   2
BRANCH   1   6
HETATM    6  C           1     -21.610  -5.840  -5.530  0.00  0.00     0.249 C 
HETATM    7  O           1     -22.818  -5.870  -5.505  0.00  0.00    -0.271 OA
HETATM    8  N           1     -20.887  -6.657  -4.703  0.00  0.00    -0.343 N 
HETATM    9  H           1     -19.876  -6.632  -4.725  0.00  0.00     0.163 HD
BRANCH   8  10
HETATM   10  C           1     -21.571  -7.559  -3.797  0.00  0.00     0.214 C 
BRANCH  10  11
HETATM   11  C           1     -20.848  -8.900  -3.771  0.00  0.00     0.147 C 
HETATM   12  C           1     -21.156  -9.668  -5.049  0.00  0.00     0.042 C 
BRANCH  11  13
HETATM   13  O           1     -19.466  -8.682  -3.678  0.00  0.00    -0.393 OA
HETATM   14  H           1     -19.341  -7.948  -3.102  0.00  0.00     0.210 HD
ENDBRANCH  11  13
ENDBRANCH  10  11
BRANCH  10  15
HETATM   15  C           1     -21.577  -6.965  -2.408  0.00  0.00     0.199 C 
HETATM   16  O           1     -20.876  -7.475  -1.508  0.00  0.00    -0.646 OA
HETATM   17  O           1     -22.284  -5.964  -2.160  0.00  0.00    -0.646 OA
ENDBRANCH  10  15
ENDBRANCH   8  10
ENDBRANCH   1   6
BRANCH   1  18
HETATM   18  C           1     -20.642  -5.611  -7.797  0.00  0.00     0.081 C 
BRANCH  18  19
HETATM   19  C           1     -21.172  -4.776  -8.922  0.00  0.00    -0.056 A 
HETATM   20  C           1     -20.329  -4.399  -9.967  0.00  0.00     0.010 A 
HETATM   21  C           1     -20.822  -3.622 -11.014  0.00  0.00     0.037 A 
HETATM   22  C           1     -22.159  -3.223 -11.018  0.00  0.00     0.065 A 
HETATM   23  C           1     -23.002  -3.600  -9.972  0.00  0.00     0.037 A 
HETATM   24  C           1     -22.509  -4.377  -8.924  0.00  0.00     0.010 A 
BRANCH  22  25
HETATM   25  O           1     -22.638  -2.468 -12.035  0.00  0.00    -0.361 OA
HETATM   26  H           1     -22.039  -2.569 -12.794  0.00  0.00     0.217 HD
ENDBRANCH  22  25
ENDBRANCH  18  19
ENDBRANCH   1  18
TORSDOF 9
ENDMDL
MODEL 9
REMARK VINA RESULT:      -6.5     13.914     16.891
REMARK  9 active torsions:
REMARK  status: ('A' for Active; 'I' for Inactive)
REMARK    1  A    between atoms: N_2  and  C_14 
REMARK    2  A    between atoms: C_4  and  O_5 
REMARK    3  A    between atoms: C_4  and  C_7 
REMARK    4  A    between atoms: C_7  and  C_24 
REMARK    5  A    between atoms: C_7  and  N_17 
REMARK       I    between atoms: C_13  and  N_17 
REMARK    6  A    between atoms: C_13  and  C_14 
REMARK    7  A    between atoms: C_14  and  C_15 
REMARK    8  A    between atoms: C_15  and  C_16 
REMARK    9  A    between atoms: C_25  and  O_26 
ROOT
HETATM    1  C           1     -20.586  -5.932  -5.155  0.00  0.00     0.278 C 
ENDROOT
BRANCH   1   2
HETATM    2  N           1     -20.107  -4.597  -4.667  0.00  0.00    -0.066 N 
HETATM    3  H           1     -20.525  -3.841  -5.255  0.00  0.00     0.275 HD
HETATM    4  H           1     -19.066  -4.554  -4.733  0.00  0.00     0.275 HD
HETATM    5  H           1     -20.399  -4.465  -3.672  0.00  0.00     0.275 HD
ENDBRANCH   1   2
BRANCH   1   6
HETATM    6  C           1     -20.747  -5.891  -6.655  0.00  0.00     0.249 C 
HETATM    7  O           1     -20.132  -6.665  -7.349  0.00  0.00    -0.271 OA
HETATM    8  N           1     -21.591  -4.978  -7.227  0.00  0.00    -0.343 N 
HETATM    9  H           1     -22.107  -4.331  -6.645  0.00  0.00     0.163 HD
BRANCH   8  10
HETATM   10  C           1     -21.746  -4.939  -8.668  0.00  0.00     0.214 C 
BRANCH  10  11
HETATM   11  C           1     -22.972  -4.109  -9.027  0.00  0.00     0.147 C 
HETATM   12  C           1     -23.696  -4.753 -10.201  0.00  0.00     0.042 C 
BRANCH  11  13
HETATM   13  O           1     -23.834  -4.051  -7.922  0.00  0.00    -0.393 OA
HETATM   14  H           1     -24.661  -4.403  -8.201  0.00  0.00     0.210 HD
ENDBRANCH  11  13
ENDBRANCH  10  11
BRANCH  10  15
HETATM   15  C           1     -20.519  -4.315  -9.288  0.00  0.00     0.199 C 
HETATM   16  O           1     -20.219  -4.570 -10.474  0.00  0.00    -0.646 OA
HETATM   17  O           1     -19.803  -3.543  -8.614  0.00  0.00    -0.646 OA
ENDBRANCH  10  15
ENDBRANCH   8  10
ENDBRANCH   1   6
BRANCH   1  18
HETATM   18  C           1     -21.926  -6.258  -4.508  0.00  0.00     0.081 C 
BRANCH  18  19
HETATM   19  C           1     -21.696  -6.864  -3.158  0.00  0.00    -0.056 A 
HETATM   20  C           1     -20.783  -7.907  -3.010  0.00  0.00     0.010 A 
HETATM   21  C           1     -20.569  -8.472  -1.753  0.00  0.00     0.037 A 
HETATM   22  C           1     -21.267  -7.993  -0.644  0.00  0.00     0.065 A 
HETATM   23  C           1     -22.180  -6.949  -0.793  0.00  0.00     0.037 A 
HETATM   24  C           1     -22.395  -6.384  -2.050  0.00  0.00     0.010 A 
BRANCH  22  25
HETATM   25  O           1     -21.059  -8.541   0.577  0.00  0.00    -0.361 OA
HETATM   26  H           1     -21.819  -8.317   1.141  0.00  0.00     0.217 HD
ENDBRANCH  22  25
ENDBRANCH  18  19
ENDBRANCH   1  18
TORSDOF 9
ENDMDL
