MODEL 1
REMARK VINA RESULT:      -7.5      0.000      0.000
REMARK  17 active torsions:
REMARK  status: ('A' for Active; 'I' for Inactive)
REMARK       I    between atoms: C_2  and  N_3 
REMARK       I    between atoms: C_2  and  N_4 
REMARK    1  A    between atoms: N_5  and  C_33 
REMARK    2  A    between atoms: O_6  and  P_37 
REMARK    3  A    between atoms: N_8  and  C_16 
REMARK    4  A    between atoms: N_8  and  C_9 
REMARK    5  A    between atoms: C_9  and  C_10 
REMARK    6  A    between atoms: C_10  and  C_19 
REMARK    7  A    between atoms: C_11  and  C_16 
REMARK    8  A    between atoms: C_12  and  C_33 
REMARK    9  A    between atoms: C_12  and  C_13 
REMARK   10  A    between atoms: C_13  and  C_14 
REMARK   11  A    between atoms: C_14  and  N_15 
REMARK   12  A    between atoms: C_16  and  C_18 
REMARK   13  A    between atoms: C_18  and  O_36 
REMARK   14  A    between atoms: C_19  and  C_20 
REMARK   15  A    between atoms: C_19  and  N_35 
REMARK   16  A    between atoms: C_33  and  C_34 
REMARK       I    between atoms: C_34  and  N_35 
REMARK   17  A    between atoms: O_36  and  P_37 
ROOT
HETATM    1  O           1     -21.074  -8.139  -6.039  0.00  0.00    -0.271 OA
HETATM    2  H           1     -22.155  -5.496  -4.741  0.00  0.00     0.163 HD
HETATM    3  C           1     -21.551  -7.423  -5.191  0.00  0.00     0.249 C 
HETATM    4  N           1     -21.755  -6.095  -5.452  0.00  0.00    -0.345 N 
ENDROOT
BRANCH   4   5
HETATM    5  C           1     -21.400  -5.547  -6.747  0.00  0.00     0.187 C 
BRANCH   5   6
HETATM    6  C           1     -22.453  -4.534  -7.174  0.00  0.00     0.066 C 
BRANCH   6   7
HETATM    7  C           1     -21.903  -3.675  -8.305  0.00  0.00     0.273 C 
BRANCH   7   8
HETATM    8  N           1     -21.972  -4.408  -9.541  0.00  0.00     0.100 N 
HETATM    9  H           1     -22.458  -5.291  -9.386  0.00  0.00     0.317 HD
BRANCH   8  10
HETATM   10  C           1     -22.712  -3.611 -10.481  0.00  0.00     0.344 C 
BRANCH  10  11
HETATM   11  C           1     -24.190  -3.818 -10.262  0.00  0.00     0.209 C 
HETATM   12  O           1     -24.652  -4.975 -10.167  0.00  0.00    -0.646 OA
HETATM   13  O           1     -24.953  -2.832 -10.174  0.00  0.00    -0.646 OA
ENDBRANCH  10  11
BRANCH  10  14
HETATM   14  C           1     -22.345  -4.029 -11.899  0.00  0.00     0.228 C 
BRANCH  14  15
HETATM   15  O           1     -22.342  -2.903 -12.733  0.00  0.00    -0.287 OA
BRANCH  15  16
HETATM   16  P           1     -23.375  -2.938 -13.975  0.00  0.00     0.406 P 
HETATM   17  O           1     -24.336  -1.820 -13.848  0.00  0.00    -0.624 OA
HETATM   18  O           1     -22.626  -2.803 -15.243  0.00  0.00    -0.624 OA
BRANCH  16  19
HETATM   19  O           1     -24.175  -4.341 -13.969  0.00  0.00    -0.300 OA
HETATM   20  H           1     -23.770  -4.855 -14.647  0.00  0.00     0.223 HD
ENDBRANCH  16  19
ENDBRANCH  15  16
ENDBRANCH  14  15
ENDBRANCH  10  14
ENDBRANCH   8  10
ENDBRANCH   7   8
ENDBRANCH   6   7
ENDBRANCH   5   6
BRANCH   5  21
HETATM   21  C           1     -20.055  -4.869  -6.652  0.00  0.00     0.196 C 
HETATM   22  O           1     -19.651  -4.432  -5.553  0.00  0.00    -0.646 OA
HETATM   23  O           1     -19.346  -4.743  -7.674  0.00  0.00    -0.646 OA
ENDBRANCH   5  21
ENDBRANCH   4   5
BRANCH   3  24
HETATM   24  C           1     -21.921  -7.993  -3.843  0.00  0.00     0.274 C 
BRANCH  24  25
HETATM   25  N           1     -21.578  -9.452  -3.806  0.00  0.00    -0.067 N 
HETATM   26  H           1     -22.366  -9.985  -3.372  0.00  0.00     0.275 HD
HETATM   27  H           1     -21.420  -9.796  -4.780  0.00  0.00     0.275 HD
HETATM   28  H           1     -20.710  -9.592  -3.241  0.00  0.00     0.257 HD
ENDBRANCH  24  25
BRANCH  24  29
HETATM   29  C           1     -21.146  -7.262  -2.754  0.00  0.00     0.044 C 
BRANCH  29  30
HETATM   30  C           1     -22.099  -6.385  -1.952  0.00  0.00     0.023 C 
BRANCH  30  31
HETATM   31  C           1     -22.415  -7.062  -0.624  0.00  0.00     0.156 C 
BRANCH  31  32
HETATM   32  N           1     -21.437  -8.129  -0.371  0.00  0.00    -0.227 N 
HETATM   33  C           1     -21.833  -9.307  -0.130  0.00  0.00     0.665 C 
HETATM   34  N           1     -20.990 -10.227   0.088  0.00  0.00    -0.235 N 
HETATM   35  N           1     -23.105  -9.573  -0.105  0.00  0.00    -0.235 N 
HETATM   36  H           1     -21.320 -11.203   0.289  0.00  0.00     0.174 HD
HETATM   37  H           1     -19.963 -10.012   0.069  0.00  0.00     0.174 HD
HETATM   38  H           1     -23.433 -10.545   0.094  0.00  0.00     0.174 HD
HETATM   39  H           1     -23.801  -8.814  -0.285  0.00  0.00     0.174 HD
HETATM   40  H           1     -20.409  -7.915  -0.391  0.00  0.00     0.177 HD
ENDBRANCH  31  32
ENDBRANCH  30  31
ENDBRANCH  29  30
ENDBRANCH  24  29
ENDBRANCH   3  24
TORSDOF 17
ENDMDL
MODEL 2
REMARK VINA RESULT:      -7.4     11.989     14.761
REMARK  17 active torsions:
REMARK  status: ('A' for Active; 'I' for Inactive)
REMARK       I    between atoms: C_2  and  N_3 
REMARK       I    between atoms: C_2  and  N_4 
REMARK    1  A    between atoms: N_5  and  C_33 
REMARK    2  A    between atoms: O_6  and  P_37 
REMARK    3  A    between atoms: N_8  and  C_16 
REMARK    4  A    between atoms: N_8  and  C_9 
REMARK    5  A    between atoms: C_9  and  C_10 
REMARK    6  A    between atoms: C_10  and  C_19 
REMARK    7  A    between atoms: C_11  and  C_16 
REMARK    8  A    between atoms: C_12  and  C_33 
REMARK    9  A    between atoms: C_12  and  C_13 
REMARK   10  A    between atoms: C_13  and  C_14 
REMARK   11  A    between atoms: C_14  and  N_15 
REMARK   12  A    between atoms: C_16  and  C_18 
REMARK   13  A    between atoms: C_18  and  O_36 
REMARK   14  A    between atoms: C_19  and  C_20 
REMARK   15  A    between atoms: C_19  and  N_35 
REMARK   16  A    between atoms: C_33  and  C_34 
REMARK       I    between atoms: C_34  and  N_35 
REMARK   17  A    between atoms: O_36  and  P_37 
ROOT
HETATM    1  O           1     -32.013  -7.126 -17.933  0.00  0.00    -0.271 OA
HETATM    2  H           1     -30.358  -5.156 -16.138  0.00  0.00     0.163 HD
HETATM    3  C           1     -31.057  -6.694 -17.333  0.00  0.00     0.249 C 
HETATM    4  N           1     -31.159  -5.518 -16.641  0.00  0.00    -0.345 N 
ENDROOT
BRANCH   4   5
HETATM    5  C           1     -32.413  -4.790 -16.626  0.00  0.00     0.187 C 
BRANCH   5   6
HETATM    6  C           1     -32.815  -4.502 -15.185  0.00  0.00     0.066 C 
BRANCH   6   7
HETATM    7  C           1     -34.305  -4.763 -15.012  0.00  0.00     0.273 C 
BRANCH   7   8
HETATM    8  N           1     -34.615  -4.858 -13.610  0.00  0.00     0.100 N 
HETATM    9  H           1     -34.363  -5.785 -13.268  0.00  0.00     0.317 HD
BRANCH   8  10
HETATM   10  C           1     -33.837  -3.864 -12.922  0.00  0.00     0.344 C 
BRANCH  10  11
HETATM   11  C           1     -33.209  -4.479 -11.695  0.00  0.00     0.209 C 
HETATM   12  O           1     -32.197  -5.204 -11.807  0.00  0.00    -0.646 OA
HETATM   13  O           1     -33.702  -4.264 -10.567  0.00  0.00    -0.646 OA
ENDBRANCH  10  11
BRANCH  10  14
HETATM   14  C           1     -34.740  -2.710 -12.507  0.00  0.00     0.228 C 
BRANCH  14  15
HETATM   15  O           1     -34.890  -1.824 -13.582  0.00  0.00    -0.287 OA
BRANCH  15  16
HETATM   16  P           1     -35.740  -0.484 -13.282  0.00  0.00     0.406 P 
HETATM   17  O           1     -37.162  -0.840 -13.068  0.00  0.00    -0.624 OA
HETATM   18  O           1     -35.210   0.176 -12.069  0.00  0.00    -0.624 OA
BRANCH  16  19
HETATM   19  O           1     -35.620   0.522 -14.539  0.00  0.00    -0.300 OA
HETATM   20  H           1     -35.965   1.342 -14.228  0.00  0.00     0.223 HD
ENDBRANCH  16  19
ENDBRANCH  15  16
ENDBRANCH  14  15
ENDBRANCH  10  14
ENDBRANCH   8  10
ENDBRANCH   7   8
ENDBRANCH   6   7
ENDBRANCH   5   6
BRANCH   5  21
HETATM   21  C           1     -32.248  -3.490 -17.373  0.00  0.00     0.196 C 
HETATM   22  O           1     -33.253  -2.809 -17.674  0.00  0.00    -0.646 OA
HETATM   23  O           1     -31.106  -3.093 -17.691  0.00  0.00    -0.646 OA
ENDBRANCH   5  21
ENDBRANCH   4   5
BRANCH   3  24
HETATM   24  C           1     -29.751  -7.450 -17.348  0.00  0.00     0.274 C 
BRANCH  24  25
HETATM   25  N           1     -29.683  -8.303 -18.580  0.00  0.00    -0.067 N 
HETATM   26  H           1     -30.485  -8.071 -19.210  0.00  0.00     0.275 HD
HETATM   27  H           1     -28.783  -8.121 -19.079  0.00  0.00     0.275 HD
HETATM   28  H           1     -29.734  -9.311 -18.309  0.00  0.00     0.257 HD
ENDBRANCH  24  25
BRANCH  24  29
HETATM   29  C           1     -28.593  -6.461 -17.352  0.00  0.00     0.044 C 
BRANCH  29  30
HETATM   30  C           1     -28.013  -6.363 -18.758  0.00  0.00     0.023 C 
BRANCH  30  31
HETATM   31  C           1     -26.492  -6.318 -18.677  0.00  0.00     0.156 C 
BRANCH  31  32
HETATM   32  N           1     -26.069  -6.503 -17.282  0.00  0.00    -0.227 N 
HETATM   33  C           1     -24.950  -7.036 -17.025  0.00  0.00     0.665 C 
HETATM   34  N           1     -24.585  -7.195 -15.823  0.00  0.00    -0.235 N 
HETATM   35  N           1     -24.174  -7.420 -17.995  0.00  0.00    -0.235 N 
HETATM   36  H           1     -23.656  -7.638 -15.611  0.00  0.00     0.174 HD
HETATM   37  H           1     -25.210  -6.885 -15.039  0.00  0.00     0.174 HD
HETATM   38  H           1     -23.250  -7.861 -17.784  0.00  0.00     0.174 HD
HETATM   39  H           1     -24.476  -7.288 -18.988  0.00  0.00     0.174 HD
HETATM   40  H           1     -26.694  -6.193 -16.497  0.00  0.00     0.177 HD
ENDBRANCH  31  32
ENDBRANCH  30  31
ENDBRANCH  29  30
ENDBRANCH  24  29
ENDBRANCH   3  24
TORSDOF 17
ENDMDL
MODEL 3
REMARK VINA RESULT:      -7.3     13.657     16.342
REMARK  17 active torsions:
REMARK  status: ('A' for Active; 'I' for Inactive)
REMARK       I    between atoms: C_2  and  N_3 
REMARK       I    between atoms: C_2  and  N_4 
REMARK    1  A    between atoms: N_5  and  C_33 
REMARK    2  A    between atoms: O_6  and  P_37 
REMARK    3  A    between atoms: N_8  and  C_16 
REMARK    4  A    between atoms: N_8  and  C_9 
REMARK    5  A    between atoms: C_9  and  C_10 
REMARK    6  A    between atoms: C_10  and  C_19 
REMARK    7  A    between atoms: C_11  and  C_16 
REMARK    8  A    between atoms: C_12  and  C_33 
REMARK    9  A    between atoms: C_12  and  C_13 
REMARK   10  A    between atoms: C_13  and  C_14 
REMARK   11  A    between atoms: C_14  and  N_15 
REMARK   12  A    between atoms: C_16  and  C_18 
REMARK   13  A    between atoms: C_18  and  O_36 
REMARK   14  A    between atoms: C_19  and  C_20 
REMARK   15  A    between atoms: C_19  and  N_35 
REMARK   16  A    between atoms: C_33  and  C_34 
REMARK       I    between atoms: C_34  and  N_35 
REMARK   17  A    between atoms: O_36  and  P_37 
ROOT
HETATM    1  O           1     -34.540  -3.557 -15.127  0.00  0.00    -0.271 OA
HETATM    2  H           1     -34.520  -1.306 -17.312  0.00  0.00     0.163 HD
HETATM    3  C           1     -34.269  -3.016 -16.173  0.00  0.00     0.249 C 
HETATM    4  N           1     -34.746  -1.760 -16.436  0.00  0.00    -0.345 N 
ENDROOT
BRANCH   4   5
HETATM    5  C           1     -35.575  -1.079 -15.460  0.00  0.00     0.187 C 
BRANCH   5   6
HETATM    6  C           1     -34.761   0.012 -14.777  0.00  0.00     0.066 C 
BRANCH   6   7
HETATM    7  C           1     -35.485   0.474 -13.520  0.00  0.00     0.273 C 
BRANCH   7   8
HETATM    8  N           1     -34.866  -0.119 -12.365  0.00  0.00     0.100 N 
HETATM    9  H           1     -34.892   0.542 -11.588  0.00  0.00     0.317 HD
BRANCH   8  10
HETATM   10  C           1     -35.617  -1.295 -12.020  0.00  0.00     0.344 C 
BRANCH  10  11
HETATM   11  C           1     -36.493  -1.000 -10.827  0.00  0.00     0.209 C 
HETATM   12  O           1     -35.975  -0.676  -9.737  0.00  0.00    -0.646 OA
HETATM   13  O           1     -37.736  -1.079 -10.930  0.00  0.00    -0.646 OA
ENDBRANCH  10  11
BRANCH  10  14
HETATM   14  C           1     -34.658  -2.428 -11.679  0.00  0.00     0.228 C 
BRANCH  14  15
HETATM   15  O           1     -35.382  -3.611 -11.483  0.00  0.00    -0.287 OA
BRANCH  15  16
HETATM   16  P           1     -34.581  -4.987 -11.758  0.00  0.00     0.406 P 
HETATM   17  O           1     -33.130  -4.705 -11.834  0.00  0.00    -0.624 OA
HETATM   18  O           1     -34.841  -5.938 -10.656  0.00  0.00    -0.624 OA
BRANCH  16  19
HETATM   19  O           1     -35.080  -5.629 -13.154  0.00  0.00    -0.300 OA
HETATM   20  H           1     -34.293  -5.762 -13.655  0.00  0.00     0.223 HD
ENDBRANCH  16  19
ENDBRANCH  15  16
ENDBRANCH  14  15
ENDBRANCH  10  14
ENDBRANCH   8  10
ENDBRANCH   7   8
ENDBRANCH   6   7
ENDBRANCH   5   6
BRANCH   5  21
HETATM   21  C           1     -36.764  -0.462 -16.155  0.00  0.00     0.196 C 
HETATM   22  O           1     -36.844   0.781 -16.271  0.00  0.00    -0.646 OA
HETATM   23  O           1     -37.668  -1.192 -16.614  0.00  0.00    -0.646 OA
ENDBRANCH   5  21
ENDBRANCH   4   5
BRANCH   3  24
HETATM   24  C           1     -33.407  -3.724 -17.189  0.00  0.00     0.274 C 
BRANCH  24  25
HETATM   25  N           1     -32.226  -2.864 -17.527  0.00  0.00    -0.067 N 
HETATM   26  H           1     -31.653  -2.705 -16.667  0.00  0.00     0.275 HD
HETATM   27  H           1     -31.643  -3.343 -18.249  0.00  0.00     0.275 HD
HETATM   28  H           1     -32.558  -1.945 -17.898  0.00  0.00     0.257 HD
ENDBRANCH  24  25
BRANCH  24  29
HETATM   29  C           1     -32.922  -5.046 -16.610  0.00  0.00     0.044 C 
BRANCH  29  30
HETATM   30  C           1     -31.401  -5.105 -16.680  0.00  0.00     0.023 C 
BRANCH  30  31
HETATM   31  C           1     -30.974  -6.409 -17.343  0.00  0.00     0.156 C 
BRANCH  31  32
HETATM   32  N           1     -29.795  -6.167 -18.186  0.00  0.00    -0.227 N 
HETATM   33  C           1     -28.674  -6.656 -17.862  0.00  0.00     0.665 C 
HETATM   34  N           1     -27.658  -6.449 -18.590  0.00  0.00    -0.235 N 
HETATM   35  N           1     -28.564  -7.374 -16.784  0.00  0.00    -0.235 N 
HETATM   36  H           1     -26.728  -6.855 -18.320  0.00  0.00     0.174 HD
HETATM   37  H           1     -27.746  -5.870 -19.461  0.00  0.00     0.174 HD
HETATM   38  H           1     -27.639  -7.778 -16.515  0.00  0.00     0.174 HD
HETATM   39  H           1     -29.403  -7.545 -16.184  0.00  0.00     0.174 HD
HETATM   40  H           1     -29.883  -5.588 -19.058  0.00  0.00     0.177 HD
ENDBRANCH  31  32
ENDBRANCH  30  31
ENDBRANCH  29  30
ENDBRANCH  24  29
ENDBRANCH   3  24
TORSDOF 17
ENDMDL
MODEL 4
REMARK VINA RESULT:      -7.2      1.601      2.740
REMARK  17 active torsions:
REMARK  status: ('A' for Active; 'I' for Inactive)
REMARK       I    between atoms: C_2  and  N_3 
REMARK       I    between atoms: C_2  and  N_4 
REMARK    1  A    between atoms: N_5  and  C_33 
REMARK    2  A    between atoms: O_6  and  P_37 
REMARK    3  A    between atoms: N_8  and  C_16 
REMARK    4  A    between atoms: N_8  and  C_9 
REMARK    5  A    between atoms: C_9  and  C_10 
REMARK    6  A    between atoms: C_10  and  C_19 
REMARK    7  A    between atoms: C_11  and  C_16 
REMARK    8  A    between atoms: C_12  and  C_33 
REMARK    9  A    between atoms: C_12  and  C_13 
REMARK   10  A    between atoms: C_13  and  C_14 
REMARK   11  A    between atoms: C_14  and  N_15 
REMARK   12  A    between atoms: C_16  and  C_18 
REMARK   13  A    between atoms: C_18  and  O_36 
REMARK   14  A    between atoms: C_19  and  C_20 
REMARK   15  A    between atoms: C_19  and  N_35 
REMARK   16  A    between atoms: C_33  and  C_34 
REMARK       I    between atoms: C_34  and  N_35 
REMARK   17  A    between atoms: O_36  and  P_37 
ROOT
HETATM    1  O           1     -22.288  -7.415  -4.925  0.00  0.00    -0.271 OA
HETATM    2  H           1     -20.543  -4.815  -4.737  0.00  0.00     0.163 HD
HETATM    3  C           1     -21.634  -6.542  -4.405  0.00  0.00     0.249 C 
HETATM    4  N           1     -21.090  -5.547  -5.172  0.00  0.00    -0.345 N 
ENDROOT
BRANCH   4   5
HETATM    5  C           1     -21.299  -5.540  -6.607  0.00  0.00     0.187 C 
BRANCH   5   6
HETATM    6  C           1     -22.228  -4.392  -6.978  0.00  0.00     0.066 C 
BRANCH   6   7
HETATM    7  C           1     -21.815  -3.821  -8.328  0.00  0.00     0.273 C 
BRANCH   7   8
HETATM    8  N           1     -22.334  -4.653  -9.380  0.00  0.00     0.100 N 
HETATM    9  H           1     -23.035  -5.287  -8.997  0.00  0.00     0.317 HD
BRANCH   8  10
HETATM   10  C           1     -22.944  -3.795 -10.358  0.00  0.00     0.344 C 
BRANCH  10  11
HETATM   11  C           1     -24.444  -3.950 -10.296  0.00  0.00     0.209 C 
HETATM   12  O           1     -25.184  -3.046 -10.739  0.00  0.00    -0.646 OA
HETATM   13  O           1     -24.945  -4.983  -9.803  0.00  0.00    -0.646 OA
ENDBRANCH  10  11
BRANCH  10  14
HETATM   14  C           1     -22.449  -4.177 -11.747  0.00  0.00     0.228 C 
BRANCH  14  15
HETATM   15  O           1     -22.344  -3.025 -12.539  0.00  0.00    -0.287 OA
BRANCH  15  16
HETATM   16  P           1     -23.369  -2.926 -13.784  0.00  0.00     0.406 P 
HETATM   17  O           1     -22.602  -2.834 -15.047  0.00  0.00    -0.624 OA
HETATM   18  O           1     -24.227  -4.131 -13.814  0.00  0.00    -0.624 OA
BRANCH  16  19
HETATM   19  O           1     -24.292  -1.612 -13.617  0.00  0.00    -0.300 OA
HETATM   20  H           1     -23.702  -0.885 -13.721  0.00  0.00     0.223 HD
ENDBRANCH  16  19
ENDBRANCH  15  16
ENDBRANCH  14  15
ENDBRANCH  10  14
ENDBRANCH   8  10
ENDBRANCH   7   8
ENDBRANCH   6   7
ENDBRANCH   5   6
BRANCH   5  21
HETATM   21  C           1     -19.974  -5.363  -7.306  0.00  0.00     0.196 C 
HETATM   22  O           1     -19.152  -4.521  -6.884  0.00  0.00    -0.646 OA
HETATM   23  O           1     -19.698  -6.060  -8.306  0.00  0.00    -0.646 OA
ENDBRANCH   5  21
ENDBRANCH   4   5
BRANCH   3  24
HETATM   24  C           1     -21.416  -6.549  -2.912  0.00  0.00     0.274 C 
BRANCH  24  25
HETATM   25  N           1     -22.534  -5.807  -2.241  0.00  0.00    -0.067 N 
HETATM   26  H           1     -23.448  -6.120  -2.640  0.00  0.00     0.275 HD
HETATM   27  H           1     -22.515  -6.006  -1.215  0.00  0.00     0.275 HD
HETATM   28  H           1     -22.417  -4.781  -2.400  0.00  0.00     0.257 HD
ENDBRANCH  24  25
BRANCH  24  29
HETATM   29  C           1     -21.387  -7.986  -2.409  0.00  0.00     0.044 C 
BRANCH  29  30
HETATM   30  C           1     -19.970  -8.350  -1.986  0.00  0.00     0.023 C 
BRANCH  30  31
HETATM   31  C           1     -19.435  -9.449  -2.895  0.00  0.00     0.156 C 
BRANCH  31  32
HETATM   32  N           1     -20.428  -9.754  -3.934  0.00  0.00    -0.227 N 
HETATM   33  C           1     -20.055  -9.963  -5.125  0.00  0.00     0.665 C 
HETATM   34  N           1     -20.911 -10.225  -6.021  0.00  0.00    -0.235 N 
HETATM   35  N           1     -18.792  -9.909  -5.430  0.00  0.00    -0.235 N 
HETATM   36  H           1     -20.600 -10.398  -7.009  0.00  0.00     0.174 HD
HETATM   37  H           1     -21.930 -10.269  -5.776  0.00  0.00     0.174 HD
HETATM   38  H           1     -18.482 -10.081  -6.413  0.00  0.00     0.174 HD
HETATM   39  H           1     -18.086  -9.692  -4.690  0.00  0.00     0.174 HD
HETATM   40  H           1     -21.449  -9.798  -3.689  0.00  0.00     0.177 HD
ENDBRANCH  31  32
ENDBRANCH  30  31
ENDBRANCH  29  30
ENDBRANCH  24  29
ENDBRANCH   3  24
TORSDOF 17
ENDMDL
MODEL 5
REMARK VINA RESULT:      -7.2      7.858     12.671
REMARK  17 active torsions:
REMARK  status: ('A' for Active; 'I' for Inactive)
REMARK       I    between atoms: C_2  and  N_3 
REMARK       I    between atoms: C_2  and  N_4 
REMARK    1  A    between atoms: N_5  and  C_33 
REMARK    2  A    between atoms: O_6  and  P_37 
REMARK    3  A    between atoms: N_8  and  C_16 
REMARK    4  A    between atoms: N_8  and  C_9 
REMARK    5  A    between atoms: C_9  and  C_10 
REMARK    6  A    between atoms: C_10  and  C_19 
REMARK    7  A    between atoms: C_11  and  C_16 
REMARK    8  A    between atoms: C_12  and  C_33 
REMARK    9  A    between atoms: C_12  and  C_13 
REMARK   10  A    between atoms: C_13  and  C_14 
REMARK   11  A    between atoms: C_14  and  N_15 
REMARK   12  A    between atoms: C_16  and  C_18 
REMARK   13  A    between atoms: C_18  and  O_36 
REMARK   14  A    between atoms: C_19  and  C_20 
REMARK   15  A    between atoms: C_19  and  N_35 
REMARK   16  A    between atoms: C_33  and  C_34 
REMARK       I    between atoms: C_34  and  N_35 
REMARK   17  A    between atoms: O_36  and  P_37 
ROOT
HETATM    1  O           1     -27.226  -5.702 -18.629  0.00  0.00    -0.271 OA
HETATM    2  H           1     -27.363  -7.680 -16.198  0.00  0.00     0.163 HD
HETATM    3  C           1     -27.685  -6.552 -17.903  0.00  0.00     0.249 C 
HETATM    4  N           1     -26.980  -6.967 -16.806  0.00  0.00    -0.345 N 
ENDROOT
BRANCH   4   5
HETATM    5  C           1     -25.683  -6.387 -16.515  0.00  0.00     0.187 C 
BRANCH   5   6
HETATM    6  C           1     -25.518  -6.248 -15.007  0.00  0.00     0.066 C 
BRANCH   6   7
HETATM    7  C           1     -25.134  -4.814 -14.668  0.00  0.00     0.273 C 
BRANCH   7   8
HETATM    8  N           1     -24.089  -4.818 -13.681  0.00  0.00     0.100 N 
HETATM    9  H           1     -23.223  -5.152 -14.103  0.00  0.00     0.317 HD
BRANCH   8  10
HETATM   10  C           1     -23.910  -3.466 -13.226  0.00  0.00     0.344 C 
BRANCH  10  11
HETATM   11  C           1     -23.480  -2.599 -14.384  0.00  0.00     0.209 C 
HETATM   12  O           1     -24.100  -1.545 -14.640  0.00  0.00    -0.646 OA
HETATM   13  O           1     -22.502  -2.936 -15.086  0.00  0.00    -0.646 OA
ENDBRANCH  10  11
BRANCH  10  14
HETATM   14  C           1     -22.843  -3.432 -12.141  0.00  0.00     0.228 C 
BRANCH  14  15
HETATM   15  O           1     -23.348  -2.782 -11.007  0.00  0.00    -0.287 OA
BRANCH  15  16
HETATM   16  P           1     -24.226  -3.692 -10.001  0.00  0.00     0.406 P 
HETATM   17  O           1     -25.646  -3.280 -10.076  0.00  0.00    -0.624 OA
HETATM   18  O           1     -24.104  -5.114 -10.388  0.00  0.00    -0.624 OA
BRANCH  16  19
HETATM   19  O           1     -23.687  -3.497  -8.491  0.00  0.00    -0.300 OA
HETATM   20  H           1     -23.012  -4.146  -8.388  0.00  0.00     0.223 HD
ENDBRANCH  16  19
ENDBRANCH  15  16
ENDBRANCH  14  15
ENDBRANCH  10  14
ENDBRANCH   8  10
ENDBRANCH   7   8
ENDBRANCH   6   7
ENDBRANCH   5   6
BRANCH   5  21
HETATM   21  C           1     -24.598  -7.282 -17.061  0.00  0.00     0.196 C 
HETATM   22  O           1     -24.151  -8.219 -16.364  0.00  0.00    -0.646 OA
HETATM   23  O           1     -24.147  -7.087 -18.210  0.00  0.00    -0.646 OA
ENDBRANCH   5  21
ENDBRANCH   4   5
BRANCH   3  24
HETATM   24  C           1     -29.034  -7.157 -18.206  0.00  0.00     0.274 C 
BRANCH  24  25
HETATM   25  N           1     -29.341  -8.223 -17.196  0.00  0.00    -0.067 N 
HETATM   26  H           1     -29.358  -9.156 -17.669  0.00  0.00     0.275 HD
HETATM   27  H           1     -28.604  -8.221 -16.455  0.00  0.00     0.275 HD
HETATM   28  H           1     -30.273  -8.035 -16.763  0.00  0.00     0.257 HD
ENDBRANCH  24  25
BRANCH  24  29
HETATM   29  C           1     -30.103  -6.074 -18.139  0.00  0.00     0.044 C 
BRANCH  29  30
HETATM   30  C           1     -31.030  -6.345 -16.961  0.00  0.00     0.023 C 
BRANCH  30  31
HETATM   31  C           1     -31.182  -5.077 -16.132  0.00  0.00     0.156 C 
BRANCH  31  32
HETATM   32  N           1     -32.545  -4.550 -16.287  0.00  0.00    -0.227 N 
HETATM   33  C           1     -32.762  -3.570 -17.058  0.00  0.00     0.665 C 
HETATM   34  N           1     -33.937  -3.116 -17.191  0.00  0.00    -0.235 N 
HETATM   35  N           1     -31.779  -3.029 -17.714  0.00  0.00    -0.235 N 
HETATM   36  H           1     -34.115  -2.303 -17.831  0.00  0.00     0.174 HD
HETATM   37  H           1     -34.731  -3.552 -16.661  0.00  0.00     0.174 HD
HETATM   38  H           1     -31.956  -2.220 -18.351  0.00  0.00     0.174 HD
HETATM   39  H           1     -30.809  -3.404 -17.604  0.00  0.00     0.174 HD
HETATM   40  H           1     -33.341  -4.986 -15.757  0.00  0.00     0.177 HD
ENDBRANCH  31  32
ENDBRANCH  30  31
ENDBRANCH  29  30
ENDBRANCH  24  29
ENDBRANCH   3  24
TORSDOF 17
ENDMDL
MODEL 6
REMARK VINA RESULT:      -7.2      1.619      2.193
REMARK  17 active torsions:
REMARK  status: ('A' for Active; 'I' for Inactive)
REMARK       I    between atoms: C_2  and  N_3 
REMARK       I    between atoms: C_2  and  N_4 
REMARK    1  A    between atoms: N_5  and  C_33 
REMARK    2  A    between atoms: O_6  and  P_37 
REMARK    3  A    between atoms: N_8  and  C_16 
REMARK    4  A    between atoms: N_8  and  C_9 
REMARK    5  A    between atoms: C_9  and  C_10 
REMARK    6  A    between atoms: C_10  and  C_19 
REMARK    7  A    between atoms: C_11  and  C_16 
REMARK    8  A    between atoms: C_12  and  C_33 
REMARK    9  A    between atoms: C_12  and  C_13 
REMARK   10  A    between atoms: C_13  and  C_14 
REMARK   11  A    between atoms: C_14  and  N_15 
REMARK   12  A    between atoms: C_16  and  C_18 
REMARK   13  A    between atoms: C_18  and  O_36 
REMARK   14  A    between atoms: C_19  and  C_20 
REMARK   15  A    between atoms: C_19  and  N_35 
REMARK   16  A    between atoms: C_33  and  C_34 
REMARK       I    between atoms: C_34  and  N_35 
REMARK   17  A    between atoms: O_36  and  P_37 
ROOT
HETATM    1  O           1     -21.564  -7.770  -5.377  0.00  0.00    -0.271 OA
HETATM    2  H           1     -21.110  -4.722  -4.790  0.00  0.00     0.163 HD
HETATM    3  C           1     -21.388  -6.771  -4.720  0.00  0.00     0.249 C 
HETATM    4  N           1     -21.258  -5.558  -5.340  0.00  0.00    -0.345 N 
ENDROOT
BRANCH   4   5
HETATM    5  C           1     -21.333  -5.471  -6.786  0.00  0.00     0.187 C 
BRANCH   5   6
HETATM    6  C           1     -22.063  -4.194  -7.180  0.00  0.00     0.066 C 
BRANCH   6   7
HETATM    7  C           1     -22.815  -4.420  -8.484  0.00  0.00     0.273 C 
BRANCH   7   8
HETATM    8  N           1     -22.615  -3.292  -9.354  0.00  0.00     0.100 N 
HETATM    9  H           1     -21.839  -2.729  -9.008  0.00  0.00     0.317 HD
BRANCH   8  10
HETATM   10  C           1     -22.295  -3.798 -10.661  0.00  0.00     0.344 C 
BRANCH  10  11
HETATM   11  C           1     -20.803  -3.722 -10.877  0.00  0.00     0.209 C 
HETATM   12  O           1     -20.121  -4.768 -10.903  0.00  0.00    -0.646 OA
HETATM   13  O           1     -20.251  -2.611 -11.031  0.00  0.00    -0.646 OA
ENDBRANCH  10  11
BRANCH  10  14
HETATM   14  C           1     -23.006  -2.963 -11.717  0.00  0.00     0.228 C 
BRANCH  14  15
HETATM   15  O           1     -22.383  -3.149 -12.958  0.00  0.00    -0.287 OA
BRANCH  15  16
HETATM   16  P           1     -23.279  -2.810 -14.259  0.00  0.00     0.406 P 
HETATM   17  O           1     -22.391  -2.484 -15.398  0.00  0.00    -0.624 OA
HETATM   18  O           1     -24.112  -3.983 -14.603  0.00  0.00    -0.624 OA
BRANCH  16  19
HETATM   19  O           1     -24.233  -1.547 -13.941  0.00  0.00    -0.300 OA
HETATM   20  H           1     -25.054  -1.751 -14.356  0.00  0.00     0.223 HD
ENDBRANCH  16  19
ENDBRANCH  15  16
ENDBRANCH  14  15
ENDBRANCH  10  14
ENDBRANCH   8  10
ENDBRANCH   7   8
ENDBRANCH   6   7
ENDBRANCH   5   6
BRANCH   5  21
HETATM   21  C           1     -19.938  -5.452  -7.361  0.00  0.00     0.196 C 
HETATM   22  O           1     -19.399  -4.364  -7.659  0.00  0.00    -0.646 OA
HETATM   23  O           1     -19.321  -6.525  -7.538  0.00  0.00    -0.646 OA
ENDBRANCH   5  21
ENDBRANCH   4   5
BRANCH   3  24
HETATM   24  C           1     -21.309  -6.861  -3.215  0.00  0.00     0.274 C 
BRANCH  24  25
HETATM   25  N           1     -22.365  -5.986  -2.608  0.00  0.00    -0.067 N 
HETATM   26  H           1     -23.252  -6.530  -2.505  0.00  0.00     0.275 HD
HETATM   27  H           1     -22.046  -5.659  -1.668  0.00  0.00     0.275 HD
HETATM   28  H           1     -22.533  -5.161  -3.227  0.00  0.00     0.257 HD
ENDBRANCH  24  25
BRANCH  24  29
HETATM   29  C           1     -21.535  -8.303  -2.781  0.00  0.00     0.044 C 
BRANCH  29  30
HETATM   30  C           1     -20.315  -8.801  -2.015  0.00  0.00     0.023 C 
BRANCH  30  31
HETATM   31  C           1     -20.759  -9.396  -0.685  0.00  0.00     0.156 C 
BRANCH  31  32
HETATM   32  N           1     -21.677  -8.466  -0.012  0.00  0.00    -0.227 N 
HETATM   33  C           1     -22.878  -8.803   0.199  0.00  0.00     0.665 C 
HETATM   34  N           1     -23.669  -8.002   0.779  0.00  0.00    -0.235 N 
HETATM   35  N           1     -23.302  -9.973  -0.179  0.00  0.00    -0.235 N 
HETATM   36  H           1     -24.666  -8.282   0.954  0.00  0.00     0.174 HD
HETATM   37  H           1     -23.327  -7.057   1.084  0.00  0.00     0.174 HD
HETATM   38  H           1     -24.294 -10.252  -0.005  0.00  0.00     0.174 HD
HETATM   39  H           1     -22.649 -10.634  -0.658  0.00  0.00     0.174 HD
HETATM   40  H           1     -21.336  -7.521   0.294  0.00  0.00     0.177 HD
ENDBRANCH  31  32
ENDBRANCH  30  31
ENDBRANCH  29  30
ENDBRANCH  24  29
ENDBRANCH   3  24
TORSDOF 17
ENDMDL
MODEL 7
REMARK VINA RESULT:      -7.2      1.465      2.030
REMARK  17 active torsions:
REMARK  status: ('A' for Active; 'I' for Inactive)
REMARK       I    between atoms: C_2  and  N_3 
REMARK       I    between atoms: C_2  and  N_4 
REMARK    1  A    between atoms: N_5  and  C_33 
REMARK    2  A    between atoms: O_6  and  P_37 
REMARK    3  A    between atoms: N_8  and  C_16 
REMARK    4  A    between atoms: N_8  and  C_9 
REMARK    5  A    between atoms: C_9  and  C_10 
REMARK    6  A    between atoms: C_10  and  C_19 
REMARK    7  A    between atoms: C_11  and  C_16 
REMARK    8  A    between atoms: C_12  and  C_33 
REMARK    9  A    between atoms: C_12  and  C_13 
REMARK   10  A    between atoms: C_13  and  C_14 
REMARK   11  A    between atoms: C_14  and  N_15 
REMARK   12  A    between atoms: C_16  and  C_18 
REMARK   13  A    between atoms: C_18  and  O_36 
REMARK   14  A    between atoms: C_19  and  C_20 
REMARK   15  A    between atoms: C_19  and  N_35 
REMARK   16  A    between atoms: C_33  and  C_34 
REMARK       I    between atoms: C_34  and  N_35 
REMARK   17  A    between atoms: O_36  and  P_37 
ROOT
HETATM    1  O           1     -20.103  -6.080  -5.004  0.00  0.00    -0.271 OA
HETATM    2  H           1     -21.709  -7.249  -7.432  0.00  0.00     0.163 HD
HETATM    3  C           1     -20.773  -6.870  -5.626  0.00  0.00     0.249 C 
HETATM    4  N           1     -21.148  -6.588  -6.911  0.00  0.00    -0.345 N 
ENDROOT
BRANCH   4   5
HETATM    5  C           1     -20.740  -5.340  -7.528  0.00  0.00     0.187 C 
BRANCH   5   6
HETATM    6  C           1     -20.675  -5.519  -9.039  0.00  0.00     0.066 C 
BRANCH   6   7
HETATM    7  C           1     -20.796  -4.161  -9.717  0.00  0.00     0.273 C 
BRANCH   7   8
HETATM    8  N           1     -21.688  -4.264 -10.841  0.00  0.00     0.100 N 
HETATM    9  H           1     -22.161  -5.167 -10.818  0.00  0.00     0.317 HD
BRANCH   8  10
HETATM   10  C           1     -22.660  -3.210 -10.727  0.00  0.00     0.344 C 
BRANCH  10  11
HETATM   11  C           1     -24.046  -3.806 -10.707  0.00  0.00     0.209 C 
HETATM   12  O           1     -24.999  -3.187 -11.226  0.00  0.00    -0.646 OA
HETATM   13  O           1     -24.240  -4.918 -10.171  0.00  0.00    -0.646 OA
ENDBRANCH  10  11
BRANCH  10  14
HETATM   14  C           1     -22.528  -2.269 -11.917  0.00  0.00     0.228 C 
BRANCH  14  15
HETATM   15  O           1     -22.294  -3.014 -13.080  0.00  0.00    -0.287 OA
BRANCH  15  16
HETATM   16  P           1     -23.291  -2.727 -14.319  0.00  0.00     0.406 P 
HETATM   17  O           1     -22.504  -2.286 -15.493  0.00  0.00    -0.624 OA
HETATM   18  O           1     -24.027  -3.965 -14.656  0.00  0.00    -0.624 OA
BRANCH  16  19
HETATM   19  O           1     -24.340  -1.571 -13.907  0.00  0.00    -0.300 OA
HETATM   20  H           1     -25.174  -1.876 -14.221  0.00  0.00     0.223 HD
ENDBRANCH  16  19
ENDBRANCH  15  16
ENDBRANCH  14  15
ENDBRANCH  10  14
ENDBRANCH   8  10
ENDBRANCH   7   8
ENDBRANCH   6   7
ENDBRANCH   5   6
BRANCH   5  21
HETATM   21  C           1     -21.741  -4.262  -7.190  0.00  0.00     0.196 C 
HETATM   22  O           1     -21.345  -3.125  -6.854  0.00  0.00    -0.646 OA
HETATM   23  O           1     -22.965  -4.507  -7.246  0.00  0.00    -0.646 OA
ENDBRANCH   5  21
ENDBRANCH   4   5
BRANCH   3  24
HETATM   24  C           1     -21.198  -8.169  -4.985  0.00  0.00     0.274 C 
BRANCH  24  25
HETATM   25  N           1     -20.200  -9.239  -5.316  0.00  0.00    -0.067 N 
HETATM   26  H           1     -20.699 -10.145  -5.468  0.00  0.00     0.275 HD
HETATM   27  H           1     -19.684  -8.975  -6.185  0.00  0.00     0.275 HD
HETATM   28  H           1     -19.525  -9.341  -4.525  0.00  0.00     0.257 HD
ENDBRANCH  24  25
BRANCH  24  29
HETATM   29  C           1     -21.267  -7.990  -3.474  0.00  0.00     0.044 C 
BRANCH  29  30
HETATM   30  C           1     -20.596  -9.175  -2.790  0.00  0.00     0.023 C 
BRANCH  30  31
HETATM   31  C           1     -21.561  -9.795  -1.787  0.00  0.00     0.156 C 
BRANCH  31  32
HETATM   32  N           1     -22.063  -8.753  -0.881  0.00  0.00    -0.227 N 
HETATM   33  C           1     -23.028  -9.003  -0.101  0.00  0.00     0.665 C 
HETATM   34  N           1     -23.461  -8.105   0.680  0.00  0.00    -0.235 N 
HETATM   35  N           1     -23.575 -10.182  -0.101  0.00  0.00    -0.235 N 
HETATM   36  H           1     -24.262  -8.313   1.327  0.00  0.00     0.174 HD
HETATM   37  H           1     -23.019  -7.153   0.680  0.00  0.00     0.174 HD
HETATM   38  H           1     -24.372 -10.390   0.542  0.00  0.00     0.174 HD
HETATM   39  H           1     -23.218 -10.923  -0.746  0.00  0.00     0.174 HD
HETATM   40  H           1     -21.621  -7.799  -0.880  0.00  0.00     0.177 HD
ENDBRANCH  31  32
ENDBRANCH  30  31
ENDBRANCH  29  30
ENDBRANCH  24  29
ENDBRANCH   3  24
TORSDOF 17
ENDMDL
MODEL 8
REMARK VINA RESULT:      -7.0      4.674     10.431
REMARK  17 active torsions:
REMARK  status: ('A' for Active; 'I' for Inactive)
REMARK       I    between atoms: C_2  and  N_3 
REMARK       I    between atoms: C_2  and  N_4 
REMARK    1  A    between atoms: N_5  and  C_33 
REMARK    2  A    between atoms: O_6  and  P_37 
REMARK    3  A    between atoms: N_8  and  C_16 
REMARK    4  A    between atoms: N_8  and  C_9 
REMARK    5  A    between atoms: C_9  and  C_10 
REMARK    6  A    between atoms: C_10  and  C_19 
REMARK    7  A    between atoms: C_11  and  C_16 
REMARK    8  A    between atoms: C_12  and  C_33 
REMARK    9  A    between atoms: C_12  and  C_13 
REMARK   10  A    between atoms: C_13  and  C_14 
REMARK   11  A    between atoms: C_14  and  N_15 
REMARK   12  A    between atoms: C_16  and  C_18 
REMARK   13  A    between atoms: C_18  and  O_36 
REMARK   14  A    between atoms: C_19  and  C_20 
REMARK   15  A    between atoms: C_19  and  N_35 
REMARK   16  A    between atoms: C_33  and  C_34 
REMARK       I    between atoms: C_34  and  N_35 
REMARK   17  A    between atoms: O_36  and  P_37 
ROOT
HETATM    1  O           1     -19.656  -5.146  -7.048  0.00  0.00    -0.271 OA
HETATM    2  H           1     -22.612  -5.917  -6.338  0.00  0.00     0.163 HD
HETATM    3  C           1     -20.853  -5.229  -7.184  0.00  0.00     0.249 C 
HETATM    4  N           1     -21.609  -5.847  -6.225  0.00  0.00    -0.345 N 
ENDROOT
BRANCH   4   5
HETATM    5  C           1     -20.973  -6.400  -5.045  0.00  0.00     0.187 C 
BRANCH   5   6
HETATM    6  C           1     -21.962  -6.396  -3.887  0.00  0.00     0.066 C 
BRANCH   6   7
HETATM    7  C           1     -21.206  -6.525  -2.572  0.00  0.00     0.273 C 
BRANCH   7   8
HETATM    8  N           1     -22.123  -6.884  -1.524  0.00  0.00     0.100 N 
HETATM    9  H           1     -23.073  -6.643  -1.806  0.00  0.00     0.317 HD
BRANCH   8  10
HETATM   10  C           1     -22.028  -8.305  -1.327  0.00  0.00     0.344 C 
BRANCH  10  11
HETATM   11  C           1     -22.777  -8.690  -0.075  0.00  0.00     0.209 C 
HETATM   12  O           1     -22.748  -7.942   0.925  0.00  0.00    -0.646 OA
HETATM   13  O           1     -23.426  -9.757  -0.038  0.00  0.00    -0.646 OA
ENDBRANCH  10  11
BRANCH  10  14
HETATM   14  C           1     -20.565  -8.701  -1.187  0.00  0.00     0.228 C 
BRANCH  14  15
HETATM   15  O           1     -20.450 -10.097  -1.240  0.00  0.00    -0.287 OA
BRANCH  15  16
HETATM   16  P           1     -19.433 -10.683  -2.349  0.00  0.00     0.406 P 
HETATM   17  O           1     -18.269  -9.777  -2.479  0.00  0.00    -0.624 OA
HETATM   18  O           1     -18.969 -12.025  -1.933  0.00  0.00    -0.624 OA
BRANCH  16  19
HETATM   19  O           1     -20.192 -10.793  -3.770  0.00  0.00    -0.300 OA
HETATM   20  H           1     -20.323 -11.716  -3.906  0.00  0.00     0.223 HD
ENDBRANCH  16  19
ENDBRANCH  15  16
ENDBRANCH  14  15
ENDBRANCH  10  14
ENDBRANCH   8  10
ENDBRANCH   7   8
ENDBRANCH   6   7
ENDBRANCH   5   6
BRANCH   5  21
HETATM   21  C           1     -20.534  -7.816  -5.328  0.00  0.00     0.196 C 
HETATM   22  O           1     -21.355  -8.647  -5.776  0.00  0.00    -0.646 OA
HETATM   23  O           1     -19.351  -8.157  -5.116  0.00  0.00    -0.646 OA
ENDBRANCH   5  21
ENDBRANCH   4   5
BRANCH   3  24
HETATM   24  C           1     -21.516  -4.654  -8.412  0.00  0.00     0.274 C 
BRANCH  24  25
HETATM   25  N           1     -22.520  -3.619  -7.999  0.00  0.00    -0.067 N 
HETATM   26  H           1     -23.479  -3.938  -8.265  0.00  0.00     0.275 HD
HETATM   27  H           1     -22.473  -3.484  -6.964  0.00  0.00     0.275 HD
HETATM   28  H           1     -22.307  -2.716  -8.479  0.00  0.00     0.257 HD
ENDBRANCH  24  25
BRANCH  24  29
HETATM   29  C           1     -20.462  -4.010  -9.303  0.00  0.00     0.044 C 
BRANCH  29  30
HETATM   30  C           1     -20.679  -4.448 -10.746  0.00  0.00     0.023 C 
BRANCH  30  31
HETATM   31  C           1     -21.924  -3.766 -11.301  0.00  0.00     0.156 C 
BRANCH  31  32
HETATM   32  N           1     -21.827  -3.685 -12.765  0.00  0.00    -0.227 N 
HETATM   33  C           1     -22.663  -2.993 -13.418  0.00  0.00     0.665 C 
HETATM   34  N           1     -22.580  -2.923 -14.679  0.00  0.00    -0.235 N 
HETATM   35  N           1     -23.606  -2.353 -12.793  0.00  0.00    -0.235 N 
HETATM   36  H           1     -23.273  -2.348 -15.220  0.00  0.00     0.174 HD
HETATM   37  H           1     -21.818  -3.439 -15.184  0.00  0.00     0.174 HD
HETATM   38  H           1     -24.296  -1.781 -13.330  0.00  0.00     0.174 HD
HETATM   39  H           1     -23.674  -2.411 -11.751  0.00  0.00     0.174 HD
HETATM   40  H           1     -21.065  -4.202 -13.272  0.00  0.00     0.177 HD
ENDBRANCH  31  32
ENDBRANCH  30  31
ENDBRANCH  29  30
ENDBRANCH  24  29
ENDBRANCH   3  24
TORSDOF 17
ENDMDL
MODEL 9
REMARK VINA RESULT:      -6.9      4.083     10.312
REMARK  17 active torsions:
REMARK  status: ('A' for Active; 'I' for Inactive)
REMARK       I    between atoms: C_2  and  N_3 
REMARK       I    between atoms: C_2  and  N_4 
REMARK    1  A    between atoms: N_5  and  C_33 
REMARK    2  A    between atoms: O_6  and  P_37 
REMARK    3  A    between atoms: N_8  and  C_16 
REMARK    4  A    between atoms: N_8  and  C_9 
REMARK    5  A    between atoms: C_9  and  C_10 
REMARK    6  A    between atoms: C_10  and  C_19 
REMARK    7  A    between atoms: C_11  and  C_16 
REMARK    8  A    between atoms: C_12  and  C_33 
REMARK    9  A    between atoms: C_12  and  C_13 
REMARK   10  A    between atoms: C_13  and  C_14 
REMARK   11  A    between atoms: C_14  and  N_15 
REMARK   12  A    between atoms: C_16  and  C_18 
REMARK   13  A    between atoms: C_18  and  O_36 
REMARK   14  A    between atoms: C_19  and  C_20 
REMARK   15  A    between atoms: C_19  and  N_35 
REMARK   16  A    between atoms: C_33  and  C_34 
REMARK       I    between atoms: C_34  and  N_35 
REMARK   17  A    between atoms: O_36  and  P_37 
ROOT
HETATM    1  O           1     -23.691  -4.045  -7.687  0.00  0.00    -0.271 OA
HETATM    2  H           1     -21.270  -5.250  -9.276  0.00  0.00     0.163 HD
HETATM    3  C           1     -23.058  -4.422  -8.645  0.00  0.00     0.249 C 
HETATM    4  N           1     -21.801  -4.935  -8.474  0.00  0.00    -0.345 N 
ENDROOT
BRANCH   4   5
HETATM    5  C           1     -21.229  -5.028  -7.145  0.00  0.00     0.187 C 
BRANCH   5   6
HETATM    6  C           1     -21.173  -6.488  -6.718  0.00  0.00     0.066 C 
BRANCH   6   7
HETATM    7  C           1     -21.921  -6.662  -5.403  0.00  0.00     0.273 C 
BRANCH   7   8
HETATM    8  N           1     -20.986  -6.624  -4.311  0.00  0.00     0.100 N 
HETATM    9  H           1     -20.985  -5.691  -3.898  0.00  0.00     0.317 HD
BRANCH   8  10
HETATM   10  C           1     -21.418  -7.582  -3.330  0.00  0.00     0.344 C 
BRANCH  10  11
HETATM   11  C           1     -21.861  -6.859  -2.082  0.00  0.00     0.209 C 
HETATM   12  O           1     -22.018  -7.492  -1.016  0.00  0.00    -0.646 OA
HETATM   13  O           1     -22.071  -5.627  -2.115  0.00  0.00    -0.646 OA
ENDBRANCH  10  11
BRANCH  10  14
HETATM   14  C           1     -20.264  -8.518  -2.994  0.00  0.00     0.228 C 
BRANCH  14  15
HETATM   15  O           1     -19.399  -8.608  -4.093  0.00  0.00    -0.287 OA
BRANCH  15  16
HETATM   16  P           1     -18.203  -9.686  -3.967  0.00  0.00     0.406 P 
HETATM   17  O           1     -17.468  -9.759  -5.250  0.00  0.00    -0.624 OA
HETATM   18  O           1     -17.277  -9.272  -2.891  0.00  0.00    -0.624 OA
BRANCH  16  19
HETATM   19  O           1     -18.821 -11.137  -3.616  0.00  0.00    -0.300 OA
HETATM   20  H           1     -18.076 -11.709  -3.551  0.00  0.00     0.223 HD
ENDBRANCH  16  19
ENDBRANCH  15  16
ENDBRANCH  14  15
ENDBRANCH  10  14
ENDBRANCH   8  10
ENDBRANCH   7   8
ENDBRANCH   6   7
ENDBRANCH   5   6
BRANCH   5  21
HETATM   21  C           1     -19.834  -4.452  -7.157  0.00  0.00     0.196 C 
HETATM   22  O           1     -19.409  -3.865  -8.176  0.00  0.00    -0.646 OA
HETATM   23  O           1     -19.104  -4.563  -6.149  0.00  0.00    -0.646 OA
ENDBRANCH   5  21
ENDBRANCH   4   5
BRANCH   3  24
HETATM   24  C           1     -23.652  -4.325 -10.029  0.00  0.00     0.274 C 
BRANCH  24  25
HETATM   25  N           1     -25.114  -4.005  -9.923  0.00  0.00    -0.067 N 
HETATM   26  H           1     -25.568  -4.138 -10.855  0.00  0.00     0.275 HD
HETATM   27  H           1     -25.559  -4.643  -9.225  0.00  0.00     0.275 HD
HETATM   28  H           1     -25.232  -3.014  -9.616  0.00  0.00     0.257 HD
ENDBRANCH  24  25
BRANCH  24  29
HETATM   29  C           1     -22.947  -3.222 -10.807  0.00  0.00     0.044 C 
BRANCH  29  30
HETATM   30  C           1     -22.691  -3.690 -12.234  0.00  0.00     0.023 C 
BRANCH  30  31
HETATM   31  C           1     -23.712  -3.054 -13.169  0.00  0.00     0.156 C 
BRANCH  31  32
HETATM   32  N           1     -23.026  -2.511 -14.349  0.00  0.00    -0.227 N 
HETATM   33  C           1     -23.454  -1.455 -14.900  0.00  0.00     0.665 C 
HETATM   34  N           1     -22.863  -0.987 -15.918  0.00  0.00    -0.235 N 
HETATM   35  N           1     -24.501  -0.850 -14.422  0.00  0.00    -0.235 N 
HETATM   36  H           1     -23.219  -0.111 -16.374  0.00  0.00     0.174 HD
HETATM   37  H           1     -22.019  -1.476 -16.305  0.00  0.00     0.174 HD
HETATM   38  H           1     -24.855   0.022 -14.876  0.00  0.00     0.174 HD
HETATM   39  H           1     -24.988  -1.237 -13.581  0.00  0.00     0.174 HD
HETATM   40  H           1     -22.181  -2.999 -14.737  0.00  0.00     0.177 HD
ENDBRANCH  31  32
ENDBRANCH  30  31
ENDBRANCH  29  30
ENDBRANCH  24  29
ENDBRANCH   3  24
TORSDOF 17
ENDMDL
