MODEL 1
REMARK VINA RESULT:      -5.5      0.000      0.000
REMARK  10 active torsions:
REMARK  status: ('A' for Active; 'I' for Inactive)
REMARK    1  A    between atoms: C_3  and  C_4 
REMARK    2  A    between atoms: C_3  and  C_18 
REMARK    3  A    between atoms: C_4  and  C_22 
REMARK    4  A    between atoms: C_5  and  C_6 
REMARK    5  A    between atoms: C_5  and  O_10 
REMARK    6  A    between atoms: C_6  and  C_12 
REMARK    7  A    between atoms: C_6  and  N_7 
REMARK    8  A    between atoms: N_9  and  C_22 
REMARK       I    between atoms: C_12  and  N_17 
REMARK    9  A    between atoms: N_17  and  C_18 
REMARK   10  A    between atoms: C_18  and  C_23 
ROOT
HETATM    1  H           1     -36.847  -1.519 -13.334  0.00  0.00     0.163 HD
HETATM    2  C           1     -35.572  -0.137 -14.198  0.00  0.00     0.251 C 
HETATM    3  N           1     -35.961  -1.038 -13.245  0.00  0.00    -0.345 N 
HETATM    4  O           1     -34.514   0.437 -14.091  0.00  0.00    -0.271 OA
ENDROOT
BRANCH   3   5
HETATM    5  C           1     -35.104  -1.305 -12.106  0.00  0.00     0.185 C 
BRANCH   5   6
HETATM    6  C           1     -35.960  -1.507 -10.863  0.00  0.00     0.038 C 
BRANCH   6   7
HETATM    7  C           1     -36.797  -0.259 -10.614  0.00  0.00     0.030 C 
BRANCH   7   8
HETATM    8  C           1     -36.922  -0.023  -9.114  0.00  0.00     0.230 C 
BRANCH   8   9
HETATM    9  N           1     -36.423   1.352  -8.781  0.00  0.00    -0.079 N 
HETATM   10  H           1     -35.853   1.313  -7.907  0.00  0.00     0.274 HD
HETATM   11  H           1     -37.236   1.993  -8.637  0.00  0.00     0.274 HD
HETATM   12  H           1     -35.833   1.709  -9.567  0.00  0.00     0.274 HD
ENDBRANCH   8   9
ENDBRANCH   7   8
ENDBRANCH   6   7
ENDBRANCH   5   6
BRANCH   5  13
HETATM   13  C           1     -34.294  -2.551 -12.368  0.00  0.00     0.196 C 
HETATM   14  O           1     -34.444  -3.180 -13.437  0.00  0.00    -0.646 OA
HETATM   15  O           1     -33.472  -2.952 -11.516  0.00  0.00    -0.646 OA
ENDBRANCH   5  13
ENDBRANCH   3   5
BRANCH   2  16
HETATM   16  C           1     -36.464   0.141 -15.383  0.00  0.00     0.297 C 
BRANCH  16  17
HETATM   17  C           1     -36.144  -0.841 -16.503  0.00  0.00     0.206 C 
BRANCH  17  18
HETATM   18  O           1     -35.211  -1.783 -16.047  0.00  0.00    -0.398 OA
HETATM   19  H           1     -35.152  -1.680 -15.113  0.00  0.00     0.209 HD
ENDBRANCH  17  18
ENDBRANCH  16  17
BRANCH  16  20
HETATM   20  N           1     -36.230   1.541 -15.867  0.00  0.00    -0.064 N 
HETATM   21  H           1     -36.973   2.171 -15.485  0.00  0.00     0.275 HD
HETATM   22  H           1     -35.293   1.870 -15.539  0.00  0.00     0.275 HD
HETATM   23  H           1     -36.261   1.559 -16.911  0.00  0.00     0.275 HD
ENDBRANCH  16  20
ENDBRANCH   2  16
TORSDOF 10
ENDMDL
MODEL 2
REMARK VINA RESULT:      -5.5      2.409      5.245
REMARK  10 active torsions:
REMARK  status: ('A' for Active; 'I' for Inactive)
REMARK    1  A    between atoms: C_3  and  C_4 
REMARK    2  A    between atoms: C_3  and  C_18 
REMARK    3  A    between atoms: C_4  and  C_22 
REMARK    4  A    between atoms: C_5  and  C_6 
REMARK    5  A    between atoms: C_5  and  O_10 
REMARK    6  A    between atoms: C_6  and  C_12 
REMARK    7  A    between atoms: C_6  and  N_7 
REMARK    8  A    between atoms: N_9  and  C_22 
REMARK       I    between atoms: C_12  and  N_17 
REMARK    9  A    between atoms: N_17  and  C_18 
REMARK   10  A    between atoms: C_18  and  C_23 
ROOT
HETATM    1  H           1     -35.197   0.553 -10.738  0.00  0.00     0.163 HD
HETATM    2  C           1     -37.044  -0.369 -10.605  0.00  0.00     0.251 C 
HETATM    3  N           1     -35.882  -0.007 -11.229  0.00  0.00    -0.345 N 
HETATM    4  O           1     -37.862  -1.037 -11.191  0.00  0.00    -0.271 OA
ENDROOT
BRANCH   3   5
HETATM    5  C           1     -35.631  -0.426 -12.595  0.00  0.00     0.185 C 
BRANCH   5   6
HETATM    6  C           1     -34.893   0.679 -13.337  0.00  0.00     0.038 C 
BRANCH   6   7
HETATM    7  C           1     -35.382   0.738 -14.778  0.00  0.00     0.030 C 
BRANCH   7   8
HETATM    8  C           1     -36.825   0.254 -14.846  0.00  0.00     0.230 C 
BRANCH   8   9
HETATM    9  N           1     -37.596   1.110 -15.806  0.00  0.00    -0.079 N 
HETATM   10  H           1     -38.418   0.576 -16.166  0.00  0.00     0.274 HD
HETATM   11  H           1     -36.980   1.380 -16.606  0.00  0.00     0.274 HD
HETATM   12  H           1     -37.928   1.972 -15.315  0.00  0.00     0.274 HD
ENDBRANCH   8   9
ENDBRANCH   7   8
ENDBRANCH   6   7
ENDBRANCH   5   6
BRANCH   5  13
HETATM   13  C           1     -34.789  -1.679 -12.589  0.00  0.00     0.196 C 
HETATM   14  O           1     -34.082  -1.951 -11.596  0.00  0.00    -0.646 OA
HETATM   15  O           1     -34.800  -2.443 -13.578  0.00  0.00    -0.646 OA
ENDBRANCH   5  13
ENDBRANCH   3   5
BRANCH   2  16
HETATM   16  C           1     -37.305   0.067  -9.184  0.00  0.00     0.297 C 
BRANCH  16  17
HETATM   17  C           1     -37.954   1.445  -9.184  0.00  0.00     0.206 C 
BRANCH  17  18
HETATM   18  O           1     -37.352   2.246  -8.202  0.00  0.00    -0.398 OA
HETATM   19  H           1     -36.512   1.864  -8.016  0.00  0.00     0.209 HD
ENDBRANCH  17  18
ENDBRANCH  16  17
BRANCH  16  20
HETATM   20  N           1     -36.008   0.127  -8.434  0.00  0.00    -0.064 N 
HETATM   21  H           1     -36.119  -0.340  -7.505  0.00  0.00     0.275 HD
HETATM   22  H           1     -35.266  -0.365  -8.983  0.00  0.00     0.275 HD
HETATM   23  H           1     -35.733   1.125  -8.292  0.00  0.00     0.275 HD
ENDBRANCH  16  20
ENDBRANCH   2  16
TORSDOF 10
ENDMDL
MODEL 3
REMARK VINA RESULT:      -5.5     12.850     15.042
REMARK  10 active torsions:
REMARK  status: ('A' for Active; 'I' for Inactive)
REMARK    1  A    between atoms: C_3  and  C_4 
REMARK    2  A    between atoms: C_3  and  C_18 
REMARK    3  A    between atoms: C_4  and  C_22 
REMARK    4  A    between atoms: C_5  and  C_6 
REMARK    5  A    between atoms: C_5  and  O_10 
REMARK    6  A    between atoms: C_6  and  C_12 
REMARK    7  A    between atoms: C_6  and  N_7 
REMARK    8  A    between atoms: N_9  and  C_22 
REMARK       I    between atoms: C_12  and  N_17 
REMARK    9  A    between atoms: N_17  and  C_18 
REMARK   10  A    between atoms: C_18  and  C_23 
ROOT
HETATM    1  H           1     -22.067  -5.700  -9.153  0.00  0.00     0.163 HD
HETATM    2  C           1     -21.549  -4.364  -7.660  0.00  0.00     0.251 C 
HETATM    3  N           1     -22.080  -4.729  -8.867  0.00  0.00    -0.345 N 
HETATM    4  O           1     -21.565  -3.205  -7.318  0.00  0.00    -0.271 OA
ENDROOT
BRANCH   3   5
HETATM    5  C           1     -22.661  -3.725  -9.737  0.00  0.00     0.185 C 
BRANCH   5   6
HETATM    6  C           1     -22.161  -3.935 -11.159  0.00  0.00     0.038 C 
BRANCH   6   7
HETATM    7  C           1     -22.412  -2.675 -11.978  0.00  0.00     0.030 C 
BRANCH   7   8
HETATM    8  C           1     -23.320  -3.007 -13.155  0.00  0.00     0.230 C 
BRANCH   8   9
HETATM    9  N           1     -22.509  -3.051 -14.417  0.00  0.00    -0.079 N 
HETATM   10  H           1     -22.787  -3.885 -14.980  0.00  0.00     0.274 HD
HETATM   11  H           1     -21.494  -3.114 -14.177  0.00  0.00     0.274 HD
HETATM   12  H           1     -22.682  -2.181 -14.972  0.00  0.00     0.274 HD
ENDBRANCH   8   9
ENDBRANCH   7   8
ENDBRANCH   6   7
ENDBRANCH   5   6
BRANCH   5  13
HETATM   13  C           1     -24.165  -3.846  -9.709  0.00  0.00     0.196 C 
HETATM   14  O           1     -24.707  -4.949  -9.935  0.00  0.00    -0.646 OA
HETATM   15  O           1     -24.868  -2.843  -9.459  0.00  0.00    -0.646 OA
ENDBRANCH   5  13
ENDBRANCH   3   5
BRANCH   2  16
HETATM   16  C           1     -20.944  -5.409  -6.754  0.00  0.00     0.297 C 
BRANCH  16  17
HETATM   17  C           1     -21.984  -5.869  -5.742  0.00  0.00     0.206 C 
BRANCH  17  18
HETATM   18  O           1     -23.219  -5.272  -6.034  0.00  0.00    -0.398 OA
HETATM   19  H           1     -23.061  -4.634  -6.707  0.00  0.00     0.209 HD
ENDBRANCH  17  18
ENDBRANCH  16  17
BRANCH  16  20
HETATM   20  N           1     -19.769  -4.822  -6.030  0.00  0.00    -0.064 N 
HETATM   21  H           1     -18.883  -5.206  -6.432  0.00  0.00     0.275 HD
HETATM   22  H           1     -19.778  -3.782  -6.139  0.00  0.00     0.275 HD
HETATM   23  H           1     -19.827  -5.067  -5.016  0.00  0.00     0.275 HD
ENDBRANCH  16  20
ENDBRANCH   2  16
TORSDOF 10
ENDMDL
MODEL 4
REMARK VINA RESULT:      -5.4      3.352      5.212
REMARK  10 active torsions:
REMARK  status: ('A' for Active; 'I' for Inactive)
REMARK    1  A    between atoms: C_3  and  C_4 
REMARK    2  A    between atoms: C_3  and  C_18 
REMARK    3  A    between atoms: C_4  and  C_22 
REMARK    4  A    between atoms: C_5  and  C_6 
REMARK    5  A    between atoms: C_5  and  O_10 
REMARK    6  A    between atoms: C_6  and  C_12 
REMARK    7  A    between atoms: C_6  and  N_7 
REMARK    8  A    between atoms: N_9  and  C_22 
REMARK       I    between atoms: C_12  and  N_17 
REMARK    9  A    between atoms: N_17  and  C_18 
REMARK   10  A    between atoms: C_18  and  C_23 
ROOT
HETATM    1  H           1     -36.598  -3.557 -11.358  0.00  0.00     0.163 HD
HETATM    2  C           1     -35.469  -1.976 -10.644  0.00  0.00     0.251 C 
HETATM    3  N           1     -35.661  -3.227 -11.164  0.00  0.00    -0.345 N 
HETATM    4  O           1     -34.350  -1.583 -10.412  0.00  0.00    -0.271 OA
ENDROOT
BRANCH   3   5
HETATM    5  C           1     -34.522  -4.082 -11.436  0.00  0.00     0.185 C 
BRANCH   5   6
HETATM    6  C           1     -34.966  -5.538 -11.423  0.00  0.00     0.038 C 
BRANCH   6   7
HETATM    7  C           1     -33.980  -6.363 -10.607  0.00  0.00     0.030 C 
BRANCH   7   8
HETATM    8  C           1     -34.647  -7.658 -10.161  0.00  0.00     0.230 C 
BRANCH   8   9
HETATM    9  N           1     -33.658  -8.783 -10.237  0.00  0.00    -0.079 N 
HETATM   10  H           1     -34.035  -9.537 -10.855  0.00  0.00     0.274 HD
HETATM   11  H           1     -33.492  -9.168  -9.280  0.00  0.00     0.274 HD
HETATM   12  H           1     -32.756  -8.428 -10.631  0.00  0.00     0.274 HD
ENDBRANCH   8   9
ENDBRANCH   7   8
ENDBRANCH   6   7
ENDBRANCH   5   6
BRANCH   5  13
HETATM   13  C           1     -33.951  -3.742 -12.792  0.00  0.00     0.196 C 
HETATM   14  O           1     -34.642  -3.113 -13.620  0.00  0.00    -0.646 OA
HETATM   15  O           1     -32.786  -4.088 -13.084  0.00  0.00    -0.646 OA
ENDBRANCH   5  13
ENDBRANCH   3   5
BRANCH   2  16
HETATM   16  C           1     -36.654  -1.087 -10.361  0.00  0.00     0.297 C 
BRANCH  16  17
HETATM   17  C           1     -37.068  -0.367 -11.638  0.00  0.00     0.206 C 
BRANCH  17  18
HETATM   18  O           1     -36.606  -1.084 -12.751  0.00  0.00    -0.398 OA
HETATM   19  H           1     -36.107  -0.483 -13.275  0.00  0.00     0.209 HD
ENDBRANCH  17  18
ENDBRANCH  16  17
BRANCH  16  20
HETATM   20  N           1     -36.281  -0.075  -9.317  0.00  0.00    -0.064 N 
HETATM   21  H           1     -36.929   0.743  -9.376  0.00  0.00     0.275 HD
HETATM   22  H           1     -36.356  -0.510  -8.370  0.00  0.00     0.275 HD
HETATM   23  H           1     -35.300   0.245  -9.478  0.00  0.00     0.275 HD
ENDBRANCH  16  20
ENDBRANCH   2  16
TORSDOF 10
ENDMDL
MODEL 5
REMARK VINA RESULT:      -5.3      2.918      5.770
REMARK  10 active torsions:
REMARK  status: ('A' for Active; 'I' for Inactive)
REMARK    1  A    between atoms: C_3  and  C_4 
REMARK    2  A    between atoms: C_3  and  C_18 
REMARK    3  A    between atoms: C_4  and  C_22 
REMARK    4  A    between atoms: C_5  and  C_6 
REMARK    5  A    between atoms: C_5  and  O_10 
REMARK    6  A    between atoms: C_6  and  C_12 
REMARK    7  A    between atoms: C_6  and  N_7 
REMARK    8  A    between atoms: N_9  and  C_22 
REMARK       I    between atoms: C_12  and  N_17 
REMARK    9  A    between atoms: N_17  and  C_18 
REMARK   10  A    between atoms: C_18  and  C_23 
ROOT
HETATM    1  H           1     -37.479  -1.357 -10.793  0.00  0.00     0.163 HD
HETATM    2  C           1     -36.615  -0.395  -9.177  0.00  0.00     0.251 C 
HETATM    3  N           1     -36.608  -1.134 -10.329  0.00  0.00    -0.345 N 
HETATM    4  O           1     -35.575  -0.129  -8.623  0.00  0.00    -0.271 OA
ENDROOT
BRANCH   3   5
HETATM    5  C           1     -35.351  -1.599 -10.884  0.00  0.00     0.185 C 
BRANCH   5   6
HETATM    6  C           1     -35.380  -3.116 -11.003  0.00  0.00     0.038 C 
BRANCH   6   7
HETATM    7  C           1     -34.039  -3.686 -10.558  0.00  0.00     0.030 C 
BRANCH   7   8
HETATM    8  C           1     -33.147  -3.895 -11.775  0.00  0.00     0.230 C 
BRANCH   8   9
HETATM    9  N           1     -33.973  -4.399 -12.922  0.00  0.00    -0.079 N 
HETATM   10  H           1     -34.088  -3.638 -13.628  0.00  0.00     0.274 HD
HETATM   11  H           1     -34.912  -4.694 -12.572  0.00  0.00     0.274 HD
HETATM   12  H           1     -33.493  -5.216 -13.364  0.00  0.00     0.274 HD
ENDBRANCH   8   9
ENDBRANCH   7   8
ENDBRANCH   6   7
ENDBRANCH   5   6
BRANCH   5  13
HETATM   13  C           1     -35.150  -0.989 -12.250  0.00  0.00     0.196 C 
HETATM   14  O           1     -34.713   0.176 -12.356  0.00  0.00    -0.646 OA
HETATM   15  O           1     -35.420  -1.652 -13.275  0.00  0.00    -0.646 OA
ENDBRANCH   5  13
ENDBRANCH   3   5
BRANCH   2  16
HETATM   16  C           1     -37.923   0.089  -8.599  0.00  0.00     0.297 C 
BRANCH  16  17
HETATM   17  C           1     -37.936   1.611  -8.573  0.00  0.00     0.206 C 
BRANCH  17  18
HETATM   18  O           1     -37.033   2.071  -7.604  0.00  0.00    -0.398 OA
HETATM   19  H           1     -36.759   2.931  -7.873  0.00  0.00     0.209 HD
ENDBRANCH  17  18
ENDBRANCH  16  17
BRANCH  16  20
HETATM   20  N           1     -38.075  -0.435  -7.202  0.00  0.00    -0.064 N 
HETATM   21  H           1     -39.024  -0.859  -7.089  0.00  0.00     0.275 HD
HETATM   22  H           1     -37.346  -1.163  -7.022  0.00  0.00     0.275 HD
HETATM   23  H           1     -37.960   0.349  -6.521  0.00  0.00     0.275 HD
ENDBRANCH  16  20
ENDBRANCH   2  16
TORSDOF 10
ENDMDL
MODEL 6
REMARK VINA RESULT:      -5.2     11.896     13.182
REMARK  10 active torsions:
REMARK  status: ('A' for Active; 'I' for Inactive)
REMARK    1  A    between atoms: C_3  and  C_4 
REMARK    2  A    between atoms: C_3  and  C_18 
REMARK    3  A    between atoms: C_4  and  C_22 
REMARK    4  A    between atoms: C_5  and  C_6 
REMARK    5  A    between atoms: C_5  and  O_10 
REMARK    6  A    between atoms: C_6  and  C_12 
REMARK    7  A    between atoms: C_6  and  N_7 
REMARK    8  A    between atoms: N_9  and  C_22 
REMARK       I    between atoms: C_12  and  N_17 
REMARK    9  A    between atoms: N_17  and  C_18 
REMARK   10  A    between atoms: C_18  and  C_23 
ROOT
HETATM    1  H           1     -22.902  -1.629 -12.325  0.00  0.00     0.163 HD
HETATM    2  C           1     -23.850  -3.006 -13.544  0.00  0.00     0.251 C 
HETATM    3  N           1     -23.228  -2.584 -12.401  0.00  0.00    -0.345 N 
HETATM    4  O           1     -24.239  -4.146 -13.634  0.00  0.00    -0.271 OA
ENDROOT
BRANCH   3   5
HETATM    5  C           1     -23.034  -3.505 -11.298  0.00  0.00     0.185 C 
BRANCH   5   6
HETATM    6  C           1     -21.694  -3.224 -10.631  0.00  0.00     0.038 C 
BRANCH   6   7
HETATM    7  C           1     -20.817  -4.466 -10.710  0.00  0.00     0.030 C 
BRANCH   7   8
HETATM    8  C           1     -20.181  -4.726  -9.351  0.00  0.00     0.230 C 
BRANCH   8   9
HETATM    9  N           1     -20.975  -4.031  -8.284  0.00  0.00    -0.079 N 
HETATM   10  H           1     -21.038  -3.013  -8.506  0.00  0.00     0.274 HD
HETATM   11  H           1     -20.504  -4.158  -7.360  0.00  0.00     0.274 HD
HETATM   12  H           1     -21.936  -4.441  -8.245  0.00  0.00     0.274 HD
ENDBRANCH   8   9
ENDBRANCH   7   8
ENDBRANCH   6   7
ENDBRANCH   5   6
BRANCH   5  13
HETATM   13  C           1     -24.145  -3.325 -10.292  0.00  0.00     0.196 C 
HETATM   14  O           1     -23.893  -3.369  -9.069  0.00  0.00    -0.646 OA
HETATM   15  O           1     -25.316  -3.133 -10.683  0.00  0.00    -0.646 OA
ENDBRANCH   5  13
ENDBRANCH   3   5
BRANCH   2  16
HETATM   16  C           1     -24.052  -2.048 -14.691  0.00  0.00     0.297 C 
BRANCH  16  17
HETATM   17  C           1     -22.743  -1.879 -15.452  0.00  0.00     0.206 C 
BRANCH  17  18
HETATM   18  O           1     -22.062  -3.104 -15.487  0.00  0.00    -0.398 OA
HETATM   19  H           1     -22.705  -3.779 -15.357  0.00  0.00     0.209 HD
ENDBRANCH  17  18
ENDBRANCH  16  17
BRANCH  16  20
HETATM   20  N           1     -24.494  -0.717 -14.159  0.00  0.00    -0.064 N 
HETATM   21  H           1     -24.144  -0.598 -13.181  0.00  0.00     0.275 HD
HETATM   22  H           1     -24.106   0.045 -14.761  0.00  0.00     0.275 HD
HETATM   23  H           1     -25.538  -0.668 -14.164  0.00  0.00     0.275 HD
ENDBRANCH  16  20
ENDBRANCH   2  16
TORSDOF 10
ENDMDL
MODEL 7
REMARK VINA RESULT:      -5.2      2.097      3.927
REMARK  10 active torsions:
REMARK  status: ('A' for Active; 'I' for Inactive)
REMARK    1  A    between atoms: C_3  and  C_4 
REMARK    2  A    between atoms: C_3  and  C_18 
REMARK    3  A    between atoms: C_4  and  C_22 
REMARK    4  A    between atoms: C_5  and  C_6 
REMARK    5  A    between atoms: C_5  and  O_10 
REMARK    6  A    between atoms: C_6  and  C_12 
REMARK    7  A    between atoms: C_6  and  N_7 
REMARK    8  A    between atoms: N_9  and  C_22 
REMARK       I    between atoms: C_12  and  N_17 
REMARK    9  A    between atoms: N_17  and  C_18 
REMARK   10  A    between atoms: C_18  and  C_23 
ROOT
HETATM    1  H           1     -35.207  -1.786 -11.253  0.00  0.00     0.163 HD
HETATM    2  C           1     -34.570  -2.917 -12.865  0.00  0.00     0.251 C 
HETATM    3  N           1     -35.221  -1.876 -12.261  0.00  0.00    -0.345 N 
HETATM    4  O           1     -34.587  -3.024 -14.068  0.00  0.00    -0.271 OA
ENDROOT
BRANCH   3   5
HETATM    5  C           1     -35.932  -0.901 -13.065  0.00  0.00     0.185 C 
BRANCH   5   6
HETATM    6  C           1     -37.053  -0.284 -12.241  0.00  0.00     0.038 C 
BRANCH   6   7
HETATM    7  C           1     -36.947  -0.764 -10.799  0.00  0.00     0.030 C 
BRANCH   7   8
HETATM    8  C           1     -37.552   0.280  -9.870  0.00  0.00     0.230 C 
BRANCH   8   9
HETATM    9  N           1     -36.472   1.199  -9.379  0.00  0.00    -0.079 N 
HETATM   10  H           1     -36.886   1.910  -8.736  0.00  0.00     0.274 HD
HETATM   11  H           1     -36.029   1.682 -10.193  0.00  0.00     0.274 HD
HETATM   12  H           1     -35.749   0.644  -8.867  0.00  0.00     0.274 HD
ENDBRANCH   8   9
ENDBRANCH   7   8
ENDBRANCH   6   7
ENDBRANCH   5   6
BRANCH   5  13
HETATM   13  C           1     -34.976   0.180 -13.506  0.00  0.00     0.196 C 
HETATM   14  O           1     -34.609   0.243 -14.698  0.00  0.00    -0.646 OA
HETATM   15  O           1     -34.551   1.014 -12.676  0.00  0.00    -0.646 OA
ENDBRANCH   5  13
ENDBRANCH   3   5
BRANCH   2  16
HETATM   16  C           1     -33.830  -3.932 -12.028  0.00  0.00     0.297 C 
BRANCH  16  17
HETATM   17  C           1     -34.651  -5.211 -11.934  0.00  0.00     0.206 C 
BRANCH  17  18
HETATM   18  O           1     -35.096  -5.578 -13.212  0.00  0.00    -0.398 OA
HETATM   19  H           1     -34.596  -6.332 -13.469  0.00  0.00     0.209 HD
ENDBRANCH  17  18
ENDBRANCH  16  17
BRANCH  16  20
HETATM   20  N           1     -33.609  -3.378 -10.652  0.00  0.00    -0.064 N 
HETATM   21  H           1     -34.452  -3.564 -10.061  0.00  0.00     0.275 HD
HETATM   22  H           1     -32.775  -3.839 -10.222  0.00  0.00     0.275 HD
HETATM   23  H           1     -33.446  -2.348 -10.713  0.00  0.00     0.275 HD
ENDBRANCH  16  20
ENDBRANCH   2  16
TORSDOF 10
ENDMDL
MODEL 8
REMARK VINA RESULT:      -4.9     12.422     13.591
REMARK  10 active torsions:
REMARK  status: ('A' for Active; 'I' for Inactive)
REMARK    1  A    between atoms: C_3  and  C_4 
REMARK    2  A    between atoms: C_3  and  C_18 
REMARK    3  A    between atoms: C_4  and  C_22 
REMARK    4  A    between atoms: C_5  and  C_6 
REMARK    5  A    between atoms: C_5  and  O_10 
REMARK    6  A    between atoms: C_6  and  C_12 
REMARK    7  A    between atoms: C_6  and  N_7 
REMARK    8  A    between atoms: N_9  and  C_22 
REMARK       I    between atoms: C_12  and  N_17 
REMARK    9  A    between atoms: N_17  and  C_18 
REMARK   10  A    between atoms: C_18  and  C_23 
ROOT
HETATM    1  H           1     -22.391  -5.033 -12.390  0.00  0.00     0.163 HD
HETATM    2  C           1     -22.620  -3.002 -12.717  0.00  0.00     0.251 C 
HETATM    3  N           1     -22.343  -4.114 -11.969  0.00  0.00    -0.345 N 
HETATM    4  O           1     -22.562  -1.905 -12.214  0.00  0.00    -0.271 OA
ENDROOT
BRANCH   3   5
HETATM    5  C           1     -21.980  -3.975 -10.571  0.00  0.00     0.185 C 
BRANCH   5   6
HETATM    6  C           1     -22.861  -4.885  -9.727  0.00  0.00     0.038 C 
BRANCH   6   7
HETATM    7  C           1     -23.504  -4.075  -8.609  0.00  0.00     0.030 C 
BRANCH   7   8
HETATM    8  C           1     -22.852  -4.434  -7.280  0.00  0.00     0.230 C 
BRANCH   8   9
HETATM    9  N           1     -23.889  -4.977  -6.342  0.00  0.00    -0.079 N 
HETATM   10  H           1     -23.482  -5.765  -5.792  0.00  0.00     0.274 HD
HETATM   11  H           1     -24.708  -5.323  -6.891  0.00  0.00     0.274 HD
HETATM   12  H           1     -24.200  -4.220  -5.691  0.00  0.00     0.274 HD
ENDBRANCH   8   9
ENDBRANCH   7   8
ENDBRANCH   6   7
ENDBRANCH   5   6
BRANCH   5  13
HETATM   13  C           1     -20.533  -4.361 -10.387  0.00  0.00     0.196 C 
HETATM   14  O           1     -19.720  -4.202 -11.322  0.00  0.00    -0.646 OA
HETATM   15  O           1     -20.149  -4.841  -9.298  0.00  0.00    -0.646 OA
ENDBRANCH   5  13
ENDBRANCH   3   5
BRANCH   2  16
HETATM   16  C           1     -22.997  -3.146 -14.171  0.00  0.00     0.297 C 
BRANCH  16  17
HETATM   17  C           1     -23.493  -1.809 -14.704  0.00  0.00     0.206 C 
BRANCH  17  18
HETATM   18  O           1     -24.736  -1.507 -14.128  0.00  0.00    -0.398 OA
HETATM   19  H           1     -25.257  -2.290 -14.178  0.00  0.00     0.209 HD
ENDBRANCH  17  18
ENDBRANCH  16  17
BRANCH  16  20
HETATM   20  N           1     -24.084  -4.171 -14.306  0.00  0.00    -0.064 N 
HETATM   21  H           1     -25.015  -3.696 -14.293  0.00  0.00     0.275 HD
HETATM   22  H           1     -23.967  -4.684 -15.210  0.00  0.00     0.275 HD
HETATM   23  H           1     -24.025  -4.847 -13.512  0.00  0.00     0.275 HD
ENDBRANCH  16  20
ENDBRANCH   2  16
TORSDOF 10
ENDMDL
MODEL 9
REMARK VINA RESULT:      -4.8      2.871      4.629
REMARK  10 active torsions:
REMARK  status: ('A' for Active; 'I' for Inactive)
REMARK    1  A    between atoms: C_3  and  C_4 
REMARK    2  A    between atoms: C_3  and  C_18 
REMARK    3  A    between atoms: C_4  and  C_22 
REMARK    4  A    between atoms: C_5  and  C_6 
REMARK    5  A    between atoms: C_5  and  O_10 
REMARK    6  A    between atoms: C_6  and  C_12 
REMARK    7  A    between atoms: C_6  and  N_7 
REMARK    8  A    between atoms: N_9  and  C_22 
REMARK       I    between atoms: C_12  and  N_17 
REMARK    9  A    between atoms: N_17  and  C_18 
REMARK   10  A    between atoms: C_18  and  C_23 
ROOT
HETATM    1  H           1     -34.069  -2.023 -11.298  0.00  0.00     0.163 HD
HETATM    2  C           1     -35.113  -3.770 -10.922  0.00  0.00     0.251 C 
HETATM    3  N           1     -34.980  -2.421 -11.110  0.00  0.00    -0.345 N 
HETATM    4  O           1     -36.202  -4.244 -10.697  0.00  0.00    -0.271 OA
ENDROOT
BRANCH   3   5
HETATM    5  C           1     -36.146  -1.561 -11.038  0.00  0.00     0.185 C 
BRANCH   5   6
HETATM    6  C           1     -36.122  -0.783  -9.730  0.00  0.00     0.038 C 
BRANCH   6   7
HETATM    7  C           1     -37.501  -0.194  -9.464  0.00  0.00     0.030 C 
BRANCH   7   8
HETATM    8  C           1     -37.551   0.365  -8.048  0.00  0.00     0.230 C 
BRANCH   8   9
HETATM    9  N           1     -36.896   1.714  -8.019  0.00  0.00    -0.079 N 
HETATM   10  H           1     -37.066   2.203  -8.926  0.00  0.00     0.274 HD
HETATM   11  H           1     -35.868   1.600  -7.872  0.00  0.00     0.274 HD
HETATM   12  H           1     -37.299   2.280  -7.237  0.00  0.00     0.274 HD
ENDBRANCH   8   9
ENDBRANCH   7   8
ENDBRANCH   6   7
ENDBRANCH   5   6
BRANCH   5  13
HETATM   13  C           1     -36.129  -0.596 -12.199  0.00  0.00     0.196 C 
HETATM   14  O           1     -35.368   0.395 -12.176  0.00  0.00    -0.646 OA
HETATM   15  O           1     -36.877  -0.788 -13.182  0.00  0.00    -0.646 OA
ENDBRANCH   5  13
ENDBRANCH   3   5
BRANCH   2  16
HETATM   16  C           1     -33.901  -4.665 -10.996  0.00  0.00     0.297 C 
BRANCH  16  17
HETATM   17  C           1     -32.779  -3.945 -11.732  0.00  0.00     0.206 C 
BRANCH  17  18
HETATM   18  O           1     -31.932  -4.888 -12.332  0.00  0.00    -0.398 OA
HETATM   19  H           1     -32.433  -5.318 -13.001  0.00  0.00     0.209 HD
ENDBRANCH  17  18
ENDBRANCH  16  17
BRANCH  16  20
HETATM   20  N           1     -34.254  -5.923 -11.733  0.00  0.00    -0.064 N 
HETATM   21  H           1     -33.435  -6.236 -12.303  0.00  0.00     0.275 HD
HETATM   22  H           1     -34.505  -6.670 -11.046  0.00  0.00     0.275 HD
HETATM   23  H           1     -35.067  -5.741 -12.363  0.00  0.00     0.275 HD
ENDBRANCH  16  20
ENDBRANCH   2  16
TORSDOF 10
ENDMDL
