MODEL 1
REMARK VINA RESULT:      -7.6      0.000      0.000
REMARK  8 active torsions:
REMARK  status: ('A' for Active; 'I' for Inactive)
REMARK    1  A    between atoms: C_4  and  C_21 
REMARK    2  A    between atoms: C_4  and  O_6 
REMARK    3  A    between atoms: N_8  and  C_22 
REMARK       I    between atoms: N_8  and  C_28 
REMARK    4  A    between atoms: C_12  and  C_14 
REMARK    5  A    between atoms: C_14  and  C_22 
REMARK    6  A    between atoms: C_17  and  C_22 
REMARK    7  A    between atoms: C_21  and  C_28 
REMARK    8  A    between atoms: C_21  and  N_26 
ROOT
HETATM    1  C           1     -21.871  -6.599  -5.622  0.00  0.00     0.190 C 
ENDROOT
BRANCH   1   2
HETATM    2  N           1     -22.364  -6.310  -4.289  0.00  0.00    -0.344 N 
HETATM    3  C           1     -21.538  -6.464  -3.207  0.00  0.00     0.251 C 
HETATM    4  O           1     -20.859  -5.541  -2.828  0.00  0.00    -0.271 OA
HETATM    5  H           1     -23.315  -5.994  -4.159  0.00  0.00     0.163 HD
BRANCH   3   6
HETATM    6  C           1     -21.479  -7.789  -2.488  0.00  0.00     0.302 C 
BRANCH   6   7
HETATM    7  C           1     -22.254  -7.692  -1.179  0.00  0.00     0.153 C 
HETATM    8  C           1     -21.351  -8.104  -0.024  0.00  0.00     0.042 C 
BRANCH   7   9
HETATM    9  O           1     -22.684  -6.372  -0.988  0.00  0.00    -0.393 OA
HETATM   10  H           1     -23.053  -6.327  -0.121  0.00  0.00     0.210 HD
ENDBRANCH   7   9
ENDBRANCH   6   7
BRANCH   6  11
HETATM   11  N           1     -20.049  -8.135  -2.195  0.00  0.00    -0.064 N 
HETATM   12  H           1     -19.424  -7.614  -2.852  0.00  0.00     0.275 HD
HETATM   13  H           1     -19.820  -7.869  -1.211  0.00  0.00     0.275 HD
HETATM   14  H           1     -19.905  -9.162  -2.320  0.00  0.00     0.275 HD
ENDBRANCH   6  11
ENDBRANCH   3   6
ENDBRANCH   1   2
BRANCH   1  15
HETATM   15  C           1     -21.176  -5.365  -6.183  0.00  0.00     0.077 C 
BRANCH  15  16
HETATM   16  C           1     -22.004  -4.784  -7.287  0.00  0.00    -0.028 A 
HETATM   17  C           1     -21.564  -4.515  -8.612  0.00  0.00    -0.002 A 
HETATM   18  C           1     -22.650  -3.980  -9.306  0.00  0.00     0.042 A 
HETATM   19  C           1     -20.340  -4.675  -9.291  0.00  0.00     0.014 A 
HETATM   20  N           1     -23.707  -3.930  -8.424  0.00  0.00    -0.365 N 
HETATM   21  C           1     -22.574  -3.597 -10.650  0.00  0.00     0.030 A 
HETATM   22  C           1     -23.327  -4.414  -7.200  0.00  0.00     0.096 A 
HETATM   23  H           1     -24.666  -3.573  -8.658  0.00  0.00     0.165 HD
HETATM   24  C           1     -21.348  -3.766 -11.302  0.00  0.00     0.002 A 
HETATM   25  C           1     -20.247  -4.297 -10.635  0.00  0.00     0.001 A 
ENDBRANCH  15  16
ENDBRANCH   1  15
BRANCH   1  26
HETATM   26  C           1     -20.891  -7.744  -5.558  0.00  0.00     0.197 C 
HETATM   27  O           1     -19.676  -7.517  -5.369  0.00  0.00    -0.646 OA
HETATM   28  O           1     -21.293  -8.920  -5.696  0.00  0.00    -0.646 OA
ENDBRANCH   1  26
TORSDOF 8
ENDMDL
MODEL 2
REMARK VINA RESULT:      -7.6      1.755      2.185
REMARK  8 active torsions:
REMARK  status: ('A' for Active; 'I' for Inactive)
REMARK    1  A    between atoms: C_4  and  C_21 
REMARK    2  A    between atoms: C_4  and  O_6 
REMARK    3  A    between atoms: N_8  and  C_22 
REMARK       I    between atoms: N_8  and  C_28 
REMARK    4  A    between atoms: C_12  and  C_14 
REMARK    5  A    between atoms: C_14  and  C_22 
REMARK    6  A    between atoms: C_17  and  C_22 
REMARK    7  A    between atoms: C_21  and  C_28 
REMARK    8  A    between atoms: C_21  and  N_26 
ROOT
HETATM    1  C           1     -21.113  -6.012  -7.196  0.00  0.00     0.190 C 
ENDROOT
BRANCH   1   2
HETATM    2  N           1     -21.709  -6.954  -6.269  0.00  0.00    -0.344 N 
HETATM    3  C           1     -22.211  -6.512  -5.074  0.00  0.00     0.251 C 
HETATM    4  O           1     -23.365  -6.166  -4.994  0.00  0.00    -0.271 OA
HETATM    5  H           1     -21.756  -7.936  -6.506  0.00  0.00     0.163 HD
BRANCH   3   6
HETATM    6  C           1     -21.322  -6.459  -3.857  0.00  0.00     0.302 C 
BRANCH   6   7
HETATM    7  C           1     -20.804  -7.857  -3.544  0.00  0.00     0.153 C 
HETATM    8  C           1     -20.581  -7.990  -2.043  0.00  0.00     0.042 C 
BRANCH   7   9
HETATM    9  O           1     -21.746  -8.808  -3.962  0.00  0.00    -0.393 OA
HETATM   10  H           1     -22.585  -8.519  -3.647  0.00  0.00     0.210 HD
ENDBRANCH   7   9
ENDBRANCH   6   7
BRANCH   6  11
HETATM   11  N           1     -22.106  -5.943  -2.687  0.00  0.00    -0.064 N 
HETATM   12  H           1     -21.789  -6.427  -1.816  0.00  0.00     0.275 HD
HETATM   13  H           1     -21.953  -4.914  -2.590  0.00  0.00     0.275 HD
HETATM   14  H           1     -23.123  -6.131  -2.837  0.00  0.00     0.275 HD
ENDBRANCH   6  11
ENDBRANCH   3   6
ENDBRANCH   1   2
BRANCH   1  15
HETATM   15  C           1     -21.696  -4.625  -6.955  0.00  0.00     0.077 C 
BRANCH  15  16
HETATM   16  C           1     -22.594  -4.255  -8.095  0.00  0.00    -0.028 A 
HETATM   17  C           1     -22.183  -3.960  -9.424  0.00  0.00    -0.002 A 
HETATM   18  C           1     -23.335  -3.669 -10.155  0.00  0.00     0.042 A 
HETATM   19  C           1     -20.936  -3.913 -10.077  0.00  0.00     0.014 A 
HETATM   20  N           1     -24.401  -3.785  -9.292  0.00  0.00    -0.365 N 
HETATM   21  C           1     -23.303  -3.331 -11.513  0.00  0.00     0.030 A 
HETATM   22  C           1     -23.964  -4.139  -8.043  0.00  0.00     0.096 A 
HETATM   23  H           1     -25.406  -3.626  -9.554  0.00  0.00     0.165 HD
HETATM   24  C           1     -22.053  -3.291 -12.139  0.00  0.00     0.002 A 
HETATM   25  C           1     -20.886  -3.578 -11.435  0.00  0.00     0.001 A 
ENDBRANCH  15  16
ENDBRANCH   1  15
BRANCH   1  26
HETATM   26  C           1     -19.620  -5.975  -6.984  0.00  0.00     0.197 C 
HETATM   27  O           1     -18.998  -4.898  -7.106  0.00  0.00    -0.646 OA
HETATM   28  O           1     -19.004  -7.022  -6.686  0.00  0.00    -0.646 OA
ENDBRANCH   1  26
TORSDOF 8
ENDMDL
MODEL 3
REMARK VINA RESULT:      -7.2     14.502     17.242
REMARK  8 active torsions:
REMARK  status: ('A' for Active; 'I' for Inactive)
REMARK    1  A    between atoms: C_4  and  C_21 
REMARK    2  A    between atoms: C_4  and  O_6 
REMARK    3  A    between atoms: N_8  and  C_22 
REMARK       I    between atoms: N_8  and  C_28 
REMARK    4  A    between atoms: C_12  and  C_14 
REMARK    5  A    between atoms: C_14  and  C_22 
REMARK    6  A    between atoms: C_17  and  C_22 
REMARK    7  A    between atoms: C_21  and  C_28 
REMARK    8  A    between atoms: C_21  and  N_26 
ROOT
HETATM    1  C           1     -36.892  -0.385 -11.065  0.00  0.00     0.190 C 
ENDROOT
BRANCH   1   2
HETATM    2  N           1     -37.154   0.326 -12.300  0.00  0.00    -0.344 N 
HETATM    3  C           1     -36.996  -0.311 -13.503  0.00  0.00     0.251 C 
HETATM    4  O           1     -37.924  -0.902 -14.000  0.00  0.00    -0.271 OA
HETATM    5  H           1     -37.454   1.291 -12.275  0.00  0.00     0.163 HD
BRANCH   3   6
HETATM    6  C           1     -35.662  -0.273 -14.206  0.00  0.00     0.302 C 
BRANCH   6   7
HETATM    7  C           1     -35.832   0.350 -15.586  0.00  0.00     0.153 C 
HETATM    8  C           1     -35.912  -0.754 -16.633  0.00  0.00     0.042 C 
BRANCH   7   9
HETATM    9  O           1     -37.012   1.106 -15.615  0.00  0.00    -0.393 OA
HETATM   10  H           1     -37.043   1.534 -16.455  0.00  0.00     0.210 HD
ENDBRANCH   7   9
ENDBRANCH   6   7
BRANCH   6  11
HETATM   11  N           1     -35.133  -1.669 -14.351  0.00  0.00    -0.064 N 
HETATM   12  H           1     -34.196  -1.640 -14.813  0.00  0.00     0.275 HD
HETATM   13  H           1     -35.043  -2.107 -13.406  0.00  0.00     0.275 HD
HETATM   14  H           1     -35.791  -2.233 -14.935  0.00  0.00     0.275 HD
ENDBRANCH   6  11
ENDBRANCH   3   6
ENDBRANCH   1   2
BRANCH   1  15
HETATM   15  C           1     -35.467  -0.923 -11.081  0.00  0.00     0.077 C 
BRANCH  15  16
HETATM   16  C           1     -35.491  -2.409 -10.898  0.00  0.00    -0.028 A 
HETATM   17  C           1     -34.425  -3.306 -11.181  0.00  0.00    -0.002 A 
HETATM   18  C           1     -34.873  -4.590 -10.868  0.00  0.00     0.042 A 
HETATM   19  C           1     -33.115  -3.148 -11.676  0.00  0.00     0.014 A 
HETATM   20  N           1     -36.166  -4.465 -10.412  0.00  0.00    -0.365 N 
HETATM   21  C           1     -34.074  -5.728 -11.025  0.00  0.00     0.030 A 
HETATM   22  C           1     -36.550  -3.151 -10.426  0.00  0.00     0.096 A 
HETATM   23  H           1     -36.771  -5.264 -10.098  0.00  0.00     0.165 HD
HETATM   24  C           1     -32.778  -5.545 -11.518  0.00  0.00     0.002 A 
HETATM   25  C           1     -32.303  -4.276 -11.839  0.00  0.00     0.001 A 
ENDBRANCH  15  16
ENDBRANCH   1  15
BRANCH   1  26
HETATM   26  C           1     -37.061   0.556  -9.898  0.00  0.00     0.197 C 
HETATM   27  O           1     -36.210   0.578  -8.984  0.00  0.00    -0.646 OA
HETATM   28  O           1     -38.055   1.315  -9.845  0.00  0.00    -0.646 OA
ENDBRANCH   1  26
TORSDOF 8
ENDMDL
MODEL 4
REMARK VINA RESULT:      -7.2     13.977     16.799
REMARK  8 active torsions:
REMARK  status: ('A' for Active; 'I' for Inactive)
REMARK    1  A    between atoms: C_4  and  C_21 
REMARK    2  A    between atoms: C_4  and  O_6 
REMARK    3  A    between atoms: N_8  and  C_22 
REMARK       I    between atoms: N_8  and  C_28 
REMARK    4  A    between atoms: C_12  and  C_14 
REMARK    5  A    between atoms: C_14  and  C_22 
REMARK    6  A    between atoms: C_17  and  C_22 
REMARK    7  A    between atoms: C_21  and  C_28 
REMARK    8  A    between atoms: C_21  and  N_26 
ROOT
HETATM    1  C           1     -35.335  -2.071 -11.606  0.00  0.00     0.190 C 
ENDROOT
BRANCH   1   2
HETATM    2  N           1     -34.833  -1.379 -12.776  0.00  0.00    -0.344 N 
HETATM    3  C           1     -35.483  -0.269 -13.246  0.00  0.00     0.251 C 
HETATM    4  O           1     -35.179   0.827 -12.841  0.00  0.00    -0.271 OA
HETATM    5  H           1     -34.002  -1.714 -13.244  0.00  0.00     0.163 HD
BRANCH   3   6
HETATM    6  C           1     -36.580  -0.416 -14.272  0.00  0.00     0.302 C 
BRANCH   6   7
HETATM    7  C           1     -36.145   0.237 -15.578  0.00  0.00     0.153 C 
HETATM    8  C           1     -35.994  -0.831 -16.653  0.00  0.00     0.042 C 
BRANCH   7   9
HETATM    9  O           1     -37.113   1.169 -15.979  0.00  0.00    -0.393 OA
HETATM   10  H           1     -36.960   1.346 -16.892  0.00  0.00     0.210 HD
ENDBRANCH   7   9
ENDBRANCH   6   7
BRANCH   6  11
HETATM   11  N           1     -37.826   0.252 -13.771  0.00  0.00    -0.064 N 
HETATM   12  H           1     -37.730   1.288 -13.873  0.00  0.00     0.275 HD
HETATM   13  H           1     -38.646  -0.079 -14.327  0.00  0.00     0.275 HD
HETATM   14  H           1     -37.970   0.013 -12.764  0.00  0.00     0.275 HD
ENDBRANCH   6  11
ENDBRANCH   3   6
ENDBRANCH   1   2
BRANCH   1  15
HETATM   15  C           1     -34.178  -2.380 -10.664  0.00  0.00     0.077 C 
BRANCH  15  16
HETATM   16  C           1     -33.586  -3.708 -11.020  0.00  0.00    -0.028 A 
HETATM   17  C           1     -34.056  -4.978 -10.587  0.00  0.00    -0.002 A 
HETATM   18  C           1     -33.217  -5.941 -11.149  0.00  0.00     0.042 A 
HETATM   19  C           1     -35.120  -5.403  -9.767  0.00  0.00     0.014 A 
HETATM   20  N           1     -32.275  -5.269 -11.895  0.00  0.00    -0.365 N 
HETATM   21  C           1     -33.390  -7.313 -10.932  0.00  0.00     0.030 A 
HETATM   22  C           1     -32.488  -3.918 -11.823  0.00  0.00     0.096 A 
HETATM   23  H           1     -31.503  -5.727 -12.440  0.00  0.00     0.165 HD
HETATM   24  C           1     -34.453  -7.709 -10.115  0.00  0.00     0.002 A 
HETATM   25  C           1     -35.307  -6.771  -9.540  0.00  0.00     0.001 A 
ENDBRANCH  15  16
ENDBRANCH   1  15
BRANCH   1  26
HETATM   26  C           1     -36.341  -1.196 -10.898  0.00  0.00     0.197 C 
HETATM   27  O           1     -37.555  -1.284 -11.181  0.00  0.00    -0.646 OA
HETATM   28  O           1     -35.959  -0.382 -10.028  0.00  0.00    -0.646 OA
ENDBRANCH   1  26
TORSDOF 8
ENDMDL
MODEL 5
REMARK VINA RESULT:      -7.1      2.373      7.076
REMARK  8 active torsions:
REMARK  status: ('A' for Active; 'I' for Inactive)
REMARK    1  A    between atoms: C_4  and  C_21 
REMARK    2  A    between atoms: C_4  and  O_6 
REMARK    3  A    between atoms: N_8  and  C_22 
REMARK       I    between atoms: N_8  and  C_28 
REMARK    4  A    between atoms: C_12  and  C_14 
REMARK    5  A    between atoms: C_14  and  C_22 
REMARK    6  A    between atoms: C_17  and  C_22 
REMARK    7  A    between atoms: C_21  and  C_28 
REMARK    8  A    between atoms: C_21  and  N_26 
ROOT
HETATM    1  C           1     -20.007  -7.475  -5.316  0.00  0.00     0.190 C 
ENDROOT
BRANCH   1   2
HETATM    2  N           1     -20.063  -7.019  -6.691  0.00  0.00    -0.344 N 
HETATM    3  C           1     -20.092  -5.678  -6.966  0.00  0.00     0.251 C 
HETATM    4  O           1     -19.061  -5.071  -7.125  0.00  0.00    -0.271 OA
HETATM    5  H           1     -20.080  -7.692  -7.446  0.00  0.00     0.163 HD
BRANCH   3   6
HETATM    6  C           1     -21.414  -4.959  -7.072  0.00  0.00     0.302 C 
BRANCH   6   7
HETATM    7  C           1     -21.896  -4.991  -8.517  0.00  0.00     0.153 C 
HETATM    8  C           1     -23.141  -4.125  -8.654  0.00  0.00     0.042 C 
BRANCH   7   9
HETATM    9  O           1     -20.889  -4.497  -9.356  0.00  0.00    -0.393 OA
HETATM   10  H           1     -21.288  -4.327 -10.193  0.00  0.00     0.210 HD
ENDBRANCH   7   9
ENDBRANCH   6   7
BRANCH   6  11
HETATM   11  N           1     -21.244  -3.534  -6.634  0.00  0.00    -0.064 N 
HETATM   12  H           1     -20.406  -3.459  -6.014  0.00  0.00     0.275 HD
HETATM   13  H           1     -21.114  -2.925  -7.473  0.00  0.00     0.275 HD
HETATM   14  H           1     -22.094  -3.226  -6.109  0.00  0.00     0.275 HD
ENDBRANCH   6  11
ENDBRANCH   3   6
ENDBRANCH   1   2
BRANCH   1  15
HETATM   15  C           1     -21.389  -7.944  -4.880  0.00  0.00     0.077 C 
BRANCH  15  16
HETATM   16  C           1     -21.718  -7.355  -3.543  0.00  0.00    -0.028 A 
HETATM   17  C           1     -21.809  -8.064  -2.314  0.00  0.00    -0.002 A 
HETATM   18  C           1     -22.136  -7.135  -1.326  0.00  0.00     0.042 A 
HETATM   19  C           1     -21.645  -9.414  -1.946  0.00  0.00     0.014 A 
HETATM   20  N           1     -22.237  -5.908  -1.943  0.00  0.00    -0.365 N 
HETATM   21  C           1     -22.306  -7.489   0.018  0.00  0.00     0.030 A 
HETATM   22  C           1     -21.986  -6.030  -3.284  0.00  0.00     0.096 A 
HETATM   23  H           1     -22.472  -5.009  -1.455  0.00  0.00     0.165 HD
HETATM   24  C           1     -22.137  -8.835   0.358  0.00  0.00     0.002 A 
HETATM   25  C           1     -21.811  -9.785  -0.607  0.00  0.00     0.001 A 
ENDBRANCH  15  16
ENDBRANCH   1  15
BRANCH   1  26
HETATM   26  C           1     -19.029  -8.619  -5.206  0.00  0.00     0.197 C 
HETATM   27  O           1     -18.546  -9.131  -6.239  0.00  0.00    -0.646 OA
HETATM   28  O           1     -18.702  -9.056  -4.080  0.00  0.00    -0.646 OA
ENDBRANCH   1  26
TORSDOF 8
ENDMDL
MODEL 6
REMARK VINA RESULT:      -7.1      1.926      2.833
REMARK  8 active torsions:
REMARK  status: ('A' for Active; 'I' for Inactive)
REMARK    1  A    between atoms: C_4  and  C_21 
REMARK    2  A    between atoms: C_4  and  O_6 
REMARK    3  A    between atoms: N_8  and  C_22 
REMARK       I    between atoms: N_8  and  C_28 
REMARK    4  A    between atoms: C_12  and  C_14 
REMARK    5  A    between atoms: C_14  and  C_22 
REMARK    6  A    between atoms: C_17  and  C_22 
REMARK    7  A    between atoms: C_21  and  C_28 
REMARK    8  A    between atoms: C_21  and  N_26 
ROOT
HETATM    1  C           1     -21.520  -5.503  -6.854  0.00  0.00     0.190 C 
ENDROOT
BRANCH   1   2
HETATM    2  N           1     -22.270  -5.768  -5.642  0.00  0.00    -0.344 N 
HETATM    3  C           1     -21.714  -6.522  -4.644  0.00  0.00     0.251 C 
HETATM    4  O           1     -21.073  -5.990  -3.770  0.00  0.00    -0.271 OA
HETATM    5  H           1     -23.204  -5.395  -5.534  0.00  0.00     0.163 HD
BRANCH   3   6
HETATM    6  C           1     -21.902  -8.019  -4.636  0.00  0.00     0.302 C 
BRANCH   6   7
HETATM    7  C           1     -21.434  -8.584  -3.301  0.00  0.00     0.153 C 
HETATM    8  C           1     -21.901 -10.027  -3.170  0.00  0.00     0.042 C 
BRANCH   7   9
HETATM    9  O           1     -20.035  -8.538  -3.239  0.00  0.00    -0.393 OA
HETATM   10  H           1     -19.720  -9.377  -3.531  0.00  0.00     0.210 HD
ENDBRANCH   7   9
ENDBRANCH   6   7
BRANCH   6  11
HETATM   11  N           1     -21.097  -8.630  -5.745  0.00  0.00    -0.064 N 
HETATM   12  H           1     -20.737  -7.873  -6.370  0.00  0.00     0.275 HD
HETATM   13  H           1     -20.294  -9.161  -5.340  0.00  0.00     0.275 HD
HETATM   14  H           1     -21.701  -9.279  -6.299  0.00  0.00     0.275 HD
ENDBRANCH   6  11
ENDBRANCH   3   6
ENDBRANCH   1   2
BRANCH   1  15
HETATM   15  C           1     -21.870  -4.114  -7.373  0.00  0.00     0.077 C 
BRANCH  15  16
HETATM   16  C           1     -21.568  -4.037  -8.838  0.00  0.00    -0.028 A 
HETATM   17  C           1     -22.504  -3.767  -9.873  0.00  0.00    -0.002 A 
HETATM   18  C           1     -21.801  -3.790 -11.079  0.00  0.00     0.042 A 
HETATM   19  C           1     -23.887  -3.503  -9.900  0.00  0.00     0.014 A 
HETATM   20  N           1     -20.487  -4.066 -10.775  0.00  0.00    -0.365 N 
HETATM   21  C           1     -22.416  -3.561 -12.315  0.00  0.00     0.030 A 
HETATM   22  C           1     -20.335  -4.218  -9.422  0.00  0.00     0.096 A 
HETATM   23  H           1     -19.713  -4.147 -11.480  0.00  0.00     0.165 HD
HETATM   24  C           1     -23.790  -3.301 -12.316  0.00  0.00     0.002 A 
HETATM   25  C           1     -24.517  -3.272 -11.129  0.00  0.00     0.001 A 
ENDBRANCH  15  16
ENDBRANCH   1  15
BRANCH   1  26
HETATM   26  C           1     -20.042  -5.571  -6.554  0.00  0.00     0.197 C 
HETATM   27  O           1     -19.468  -4.601  -6.015  0.00  0.00    -0.646 OA
HETATM   28  O           1     -19.392  -6.598  -6.847  0.00  0.00    -0.646 OA
ENDBRANCH   1  26
TORSDOF 8
ENDMDL
MODEL 7
REMARK VINA RESULT:      -7.0      2.544      7.621
REMARK  8 active torsions:
REMARK  status: ('A' for Active; 'I' for Inactive)
REMARK    1  A    between atoms: C_4  and  C_21 
REMARK    2  A    between atoms: C_4  and  O_6 
REMARK    3  A    between atoms: N_8  and  C_22 
REMARK       I    between atoms: N_8  and  C_28 
REMARK    4  A    between atoms: C_12  and  C_14 
REMARK    5  A    between atoms: C_14  and  C_22 
REMARK    6  A    between atoms: C_17  and  C_22 
REMARK    7  A    between atoms: C_21  and  C_28 
REMARK    8  A    between atoms: C_21  and  N_26 
ROOT
HETATM    1  C           1     -21.204  -7.602  -5.133  0.00  0.00     0.190 C 
ENDROOT
BRANCH   1   2
HETATM    2  N           1     -20.209  -6.969  -5.975  0.00  0.00    -0.344 N 
HETATM    3  C           1     -20.385  -5.675  -6.389  0.00  0.00     0.251 C 
HETATM    4  O           1     -19.961  -4.764  -5.721  0.00  0.00    -0.271 OA
HETATM    5  H           1     -19.383  -7.481  -6.256  0.00  0.00     0.163 HD
BRANCH   3   6
HETATM    6  C           1     -21.109  -5.390  -7.681  0.00  0.00     0.302 C 
BRANCH   6   7
HETATM    7  C           1     -20.131  -4.808  -8.695  0.00  0.00     0.153 C 
HETATM    8  C           1     -20.885  -4.417  -9.959  0.00  0.00     0.042 C 
BRANCH   7   9
HETATM    9  O           1     -19.513  -3.675  -8.150  0.00  0.00    -0.393 OA
HETATM   10  H           1     -19.893  -3.538  -7.298  0.00  0.00     0.210 HD
ENDBRANCH   7   9
ENDBRANCH   6   7
BRANCH   6  11
HETATM   11  N           1     -22.211  -4.403  -7.429  0.00  0.00    -0.064 N 
HETATM   12  H           1     -23.135  -4.888  -7.501  0.00  0.00     0.275 HD
HETATM   13  H           1     -22.103  -3.998  -6.472  0.00  0.00     0.275 HD
HETATM   14  H           1     -22.164  -3.638  -8.139  0.00  0.00     0.275 HD
ENDBRANCH   6  11
ENDBRANCH   3   6
ENDBRANCH   1   2
BRANCH   1  15
HETATM   15  C           1     -20.508  -8.432  -4.062  0.00  0.00     0.077 C 
BRANCH  15  16
HETATM   16  C           1     -21.398  -9.565  -3.652  0.00  0.00    -0.028 A 
HETATM   17  C           1     -22.055  -9.703  -2.399  0.00  0.00    -0.002 A 
HETATM   18  C           1     -22.775 -10.898  -2.442  0.00  0.00     0.042 A 
HETATM   19  C           1     -22.106  -8.923  -1.227  0.00  0.00     0.014 A 
HETATM   20  N           1     -22.556 -11.457  -3.681  0.00  0.00    -0.365 N 
HETATM   21  C           1     -23.548 -11.353  -1.367  0.00  0.00     0.030 A 
HETATM   22  C           1     -21.724 -10.659  -4.421  0.00  0.00     0.096 A 
HETATM   23  H           1     -22.968 -12.365  -4.011  0.00  0.00     0.165 HD
HETATM   24  C           1     -23.583 -10.561  -0.215  0.00  0.00     0.002 A 
HETATM   25  C           1     -22.875  -9.364  -0.143  0.00  0.00     0.001 A 
ENDBRANCH  15  16
ENDBRANCH   1  15
BRANCH   1  26
HETATM   26  C           1     -22.054  -6.542  -4.476  0.00  0.00     0.197 C 
HETATM   27  O           1     -21.697  -6.041  -3.388  0.00  0.00    -0.646 OA
HETATM   28  O           1     -23.115  -6.165  -5.020  0.00  0.00    -0.646 OA
ENDBRANCH   1  26
TORSDOF 8
ENDMDL
MODEL 8
REMARK VINA RESULT:      -6.9      2.306      6.942
REMARK  8 active torsions:
REMARK  status: ('A' for Active; 'I' for Inactive)
REMARK    1  A    between atoms: C_4  and  C_21 
REMARK    2  A    between atoms: C_4  and  O_6 
REMARK    3  A    between atoms: N_8  and  C_22 
REMARK       I    between atoms: N_8  and  C_28 
REMARK    4  A    between atoms: C_12  and  C_14 
REMARK    5  A    between atoms: C_14  and  C_22 
REMARK    6  A    between atoms: C_17  and  C_22 
REMARK    7  A    between atoms: C_21  and  C_28 
REMARK    8  A    between atoms: C_21  and  N_26 
ROOT
HETATM    1  C           1     -19.823  -7.961  -5.184  0.00  0.00     0.190 C 
ENDROOT
BRANCH   1   2
HETATM    2  N           1     -19.723  -7.102  -6.347  0.00  0.00    -0.344 N 
HETATM    3  C           1     -20.286  -5.854  -6.326  0.00  0.00     0.251 C 
HETATM    4  O           1     -19.641  -4.906  -5.946  0.00  0.00    -0.271 OA
HETATM    5  H           1     -19.236  -7.424  -7.173  0.00  0.00     0.163 HD
BRANCH   3   6
HETATM    6  C           1     -21.712  -5.663  -6.778  0.00  0.00     0.302 C 
BRANCH   6   7
HETATM    7  C           1     -21.827  -4.361  -7.562  0.00  0.00     0.153 C 
HETATM    8  C           1     -21.313  -4.577  -8.979  0.00  0.00     0.042 C 
BRANCH   7   9
HETATM    9  O           1     -23.169  -3.960  -7.608  0.00  0.00    -0.393 OA
HETATM   10  H           1     -23.640  -4.508  -7.002  0.00  0.00     0.210 HD
ENDBRANCH   7   9
ENDBRANCH   6   7
BRANCH   6  11
HETATM   11  N           1     -22.612  -5.603  -5.579  0.00  0.00    -0.064 N 
HETATM   12  H           1     -22.988  -6.558  -5.380  0.00  0.00     0.275 HD
HETATM   13  H           1     -22.071  -5.261  -4.754  0.00  0.00     0.275 HD
HETATM   14  H           1     -23.406  -4.951  -5.770  0.00  0.00     0.275 HD
ENDBRANCH   6  11
ENDBRANCH   3   6
ENDBRANCH   1   2
BRANCH   1  15
HETATM   15  C           1     -21.155  -8.701  -5.213  0.00  0.00     0.077 C 
BRANCH  15  16
HETATM   16  C           1     -21.462  -9.231  -3.847  0.00  0.00    -0.028 A 
HETATM   17  C           1     -21.765  -8.453  -2.696  0.00  0.00    -0.002 A 
HETATM   18  C           1     -21.984  -9.344  -1.644  0.00  0.00     0.042 A 
HETATM   19  C           1     -21.875  -7.071  -2.446  0.00  0.00     0.014 A 
HETATM   20  N           1     -21.816 -10.614  -2.149  0.00  0.00    -0.365 N 
HETATM   21  C           1     -22.308  -8.921  -0.350  0.00  0.00     0.030 A 
HETATM   22  C           1     -21.500 -10.557  -3.481  0.00  0.00     0.096 A 
HETATM   23  H           1     -21.917 -11.499  -1.593  0.00  0.00     0.165 HD
HETATM   24  C           1     -22.412  -7.543  -0.128  0.00  0.00     0.002 A 
HETATM   25  C           1     -22.199  -6.631  -1.158  0.00  0.00     0.001 A 
ENDBRANCH  15  16
ENDBRANCH   1  15
BRANCH   1  26
HETATM   26  C           1     -18.692  -8.960  -5.199  0.00  0.00     0.197 C 
HETATM   27  O           1     -18.131  -9.285  -4.130  0.00  0.00    -0.646 OA
HETATM   28  O           1     -18.315  -9.463  -6.280  0.00  0.00    -0.646 OA
ENDBRANCH   1  26
TORSDOF 8
ENDMDL
MODEL 9
REMARK VINA RESULT:      -6.9      4.350      8.200
REMARK  8 active torsions:
REMARK  status: ('A' for Active; 'I' for Inactive)
REMARK    1  A    between atoms: C_4  and  C_21 
REMARK    2  A    between atoms: C_4  and  O_6 
REMARK    3  A    between atoms: N_8  and  C_22 
REMARK       I    between atoms: N_8  and  C_28 
REMARK    4  A    between atoms: C_12  and  C_14 
REMARK    5  A    between atoms: C_14  and  C_22 
REMARK    6  A    between atoms: C_17  and  C_22 
REMARK    7  A    between atoms: C_21  and  C_28 
REMARK    8  A    between atoms: C_21  and  N_26 
ROOT
HETATM    1  C           1     -21.208  -7.820  -2.987  0.00  0.00     0.190 C 
ENDROOT
BRANCH   1   2
HETATM    2  N           1     -20.288  -7.970  -4.096  0.00  0.00    -0.344 N 
HETATM    3  C           1     -20.642  -8.729  -5.181  0.00  0.00     0.251 C 
HETATM    4  O           1     -21.212  -8.219  -6.115  0.00  0.00    -0.271 OA
HETATM    5  H           1     -19.387  -7.514  -4.071  0.00  0.00     0.163 HD
BRANCH   3   6
HETATM    6  C           1     -20.319 -10.202  -5.207  0.00  0.00     0.302 C 
BRANCH   6   7
HETATM    7  C           1     -18.837 -10.392  -5.506  0.00  0.00     0.153 C 
HETATM    8  C           1     -18.657 -11.587  -6.433  0.00  0.00     0.042 C 
BRANCH   7   9
HETATM    9  O           1     -18.334  -9.240  -6.126  0.00  0.00    -0.393 OA
HETATM   10  H           1     -18.332  -8.558  -5.476  0.00  0.00     0.210 HD
ENDBRANCH   7   9
ENDBRANCH   6   7
BRANCH   6  11
HETATM   11  N           1     -21.133 -10.873  -6.273  0.00  0.00    -0.064 N 
HETATM   12  H           1     -21.648 -10.150  -6.824  0.00  0.00     0.275 HD
HETATM   13  H           1     -20.500 -11.411  -6.908  0.00  0.00     0.275 HD
HETATM   14  H           1     -21.819 -11.526  -5.831  0.00  0.00     0.275 HD
ENDBRANCH   6  11
ENDBRANCH   3   6
ENDBRANCH   1   2
BRANCH   1  15
HETATM   15  C           1     -20.480  -8.114  -1.681  0.00  0.00     0.077 C 
BRANCH  15  16
HETATM   16  C           1     -20.620  -9.567  -1.346  0.00  0.00    -0.028 A 
HETATM   17  C           1     -21.783 -10.198  -0.826  0.00  0.00    -0.002 A 
HETATM   18  C           1     -21.478 -11.550  -0.662  0.00  0.00     0.042 A 
HETATM   19  C           1     -23.071  -9.747  -0.476  0.00  0.00     0.014 A 
HETATM   20  N           1     -20.174 -11.722  -1.071  0.00  0.00    -0.365 N 
HETATM   21  C           1     -22.400 -12.478  -0.165  0.00  0.00     0.030 A 
HETATM   22  C           1     -19.646 -10.529  -1.487  0.00  0.00     0.096 A 
HETATM   23  H           1     -19.660 -12.638  -1.065  0.00  0.00     0.165 HD
HETATM   24  C           1     -23.673 -12.006   0.175  0.00  0.00     0.002 A 
HETATM   25  C           1     -24.005 -10.662   0.022  0.00  0.00     0.001 A 
ENDBRANCH  15  16
ENDBRANCH   1  15
BRANCH   1  26
HETATM   26  C           1     -21.739  -6.408  -2.961  0.00  0.00     0.197 C 
HETATM   27  O           1     -22.536  -6.055  -2.065  0.00  0.00    -0.646 OA
HETATM   28  O           1     -21.381  -5.589  -3.836  0.00  0.00    -0.646 OA
ENDBRANCH   1  26
TORSDOF 8
ENDMDL
