MODEL 1
REMARK VINA RESULT:      -6.2      0.000      0.000
REMARK  9 active torsions:
REMARK  status: ('A' for Active; 'I' for Inactive)
REMARK       I    between atoms: C_2  and  N_3 
REMARK    1  A    between atoms: C_2  and  C_14 
REMARK    2  A    between atoms: N_3  and  C_7 
REMARK    3  A    between atoms: C_6  and  C_7 
REMARK    4  A    between atoms: C_7  and  C_8 
REMARK    5  A    between atoms: C_8  and  S_19 
REMARK    6  A    between atoms: C_9  and  C_14 
REMARK    7  A    between atoms: C_9  and  C_21 
REMARK    8  A    between atoms: C_14  and  N_18 
REMARK       I    between atoms: N_16  and  C_22 
REMARK    9  A    between atoms: C_21  and  C_22 
ROOT
HETATM    1  C           1     -33.637  -2.190 -11.487  0.00  0.00     0.275 C 
ENDROOT
BRANCH   1   2
HETATM    2  C           1     -34.576  -2.005 -12.654  0.00  0.00     0.249 C 
HETATM    3  N           1     -35.291  -0.844 -12.781  0.00  0.00    -0.344 N 
HETATM    4  H           1     -35.188  -0.109 -12.092  0.00  0.00     0.163 HD
HETATM    5  O           1     -34.697  -2.882 -13.476  0.00  0.00    -0.271 OA
BRANCH   3   6
HETATM    6  C           1     -36.193  -0.667 -13.903  0.00  0.00     0.194 C 
BRANCH   6   7
HETATM    7  C           1     -35.577   0.285 -14.898  0.00  0.00     0.197 C 
HETATM    8  O           1     -34.385   0.640 -14.767  0.00  0.00    -0.646 OA
HETATM    9  O           1     -36.258   0.718 -15.853  0.00  0.00    -0.646 OA
ENDBRANCH   6   7
BRANCH   6  10
HETATM   10  C           1     -37.514  -0.097 -13.404  0.00  0.00     0.106 C 
BRANCH  10  11
HETATM   11  S           1     -37.568  -0.188 -11.592  0.00  0.00    -0.180 SA
HETATM   12  H           1     -37.899   1.101 -11.396  0.00  0.00     0.101 HD
ENDBRANCH  10  11
ENDBRANCH   6  10
ENDBRANCH   3   6
ENDBRANCH   1   2
BRANCH   1  13
HETATM   13  C           1     -33.127  -3.624 -11.467  0.00  0.00     0.052 C 
BRANCH  13  14
HETATM   14  C           1     -33.986  -4.456 -10.523  0.00  0.00     0.105 C 
BRANCH  14  15
HETATM   15  C           1     -34.345  -5.762 -11.188  0.00  0.00     0.215 C 
HETATM   16  N           1     -34.771  -5.773 -12.489  0.00  0.00    -0.370 N 
HETATM   17  H           1     -34.846  -4.905 -13.004  0.00  0.00     0.159 HD
HETATM   18  H           1     -35.011  -6.648 -12.935  0.00  0.00     0.159 HD
HETATM   19  O           1     -34.255  -6.798 -10.573  0.00  0.00    -0.274 OA
ENDBRANCH  14  15
ENDBRANCH  13  14
ENDBRANCH   1  13
BRANCH   1  20
HETATM   20  N           1     -34.367  -1.900 -10.209  0.00  0.00    -0.066 N 
HETATM   21  H           1     -33.788  -2.215  -9.398  0.00  0.00     0.275 HD
HETATM   22  H           1     -34.543  -0.873 -10.133  0.00  0.00     0.275 HD
HETATM   23  H           1     -35.278  -2.413 -10.205  0.00  0.00     0.275 HD
ENDBRANCH   1  20
TORSDOF 9
ENDMDL
MODEL 2
REMARK VINA RESULT:      -5.8     12.172     14.316
REMARK  9 active torsions:
REMARK  status: ('A' for Active; 'I' for Inactive)
REMARK       I    between atoms: C_2  and  N_3 
REMARK    1  A    between atoms: C_2  and  C_14 
REMARK    2  A    between atoms: N_3  and  C_7 
REMARK    3  A    between atoms: C_6  and  C_7 
REMARK    4  A    between atoms: C_7  and  C_8 
REMARK    5  A    between atoms: C_8  and  S_19 
REMARK    6  A    between atoms: C_9  and  C_14 
REMARK    7  A    between atoms: C_9  and  C_21 
REMARK    8  A    between atoms: C_14  and  N_18 
REMARK       I    between atoms: N_16  and  C_22 
REMARK    9  A    between atoms: C_21  and  C_22 
ROOT
HETATM    1  C           1     -24.063  -4.178 -10.542  0.00  0.00     0.275 C 
ENDROOT
BRANCH   1   2
HETATM    2  C           1     -22.742  -4.561  -9.920  0.00  0.00     0.249 C 
HETATM    3  N           1     -22.651  -4.748  -8.566  0.00  0.00    -0.344 N 
HETATM    4  H           1     -23.470  -4.629  -7.983  0.00  0.00     0.163 HD
HETATM    5  O           1     -21.766  -4.705 -10.617  0.00  0.00    -0.271 OA
BRANCH   3   6
HETATM    6  C           1     -21.382  -5.116  -7.970  0.00  0.00     0.194 C 
BRANCH   6   7
HETATM    7  C           1     -21.630  -5.938  -6.729  0.00  0.00     0.197 C 
HETATM    8  O           1     -22.396  -5.509  -5.839  0.00  0.00    -0.646 OA
HETATM    9  O           1     -21.068  -7.046  -6.591  0.00  0.00    -0.646 OA
ENDBRANCH   6   7
BRANCH   6  10
HETATM   10  C           1     -20.612  -3.855  -7.599  0.00  0.00     0.106 C 
BRANCH  10  11
HETATM   11  S           1     -18.847  -4.248  -7.440  0.00  0.00    -0.180 SA
HETATM   12  H           1     -18.966  -4.973  -6.313  0.00  0.00     0.101 HD
ENDBRANCH  10  11
ENDBRANCH   6  10
ENDBRANCH   3   6
ENDBRANCH   1   2
BRANCH   1  13
HETATM   13  C           1     -23.896  -2.891 -11.339  0.00  0.00     0.052 C 
BRANCH  13  14
HETATM   14  C           1     -24.459  -3.085 -12.741  0.00  0.00     0.105 C 
BRANCH  14  15
HETATM   15  C           1     -23.332  -3.062 -13.744  0.00  0.00     0.215 C 
HETATM   16  N           1     -22.057  -3.364 -13.348  0.00  0.00    -0.370 N 
HETATM   17  H           1     -21.871  -3.602 -12.382  0.00  0.00     0.159 HD
HETATM   18  H           1     -21.301  -3.349 -14.020  0.00  0.00     0.159 HD
HETATM   19  O           1     -23.555  -2.779 -14.897  0.00  0.00    -0.274 OA
ENDBRANCH  14  15
ENDBRANCH  13  14
ENDBRANCH   1  13
BRANCH   1  20
HETATM   20  N           1     -25.081  -3.968  -9.460  0.00  0.00    -0.066 N 
HETATM   21  H           1     -24.675  -4.252  -8.540  0.00  0.00     0.275 HD
HETATM   22  H           1     -25.349  -2.958  -9.425  0.00  0.00     0.275 HD
HETATM   23  H           1     -25.927  -4.547  -9.661  0.00  0.00     0.275 HD
ENDBRANCH   1  20
TORSDOF 9
ENDMDL
MODEL 3
REMARK VINA RESULT:      -5.8      1.762      2.022
REMARK  9 active torsions:
REMARK  status: ('A' for Active; 'I' for Inactive)
REMARK       I    between atoms: C_2  and  N_3 
REMARK    1  A    between atoms: C_2  and  C_14 
REMARK    2  A    between atoms: N_3  and  C_7 
REMARK    3  A    between atoms: C_6  and  C_7 
REMARK    4  A    between atoms: C_7  and  C_8 
REMARK    5  A    between atoms: C_8  and  S_19 
REMARK    6  A    between atoms: C_9  and  C_14 
REMARK    7  A    between atoms: C_9  and  C_21 
REMARK    8  A    between atoms: C_14  and  N_18 
REMARK       I    between atoms: N_16  and  C_22 
REMARK    9  A    between atoms: C_21  and  C_22 
ROOT
HETATM    1  C           1     -34.365  -2.376 -11.937  0.00  0.00     0.275 C 
ENDROOT
BRANCH   1   2
HETATM    2  C           1     -35.339  -1.665 -12.844  0.00  0.00     0.249 C 
HETATM    3  N           1     -34.928  -1.207 -14.067  0.00  0.00    -0.344 N 
HETATM    4  H           1     -33.969  -1.347 -14.363  0.00  0.00     0.163 HD
HETATM    5  O           1     -36.482  -1.499 -12.491  0.00  0.00    -0.271 OA
BRANCH   3   6
HETATM    6  C           1     -35.864  -0.523 -14.938  0.00  0.00     0.194 C 
BRANCH   6   7
HETATM    7  C           1     -35.767  -1.097 -16.330  0.00  0.00     0.197 C 
HETATM    8  O           1     -36.642  -0.826 -17.180  0.00  0.00    -0.646 OA
HETATM    9  O           1     -34.810  -1.844 -16.632  0.00  0.00    -0.646 OA
ENDBRANCH   6   7
BRANCH   6  10
HETATM   10  C           1     -35.528   0.962 -14.975  0.00  0.00     0.106 C 
BRANCH  10  11
HETATM   11  S           1     -34.499   1.386 -13.542  0.00  0.00    -0.180 SA
HETATM   12  H           1     -33.796   2.356 -14.154  0.00  0.00     0.101 HD
ENDBRANCH  10  11
ENDBRANCH   6  10
ENDBRANCH   3   6
ENDBRANCH   1   2
BRANCH   1  13
HETATM   13  C           1     -35.085  -3.495 -11.195  0.00  0.00     0.052 C 
BRANCH  13  14
HETATM   14  C           1     -34.063  -4.489 -10.659  0.00  0.00     0.105 C 
BRANCH  14  15
HETATM   15  C           1     -34.357  -5.861 -11.213  0.00  0.00     0.215 C 
HETATM   16  N           1     -34.833  -5.996 -12.490  0.00  0.00    -0.370 N 
HETATM   17  H           1     -34.988  -5.175 -13.061  0.00  0.00     0.159 HD
HETATM   18  H           1     -35.030  -6.916 -12.862  0.00  0.00     0.159 HD
HETATM   19  O           1     -34.171  -6.841 -10.531  0.00  0.00    -0.274 OA
ENDBRANCH  14  15
ENDBRANCH  13  14
ENDBRANCH   1  13
BRANCH   1  20
HETATM   20  N           1     -33.801  -1.401 -10.947  0.00  0.00    -0.066 N 
HETATM   21  H           1     -32.786  -1.252 -11.144  0.00  0.00     0.275 HD
HETATM   22  H           1     -34.308  -0.490 -11.027  0.00  0.00     0.275 HD
HETATM   23  H           1     -33.916  -1.781  -9.980  0.00  0.00     0.275 HD
ENDBRANCH   1  20
TORSDOF 9
ENDMDL
MODEL 4
REMARK VINA RESULT:      -5.5     12.404     14.335
REMARK  9 active torsions:
REMARK  status: ('A' for Active; 'I' for Inactive)
REMARK       I    between atoms: C_2  and  N_3 
REMARK    1  A    between atoms: C_2  and  C_14 
REMARK    2  A    between atoms: N_3  and  C_7 
REMARK    3  A    between atoms: C_6  and  C_7 
REMARK    4  A    between atoms: C_7  and  C_8 
REMARK    5  A    between atoms: C_8  and  S_19 
REMARK    6  A    between atoms: C_9  and  C_14 
REMARK    7  A    between atoms: C_9  and  C_21 
REMARK    8  A    between atoms: C_14  and  N_18 
REMARK       I    between atoms: N_16  and  C_22 
REMARK    9  A    between atoms: C_21  and  C_22 
ROOT
HETATM    1  C           1     -24.155  -4.720  -9.960  0.00  0.00     0.275 C 
ENDROOT
BRANCH   1   2
HETATM    2  C           1     -23.272  -4.567  -8.746  0.00  0.00     0.249 C 
HETATM    3  N           1     -21.960  -4.954  -8.799  0.00  0.00    -0.344 N 
HETATM    4  H           1     -21.582  -5.343  -9.654  0.00  0.00     0.163 HD
HETATM    5  O           1     -23.723  -4.102  -7.726  0.00  0.00    -0.271 OA
BRANCH   3   6
HETATM    6  C           1     -21.113  -4.807  -7.632  0.00  0.00     0.194 C 
BRANCH   6   7
HETATM    7  C           1     -19.761  -4.286  -8.055  0.00  0.00     0.197 C 
HETATM    8  O           1     -19.634  -3.694  -9.149  0.00  0.00    -0.646 OA
HETATM    9  O           1     -18.769  -4.447  -7.312  0.00  0.00    -0.646 OA
ENDBRANCH   6   7
BRANCH   6  10
HETATM   10  C           1     -20.946  -6.160  -6.953  0.00  0.00     0.106 C 
BRANCH  10  11
HETATM   11  S           1     -21.420  -6.023  -5.206  0.00  0.00    -0.180 SA
HETATM   12  H           1     -22.619  -6.617  -5.338  0.00  0.00     0.101 HD
ENDBRANCH  10  11
ENDBRANCH   6  10
ENDBRANCH   3   6
ENDBRANCH   1   2
BRANCH   1  13
HETATM   13  C           1     -23.302  -4.656 -11.221  0.00  0.00     0.052 C 
BRANCH  13  14
HETATM   14  C           1     -23.040  -3.200 -11.583  0.00  0.00     0.105 C 
BRANCH  14  15
HETATM   15  C           1     -23.504  -2.941 -12.995  0.00  0.00     0.215 C 
HETATM   16  N           1     -22.617  -3.026 -14.034  0.00  0.00    -0.370 N 
HETATM   17  H           1     -21.650  -3.262 -13.854  0.00  0.00     0.159 HD
HETATM   18  H           1     -22.928  -2.853 -14.980  0.00  0.00     0.159 HD
HETATM   19  O           1     -24.660  -2.660 -13.209  0.00  0.00    -0.274 OA
ENDBRANCH  14  15
ENDBRANCH  13  14
ENDBRANCH   1  13
BRANCH   1  20
HETATM   20  N           1     -25.167  -3.613  -9.984  0.00  0.00    -0.066 N 
HETATM   21  H           1     -25.189  -3.142  -9.052  0.00  0.00     0.275 HD
HETATM   22  H           1     -24.906  -2.918 -10.720  0.00  0.00     0.275 HD
HETATM   23  H           1     -26.110  -4.009 -10.196  0.00  0.00     0.275 HD
ENDBRANCH   1  20
TORSDOF 9
ENDMDL
MODEL 5
REMARK VINA RESULT:      -5.5     13.166     14.608
REMARK  9 active torsions:
REMARK  status: ('A' for Active; 'I' for Inactive)
REMARK       I    between atoms: C_2  and  N_3 
REMARK    1  A    between atoms: C_2  and  C_14 
REMARK    2  A    between atoms: N_3  and  C_7 
REMARK    3  A    between atoms: C_6  and  C_7 
REMARK    4  A    between atoms: C_7  and  C_8 
REMARK    5  A    between atoms: C_8  and  S_19 
REMARK    6  A    between atoms: C_9  and  C_14 
REMARK    7  A    between atoms: C_9  and  C_21 
REMARK    8  A    between atoms: C_14  and  N_18 
REMARK       I    between atoms: N_16  and  C_22 
REMARK    9  A    between atoms: C_21  and  C_22 
ROOT
HETATM    1  C           1     -21.211  -5.924  -6.876  0.00  0.00     0.275 C 
ENDROOT
BRANCH   1   2
HETATM    2  C           1     -21.743  -4.708  -7.595  0.00  0.00     0.249 C 
HETATM    3  N           1     -22.284  -4.834  -8.846  0.00  0.00    -0.344 N 
HETATM    4  H           1     -22.326  -5.743  -9.290  0.00  0.00     0.163 HD
HETATM    5  O           1     -21.693  -3.624  -7.064  0.00  0.00    -0.271 OA
BRANCH   3   6
HETATM    6  C           1     -22.795  -3.665  -9.536  0.00  0.00     0.194 C 
BRANCH   6   7
HETATM    7  C           1     -24.293  -3.782  -9.678  0.00  0.00     0.197 C 
HETATM    8  O           1     -25.013  -2.768  -9.556  0.00  0.00    -0.646 OA
HETATM    9  O           1     -24.813  -4.894  -9.919  0.00  0.00    -0.646 OA
ENDBRANCH   6   7
BRANCH   6  10
HETATM   10  C           1     -22.158  -3.573 -10.916  0.00  0.00     0.106 C 
BRANCH  10  11
HETATM   11  S           1     -20.465  -4.223 -10.846  0.00  0.00    -0.180 SA
HETATM   12  H           1     -19.913  -3.121 -10.307  0.00  0.00     0.101 HD
ENDBRANCH  10  11
ENDBRANCH   6  10
ENDBRANCH   3   6
ENDBRANCH   1   2
BRANCH   1  13
HETATM   13  C           1     -21.265  -5.691  -5.372  0.00  0.00     0.052 C 
BRANCH  13  14
HETATM   14  C           1     -21.444  -7.024  -4.658  0.00  0.00     0.105 C 
BRANCH  14  15
HETATM   15  C           1     -21.612  -6.783  -3.178  0.00  0.00     0.215 C 
HETATM   16  N           1     -20.861  -7.491  -2.279  0.00  0.00    -0.370 N 
HETATM   17  H           1     -20.194  -8.177  -2.607  0.00  0.00     0.159 HD
HETATM   18  H           1     -20.973  -7.329  -1.287  0.00  0.00     0.159 HD
HETATM   19  O           1     -22.409  -5.963  -2.786  0.00  0.00    -0.274 OA
ENDBRANCH  14  15
ENDBRANCH  13  14
ENDBRANCH   1  13
BRANCH   1  20
HETATM   20  N           1     -19.790  -6.167  -7.294  0.00  0.00    -0.066 N 
HETATM   21  H           1     -19.301  -6.723  -6.556  0.00  0.00     0.275 HD
HETATM   22  H           1     -19.778  -6.697  -8.195  0.00  0.00     0.275 HD
HETATM   23  H           1     -19.303  -5.252  -7.420  0.00  0.00     0.275 HD
ENDBRANCH   1  20
TORSDOF 9
ENDMDL
MODEL 6
REMARK VINA RESULT:      -5.4     14.184     16.577
REMARK  9 active torsions:
REMARK  status: ('A' for Active; 'I' for Inactive)
REMARK       I    between atoms: C_2  and  N_3 
REMARK    1  A    between atoms: C_2  and  C_14 
REMARK    2  A    between atoms: N_3  and  C_7 
REMARK    3  A    between atoms: C_6  and  C_7 
REMARK    4  A    between atoms: C_7  and  C_8 
REMARK    5  A    between atoms: C_8  and  S_19 
REMARK    6  A    between atoms: C_9  and  C_14 
REMARK    7  A    between atoms: C_9  and  C_21 
REMARK    8  A    between atoms: C_14  and  N_18 
REMARK       I    between atoms: N_16  and  C_22 
REMARK    9  A    between atoms: C_21  and  C_22 
ROOT
HETATM    1  C           1     -20.479  -4.966  -6.576  0.00  0.00     0.275 C 
ENDROOT
BRANCH   1   2
HETATM    2  C           1     -21.375  -5.773  -5.667  0.00  0.00     0.249 C 
HETATM    3  N           1     -20.832  -6.688  -4.806  0.00  0.00    -0.344 N 
HETATM    4  H           1     -19.828  -6.823  -4.779  0.00  0.00     0.163 HD
HETATM    5  O           1     -22.572  -5.610  -5.700  0.00  0.00    -0.271 OA
BRANCH   3   6
HETATM    6  C           1     -21.693  -7.462  -3.934  0.00  0.00     0.194 C 
BRANCH   6   7
HETATM    7  C           1     -21.632  -6.896  -2.537  0.00  0.00     0.197 C 
HETATM    8  O           1     -20.880  -7.416  -1.684  0.00  0.00    -0.646 OA
HETATM    9  O           1     -22.334  -5.908  -2.232  0.00  0.00    -0.646 OA
ENDBRANCH   6   7
BRANCH   6  10
HETATM   10  C           1     -21.224  -8.912  -3.916  0.00  0.00     0.106 C 
BRANCH  10  11
HETATM   11  S           1     -19.599  -9.032  -4.717  0.00  0.00    -0.180 SA
HETATM   12  H           1     -19.880 -10.130  -5.441  0.00  0.00     0.101 HD
ENDBRANCH  10  11
ENDBRANCH   6  10
ENDBRANCH   3   6
ENDBRANCH   1   2
BRANCH   1  13
HETATM   13  C           1     -21.282  -3.840  -7.213  0.00  0.00     0.052 C 
BRANCH  13  14
HETATM   14  C           1     -21.447  -4.113  -8.702  0.00  0.00     0.105 C 
BRANCH  14  15
HETATM   15  C           1     -22.910  -4.304  -9.020  0.00  0.00     0.215 C 
HETATM   16  N           1     -23.856  -4.055  -8.062  0.00  0.00    -0.370 N 
HETATM   17  H           1     -23.574  -3.744  -7.142  0.00  0.00     0.159 HD
HETATM   18  H           1     -24.837  -4.182  -8.275  0.00  0.00     0.159 HD
HETATM   19  O           1     -23.246  -4.674 -10.120  0.00  0.00    -0.274 OA
ENDBRANCH  14  15
ENDBRANCH  13  14
ENDBRANCH   1  13
BRANCH   1  20
HETATM   20  N           1     -19.927  -5.856  -7.650  0.00  0.00    -0.066 N 
HETATM   21  H           1     -19.540  -6.725  -7.217  0.00  0.00     0.275 HD
HETATM   22  H           1     -20.689  -6.110  -8.318  0.00  0.00     0.275 HD
HETATM   23  H           1     -19.166  -5.354  -8.160  0.00  0.00     0.275 HD
ENDBRANCH   1  20
TORSDOF 9
ENDMDL
MODEL 7
REMARK VINA RESULT:      -5.4      3.178      5.069
REMARK  9 active torsions:
REMARK  status: ('A' for Active; 'I' for Inactive)
REMARK       I    between atoms: C_2  and  N_3 
REMARK    1  A    between atoms: C_2  and  C_14 
REMARK    2  A    between atoms: N_3  and  C_7 
REMARK    3  A    between atoms: C_6  and  C_7 
REMARK    4  A    between atoms: C_7  and  C_8 
REMARK    5  A    between atoms: C_8  and  S_19 
REMARK    6  A    between atoms: C_9  and  C_14 
REMARK    7  A    between atoms: C_9  and  C_21 
REMARK    8  A    between atoms: C_14  and  N_18 
REMARK       I    between atoms: N_16  and  C_22 
REMARK    9  A    between atoms: C_21  and  C_22 
ROOT
HETATM    1  C           1     -36.654   0.005 -15.197  0.00  0.00     0.275 C 
ENDROOT
BRANCH   1   2
HETATM    2  C           1     -36.247   0.203 -13.758  0.00  0.00     0.249 C 
HETATM    3  N           1     -36.998  -0.343 -12.752  0.00  0.00    -0.344 N 
HETATM    4  H           1     -37.827  -0.880 -12.974  0.00  0.00     0.163 HD
HETATM    5  O           1     -35.257   0.843 -13.494  0.00  0.00    -0.271 OA
BRANCH   3   6
HETATM    6  C           1     -36.606  -0.151 -11.369  0.00  0.00     0.194 C 
BRANCH   6   7
HETATM    7  C           1     -35.911  -1.393 -10.868  0.00  0.00     0.197 C 
HETATM    8  O           1     -36.552  -2.459 -10.739  0.00  0.00    -0.646 OA
HETATM    9  O           1     -34.694  -1.356 -10.581  0.00  0.00    -0.646 OA
ENDBRANCH   6   7
BRANCH   6  10
HETATM   10  C           1     -37.844   0.115 -10.524  0.00  0.00     0.106 C 
BRANCH  10  11
HETATM   11  S           1     -37.341   0.647  -8.863  0.00  0.00    -0.180 SA
HETATM   12  H           1     -36.049   0.294  -8.987  0.00  0.00     0.101 HD
ENDBRANCH  10  11
ENDBRANCH   6  10
ENDBRANCH   3   6
ENDBRANCH   1   2
BRANCH   1  13
HETATM   13  C           1     -35.417  -0.265 -16.044  0.00  0.00     0.052 C 
BRANCH  13  14
HETATM   14  C           1     -35.651  -1.500 -16.905  0.00  0.00     0.105 C 
BRANCH  14  15
HETATM   15  C           1     -34.636  -2.560 -16.551  0.00  0.00     0.215 C 
HETATM   16  N           1     -33.697  -2.943 -17.471  0.00  0.00    -0.370 N 
HETATM   17  H           1     -33.685  -2.516 -18.388  0.00  0.00     0.159 HD
HETATM   18  H           1     -33.017  -3.652 -17.233  0.00  0.00     0.159 HD
HETATM   19  O           1     -34.651  -3.068 -15.455  0.00  0.00    -0.274 OA
ENDBRANCH  14  15
ENDBRANCH  13  14
ENDBRANCH   1  13
BRANCH   1  20
HETATM   20  N           1     -37.341   1.242 -15.696  0.00  0.00    -0.066 N 
HETATM   21  H           1     -38.287   1.316 -15.257  0.00  0.00     0.275 HD
HETATM   22  H           1     -36.773   2.082 -15.444  0.00  0.00     0.275 HD
HETATM   23  H           1     -37.443   1.188 -16.735  0.00  0.00     0.275 HD
ENDBRANCH   1  20
TORSDOF 9
ENDMDL
MODEL 8
REMARK VINA RESULT:      -5.2      2.641      5.328
REMARK  9 active torsions:
REMARK  status: ('A' for Active; 'I' for Inactive)
REMARK       I    between atoms: C_2  and  N_3 
REMARK    1  A    between atoms: C_2  and  C_14 
REMARK    2  A    between atoms: N_3  and  C_7 
REMARK    3  A    between atoms: C_6  and  C_7 
REMARK    4  A    between atoms: C_7  and  C_8 
REMARK    5  A    between atoms: C_8  and  S_19 
REMARK    6  A    between atoms: C_9  and  C_14 
REMARK    7  A    between atoms: C_9  and  C_21 
REMARK    8  A    between atoms: C_14  and  N_18 
REMARK       I    between atoms: N_16  and  C_22 
REMARK    9  A    between atoms: C_21  and  C_22 
ROOT
HETATM    1  C           1     -35.858   0.119 -12.480  0.00  0.00     0.275 C 
ENDROOT
BRANCH   1   2
HETATM    2  C           1     -35.244  -1.045 -11.742  0.00  0.00     0.249 C 
HETATM    3  N           1     -34.812  -2.145 -12.435  0.00  0.00    -0.344 N 
HETATM    4  H           1     -34.904  -2.175 -13.443  0.00  0.00     0.163 HD
HETATM    5  O           1     -35.133  -1.007 -10.540  0.00  0.00    -0.271 OA
BRANCH   3   6
HETATM    6  C           1     -34.222  -3.263 -11.725  0.00  0.00     0.194 C 
BRANCH   6   7
HETATM    7  C           1     -33.221  -3.953 -12.618  0.00  0.00     0.197 C 
HETATM    8  O           1     -32.142  -4.368 -12.143  0.00  0.00    -0.646 OA
HETATM    9  O           1     -33.471  -4.110 -13.833  0.00  0.00    -0.646 OA
ENDBRANCH   6   7
BRANCH   6  10
HETATM   10  C           1     -35.317  -4.247 -11.332  0.00  0.00     0.106 C 
BRANCH  10  11
HETATM   11  S           1     -34.568  -5.707 -10.557  0.00  0.00    -0.180 SA
HETATM   12  H           1     -34.165  -6.284 -11.704  0.00  0.00     0.101 HD
ENDBRANCH  10  11
ENDBRANCH   6  10
ENDBRANCH   3   6
ENDBRANCH   1   2
BRANCH   1  13
HETATM   13  C           1     -36.855  -0.399 -13.509  0.00  0.00     0.052 C 
BRANCH  13  14
HETATM   14  C           1     -36.588   0.265 -14.854  0.00  0.00     0.105 C 
BRANCH  14  15
HETATM   15  C           1     -35.996  -0.747 -15.805  0.00  0.00     0.215 C 
HETATM   16  N           1     -36.356  -0.737 -17.125  0.00  0.00    -0.370 N 
HETATM   17  H           1     -37.020  -0.052 -17.463  0.00  0.00     0.159 HD
HETATM   18  H           1     -35.959  -1.414 -17.763  0.00  0.00     0.159 HD
HETATM   19  O           1     -35.202  -1.564 -15.401  0.00  0.00    -0.274 OA
ENDBRANCH  14  15
ENDBRANCH  13  14
ENDBRANCH   1  13
BRANCH   1  20
HETATM   20  N           1     -34.778   0.893 -13.176  0.00  0.00    -0.066 N 
HETATM   21  H           1     -34.742   1.864 -12.791  0.00  0.00     0.275 HD
HETATM   22  H           1     -33.857   0.423 -13.022  0.00  0.00     0.275 HD
HETATM   23  H           1     -34.983   0.933 -14.200  0.00  0.00     0.275 HD
ENDBRANCH   1  20
TORSDOF 9
ENDMDL
MODEL 9
REMARK VINA RESULT:      -5.2     13.053     14.336
REMARK  9 active torsions:
REMARK  status: ('A' for Active; 'I' for Inactive)
REMARK       I    between atoms: C_2  and  N_3 
REMARK    1  A    between atoms: C_2  and  C_14 
REMARK    2  A    between atoms: N_3  and  C_7 
REMARK    3  A    between atoms: C_6  and  C_7 
REMARK    4  A    between atoms: C_7  and  C_8 
REMARK    5  A    between atoms: C_8  and  S_19 
REMARK    6  A    between atoms: C_9  and  C_14 
REMARK    7  A    between atoms: C_9  and  C_21 
REMARK    8  A    between atoms: C_14  and  N_18 
REMARK       I    between atoms: N_16  and  C_22 
REMARK    9  A    between atoms: C_21  and  C_22 
ROOT
HETATM    1  C           1     -20.429  -3.998  -7.554  0.00  0.00     0.275 C 
ENDROOT
BRANCH   1   2
HETATM    2  C           1     -20.741  -4.376  -8.981  0.00  0.00     0.249 C 
HETATM    3  N           1     -21.926  -3.990  -9.549  0.00  0.00    -0.344 N 
HETATM    4  H           1     -22.592  -3.451  -9.011  0.00  0.00     0.163 HD
HETATM    5  O           1     -19.945  -5.020  -9.623  0.00  0.00    -0.271 OA
BRANCH   3   6
HETATM    6  C           1     -22.225  -4.355 -10.920  0.00  0.00     0.194 C 
BRANCH   6   7
HETATM    7  C           1     -21.895  -3.197 -11.830  0.00  0.00     0.197 C 
HETATM    8  O           1     -20.924  -2.454 -11.570  0.00  0.00    -0.646 OA
HETATM    9  O           1     -22.594  -2.981 -12.844  0.00  0.00    -0.646 OA
ENDBRANCH   6   7
BRANCH   6  10
HETATM   10  C           1     -23.705  -4.693 -11.043  0.00  0.00     0.106 C 
BRANCH  10  11
HETATM   11  S           1     -24.664  -3.624  -9.933  0.00  0.00    -0.180 SA
HETATM   12  H           1     -23.606  -3.130  -9.264  0.00  0.00     0.101 HD
ENDBRANCH  10  11
ENDBRANCH   6  10
ENDBRANCH   3   6
ENDBRANCH   1   2
BRANCH   1  13
HETATM   13  C           1     -20.086  -5.251  -6.758  0.00  0.00     0.052 C 
BRANCH  13  14
HETATM   14  C           1     -20.425  -5.029  -5.290  0.00  0.00     0.105 C 
BRANCH  14  15
HETATM   15  C           1     -21.456  -6.041  -4.854  0.00  0.00     0.215 C 
HETATM   16  N           1     -21.111  -7.038  -3.981  0.00  0.00    -0.370 N 
HETATM   17  H           1     -20.164  -7.096  -3.630  0.00  0.00     0.159 HD
HETATM   18  H           1     -21.802  -7.716  -3.688  0.00  0.00     0.159 HD
HETATM   19  O           1     -22.587  -5.971  -5.274  0.00  0.00    -0.274 OA
ENDBRANCH  14  15
ENDBRANCH  13  14
ENDBRANCH   1  13
BRANCH   1  20
HETATM   20  N           1     -21.626  -3.330  -6.942  0.00  0.00    -0.066 N 
HETATM   21  H           1     -22.306  -4.057  -6.625  0.00  0.00     0.275 HD
HETATM   22  H           1     -21.323  -2.755  -6.124  0.00  0.00     0.275 HD
HETATM   23  H           1     -22.082  -2.715  -7.653  0.00  0.00     0.275 HD
ENDBRANCH   1  20
TORSDOF 9
ENDMDL
