MODEL 1
REMARK VINA RESULT:      -8.6      0.000      0.000
REMARK  9 active torsions:
REMARK  status: ('A' for Active; 'I' for Inactive)
REMARK    1  A    between atoms: C_1  and  C_13 
REMARK    2  A    between atoms: C_1  and  C_25 
REMARK    3  A    between atoms: C_1  and  N_28 
REMARK    4  A    between atoms: N_7  and  C_29 
REMARK       I    between atoms: N_7  and  C_13 
REMARK    5  A    between atoms: C_14  and  C_29 
REMARK    6  A    between atoms: C_14  and  C_21 
REMARK    7  A    between atoms: C_17  and  C_29 
REMARK    8  A    between atoms: C_18  and  O_19 
REMARK    9  A    between atoms: C_25  and  C_27 
ROOT
HETATM    1  N           1     -20.025  -7.254  -6.403  0.00  0.00    -0.344 N 
HETATM    2  O           1     -19.201  -5.209  -6.759  0.00  0.00    -0.271 OA
HETATM    3  C           1     -20.172  -5.925  -6.698  0.00  0.00     0.249 C 
HETATM    4  H           1     -19.891  -7.926  -7.148  0.00  0.00     0.163 HD
ENDROOT
BRANCH   3   5
HETATM    5  C           1     -21.548  -5.356  -6.946  0.00  0.00     0.278 C 
BRANCH   5   6
HETATM    6  C           1     -21.422  -3.918  -7.434  0.00  0.00     0.081 C 
BRANCH   6   7
HETATM    7  C           1     -21.562  -3.883  -8.925  0.00  0.00    -0.056 A 
HETATM    8  C           1     -22.825  -3.770  -9.505  0.00  0.00     0.010 A 
HETATM    9  C           1     -22.955  -3.738 -10.893  0.00  0.00     0.037 A 
HETATM   10  C           1     -21.821  -3.819 -11.702  0.00  0.00     0.065 A 
HETATM   11  C           1     -20.557  -3.933 -11.122  0.00  0.00     0.037 A 
HETATM   12  C           1     -20.428  -3.964  -9.733  0.00  0.00     0.010 A 
BRANCH  10  13
HETATM   13  O           1     -21.947  -3.787 -13.050  0.00  0.00    -0.361 OA
HETATM   14  H           1     -21.231  -3.234 -13.406  0.00  0.00     0.217 HD
ENDBRANCH  10  13
ENDBRANCH   6   7
ENDBRANCH   5   6
BRANCH   5  15
HETATM   15  N           1     -22.337  -5.383  -5.672  0.00  0.00    -0.066 N 
HETATM   16  H           1     -22.293  -6.340  -5.254  0.00  0.00     0.275 HD
HETATM   17  H           1     -23.333  -5.138  -5.874  0.00  0.00     0.275 HD
HETATM   18  H           1     -21.937  -4.690  -4.999  0.00  0.00     0.275 HD
ENDBRANCH   5  15
ENDBRANCH   3   5
BRANCH   1  19
HETATM   19  C           1     -20.061  -7.698  -5.023  0.00  0.00     0.189 C 
BRANCH  19  20
HETATM   20  C           1     -21.464  -8.179  -4.681  0.00  0.00     0.074 C 
BRANCH  20  21
HETATM   21  C           1     -21.728  -7.958  -3.224  0.00  0.00    -0.056 A 
HETATM   22  C           1     -21.910  -6.664  -2.737  0.00  0.00     0.007 A 
HETATM   23  C           1     -22.154  -6.458  -1.380  0.00  0.00     0.001 A 
HETATM   24  C           1     -22.218  -7.546  -0.509  0.00  0.00     0.000 A 
HETATM   25  C           1     -22.035  -8.839  -0.996  0.00  0.00     0.001 A 
HETATM   26  C           1     -21.790  -9.046  -2.354  0.00  0.00     0.007 A 
ENDBRANCH  20  21
ENDBRANCH  19  20
BRANCH  19  27
HETATM   27  C           1     -19.081  -8.829  -4.833  0.00  0.00     0.197 C 
HETATM   28  O           1     -18.836  -9.610  -5.780  0.00  0.00    -0.646 OA
HETATM   29  O           1     -18.513  -8.987  -3.731  0.00  0.00    -0.646 OA
ENDBRANCH  19  27
ENDBRANCH   1  19
TORSDOF 9
ENDMDL
MODEL 2
REMARK VINA RESULT:      -8.3      0.986      1.563
REMARK  9 active torsions:
REMARK  status: ('A' for Active; 'I' for Inactive)
REMARK    1  A    between atoms: C_1  and  C_13 
REMARK    2  A    between atoms: C_1  and  C_25 
REMARK    3  A    between atoms: C_1  and  N_28 
REMARK    4  A    between atoms: N_7  and  C_29 
REMARK       I    between atoms: N_7  and  C_13 
REMARK    5  A    between atoms: C_14  and  C_29 
REMARK    6  A    between atoms: C_14  and  C_21 
REMARK    7  A    between atoms: C_17  and  C_29 
REMARK    8  A    between atoms: C_18  and  O_19 
REMARK    9  A    between atoms: C_25  and  C_27 
ROOT
HETATM    1  N           1     -20.664  -8.245  -5.666  0.00  0.00    -0.344 N 
HETATM    2  O           1     -19.353  -6.780  -6.725  0.00  0.00    -0.271 OA
HETATM    3  C           1     -20.446  -7.042  -6.282  0.00  0.00     0.249 C 
HETATM    4  H           1     -20.973  -9.042  -6.208  0.00  0.00     0.163 HD
ENDROOT
BRANCH   3   5
HETATM    5  C           1     -21.571  -6.043  -6.406  0.00  0.00     0.278 C 
BRANCH   5   6
HETATM    6  C           1     -21.008  -4.696  -6.841  0.00  0.00     0.081 C 
BRANCH   6   7
HETATM    7  C           1     -21.203  -4.526  -8.316  0.00  0.00    -0.056 A 
HETATM    8  C           1     -22.489  -4.389  -8.838  0.00  0.00     0.010 A 
HETATM    9  C           1     -22.671  -4.231 -10.212  0.00  0.00     0.037 A 
HETATM   10  C           1     -21.567  -4.212 -11.064  0.00  0.00     0.065 A 
HETATM   11  C           1     -20.280  -4.350 -10.542  0.00  0.00     0.037 A 
HETATM   12  C           1     -20.099  -4.507  -9.167  0.00  0.00     0.010 A 
BRANCH  10  13
HETATM   13  O           1     -21.743  -4.057 -12.398  0.00  0.00    -0.361 OA
HETATM   14  H           1     -22.529  -3.502 -12.535  0.00  0.00     0.217 HD
ENDBRANCH  10  13
ENDBRANCH   6   7
ENDBRANCH   5   6
BRANCH   5  15
HETATM   15  N           1     -22.255  -5.894  -5.080  0.00  0.00    -0.066 N 
HETATM   16  H           1     -22.110  -4.924  -4.720  0.00  0.00     0.275 HD
HETATM   17  H           1     -21.853  -6.580  -4.402  0.00  0.00     0.275 HD
HETATM   18  H           1     -23.278  -6.075  -5.193  0.00  0.00     0.275 HD
ENDBRANCH   5  15
ENDBRANCH   3   5
BRANCH   1  19
HETATM   19  C           1     -20.454  -8.377  -4.237  0.00  0.00     0.189 C 
BRANCH  19  20
HETATM   20  C           1     -21.532  -9.274  -3.646  0.00  0.00     0.074 C 
BRANCH  20  21
HETATM   21  C           1     -21.898  -8.783  -2.280  0.00  0.00    -0.056 A 
HETATM   22  C           1     -22.279  -9.690  -1.291  0.00  0.00     0.007 A 
HETATM   23  C           1     -22.620  -9.232  -0.019  0.00  0.00     0.001 A 
HETATM   24  C           1     -22.581  -7.867   0.265  0.00  0.00     0.000 A 
HETATM   25  C           1     -22.202  -6.960  -0.725  0.00  0.00     0.001 A 
HETATM   26  C           1     -21.860  -7.418  -1.997  0.00  0.00     0.007 A 
ENDBRANCH  20  21
ENDBRANCH  19  20
BRANCH  19  27
HETATM   27  C           1     -19.096  -8.986  -3.984  0.00  0.00     0.197 C 
HETATM   28  O           1     -18.624  -9.000  -2.826  0.00  0.00    -0.646 OA
HETATM   29  O           1     -18.444  -9.475  -4.931  0.00  0.00    -0.646 OA
ENDBRANCH  19  27
ENDBRANCH   1  19
TORSDOF 9
ENDMDL
MODEL 3
REMARK VINA RESULT:      -8.1      1.997      2.678
REMARK  9 active torsions:
REMARK  status: ('A' for Active; 'I' for Inactive)
REMARK    1  A    between atoms: C_1  and  C_13 
REMARK    2  A    between atoms: C_1  and  C_25 
REMARK    3  A    between atoms: C_1  and  N_28 
REMARK    4  A    between atoms: N_7  and  C_29 
REMARK       I    between atoms: N_7  and  C_13 
REMARK    5  A    between atoms: C_14  and  C_29 
REMARK    6  A    between atoms: C_14  and  C_21 
REMARK    7  A    between atoms: C_17  and  C_29 
REMARK    8  A    between atoms: C_18  and  O_19 
REMARK    9  A    between atoms: C_25  and  C_27 
ROOT
HETATM    1  N           1     -20.397  -6.777  -6.840  0.00  0.00    -0.344 N 
HETATM    2  O           1     -19.440  -4.786  -6.516  0.00  0.00    -0.271 OA
HETATM    3  C           1     -20.328  -5.423  -7.031  0.00  0.00     0.249 C 
HETATM    4  H           1     -19.922  -7.403  -7.478  0.00  0.00     0.163 HD
ENDROOT
BRANCH   3   5
HETATM    5  C           1     -21.361  -4.728  -7.884  0.00  0.00     0.278 C 
BRANCH   5   6
HETATM    6  C           1     -20.772  -4.440  -9.260  0.00  0.00     0.081 C 
BRANCH   6   7
HETATM    7  C           1     -21.856  -3.965 -10.177  0.00  0.00    -0.056 A 
HETATM    8  C           1     -21.549  -3.111 -11.236  0.00  0.00     0.010 A 
HETATM    9  C           1     -22.558  -2.669 -12.091  0.00  0.00     0.037 A 
HETATM   10  C           1     -23.875  -3.080 -11.886  0.00  0.00     0.065 A 
HETATM   11  C           1     -24.183  -3.934 -10.826  0.00  0.00     0.037 A 
HETATM   12  C           1     -23.172  -4.377  -9.972  0.00  0.00     0.010 A 
BRANCH  10  13
HETATM   13  O           1     -24.856  -2.651 -12.716  0.00  0.00    -0.361 OA
HETATM   14  H           1     -25.621  -2.397 -12.172  0.00  0.00     0.217 HD
ENDBRANCH  10  13
ENDBRANCH   6   7
ENDBRANCH   5   6
BRANCH   5  15
HETATM   15  N           1     -21.762  -3.439  -7.233  0.00  0.00    -0.066 N 
HETATM   16  H           1     -20.970  -3.081  -6.652  0.00  0.00     0.275 HD
HETATM   17  H           1     -22.594  -3.602  -6.623  0.00  0.00     0.275 HD
HETATM   18  H           1     -22.000  -2.736  -7.968  0.00  0.00     0.275 HD
ENDBRANCH   5  15
ENDBRANCH   3   5
BRANCH   1  19
HETATM   19  C           1     -21.152  -7.314  -5.725  0.00  0.00     0.189 C 
BRANCH  19  20
HETATM   20  C           1     -20.202  -7.996  -4.750  0.00  0.00     0.074 C 
BRANCH  20  21
HETATM   21  C           1     -20.979  -8.899  -3.843  0.00  0.00    -0.056 A 
HETATM   22  C           1     -20.916  -8.722  -2.461  0.00  0.00     0.007 A 
HETATM   23  C           1     -21.639  -9.564  -1.617  0.00  0.00     0.001 A 
HETATM   24  C           1     -22.425 -10.583  -2.153  0.00  0.00     0.000 A 
HETATM   25  C           1     -22.487 -10.761  -3.535  0.00  0.00     0.001 A 
HETATM   26  C           1     -21.764  -9.919  -4.381  0.00  0.00     0.007 A 
ENDBRANCH  20  21
ENDBRANCH  19  20
BRANCH  19  27
HETATM   27  C           1     -21.875  -6.192  -5.021  0.00  0.00     0.197 C 
HETATM   28  O           1     -23.022  -5.858  -5.391  0.00  0.00    -0.646 OA
HETATM   29  O           1     -21.328  -5.596  -4.069  0.00  0.00    -0.646 OA
ENDBRANCH  19  27
ENDBRANCH   1  19
TORSDOF 9
ENDMDL
MODEL 4
REMARK VINA RESULT:      -8.0     13.556     16.910
REMARK  9 active torsions:
REMARK  status: ('A' for Active; 'I' for Inactive)
REMARK    1  A    between atoms: C_1  and  C_13 
REMARK    2  A    between atoms: C_1  and  C_25 
REMARK    3  A    between atoms: C_1  and  N_28 
REMARK    4  A    between atoms: N_7  and  C_29 
REMARK       I    between atoms: N_7  and  C_13 
REMARK    5  A    between atoms: C_14  and  C_29 
REMARK    6  A    between atoms: C_14  and  C_21 
REMARK    7  A    between atoms: C_17  and  C_29 
REMARK    8  A    between atoms: C_18  and  O_19 
REMARK    9  A    between atoms: C_25  and  C_27 
ROOT
HETATM    1  N           1     -34.795  -1.056 -12.726  0.00  0.00    -0.344 N 
HETATM    2  O           1     -34.662  -3.067 -13.690  0.00  0.00    -0.271 OA
HETATM    3  C           1     -34.491  -2.391 -12.702  0.00  0.00     0.249 C 
HETATM    4  H           1     -34.092  -0.382 -12.999  0.00  0.00     0.163 HD
ENDROOT
BRANCH   3   5
HETATM    5  C           1     -33.944  -3.018 -11.443  0.00  0.00     0.278 C 
BRANCH   5   6
HETATM    6  C           1     -35.043  -3.819 -10.756  0.00  0.00     0.081 C 
BRANCH   6   7
HETATM    7  C           1     -34.584  -5.232 -10.563  0.00  0.00    -0.056 A 
HETATM    8  C           1     -35.371  -6.128  -9.841  0.00  0.00     0.010 A 
HETATM    9  C           1     -34.944  -7.443  -9.660  0.00  0.00     0.037 A 
HETATM   10  C           1     -33.728  -7.862 -10.202  0.00  0.00     0.065 A 
HETATM   11  C           1     -32.940  -6.965 -10.924  0.00  0.00     0.037 A 
HETATM   12  C           1     -33.369  -5.650 -11.104  0.00  0.00     0.010 A 
BRANCH  10  13
HETATM   13  O           1     -33.313  -9.140 -10.027  0.00  0.00    -0.361 OA
HETATM   14  H           1     -32.502  -9.266 -10.548  0.00  0.00     0.217 HD
ENDBRANCH  10  13
ENDBRANCH   6   7
ENDBRANCH   5   6
BRANCH   5  15
HETATM   15  N           1     -33.459  -1.941 -10.519  0.00  0.00    -0.066 N 
HETATM   16  H           1     -34.142  -1.818  -9.738  0.00  0.00     0.275 HD
HETATM   17  H           1     -33.369  -1.044 -11.048  0.00  0.00     0.275 HD
HETATM   18  H           1     -32.528  -2.211 -10.129  0.00  0.00     0.275 HD
ENDBRANCH   5  15
ENDBRANCH   3   5
BRANCH   1  19
HETATM   19  C           1     -36.125  -0.609 -12.359  0.00  0.00     0.189 C 
BRANCH  19  20
HETATM   20  C           1     -36.020   0.645 -11.502  0.00  0.00     0.074 C 
BRANCH  20  21
HETATM   21  C           1     -36.709   0.414 -10.192  0.00  0.00    -0.056 A 
HETATM   22  C           1     -36.951  -0.886  -9.751  0.00  0.00     0.007 A 
HETATM   23  C           1     -37.594  -1.100  -8.532  0.00  0.00     0.001 A 
HETATM   24  C           1     -37.993  -0.014  -7.754  0.00  0.00     0.000 A 
HETATM   25  C           1     -37.751   1.286  -8.196  0.00  0.00     0.001 A 
HETATM   26  C           1     -37.109   1.501  -9.415  0.00  0.00     0.007 A 
ENDBRANCH  20  21
ENDBRANCH  19  20
BRANCH  19  27
HETATM   27  C           1     -36.914  -0.302 -13.607  0.00  0.00     0.197 C 
HETATM   28  O           1     -38.074  -0.750 -13.740  0.00  0.00    -0.646 OA
HETATM   29  O           1     -36.408   0.400 -14.510  0.00  0.00    -0.646 OA
ENDBRANCH  19  27
ENDBRANCH   1  19
TORSDOF 9
ENDMDL
MODEL 5
REMARK VINA RESULT:      -8.0     13.667     17.408
REMARK  9 active torsions:
REMARK  status: ('A' for Active; 'I' for Inactive)
REMARK    1  A    between atoms: C_1  and  C_13 
REMARK    2  A    between atoms: C_1  and  C_25 
REMARK    3  A    between atoms: C_1  and  N_28 
REMARK    4  A    between atoms: N_7  and  C_29 
REMARK       I    between atoms: N_7  and  C_13 
REMARK    5  A    between atoms: C_14  and  C_29 
REMARK    6  A    between atoms: C_14  and  C_21 
REMARK    7  A    between atoms: C_17  and  C_29 
REMARK    8  A    between atoms: C_18  and  O_19 
REMARK    9  A    between atoms: C_25  and  C_27 
ROOT
HETATM    1  N           1     -35.780  -1.565 -10.345  0.00  0.00    -0.344 N 
HETATM    2  O           1     -33.566  -1.775 -10.148  0.00  0.00    -0.271 OA
HETATM    3  C           1     -34.576  -2.089 -10.732  0.00  0.00     0.249 C 
HETATM    4  H           1     -36.338  -2.039  -9.647  0.00  0.00     0.163 HD
ENDROOT
BRANCH   3   5
HETATM    5  C           1     -34.512  -3.059 -11.886  0.00  0.00     0.278 C 
BRANCH   5   6
HETATM    6  C           1     -33.261  -3.920 -11.757  0.00  0.00     0.081 C 
BRANCH   6   7
HETATM    7  C           1     -33.622  -5.233 -11.134  0.00  0.00    -0.056 A 
HETATM    8  C           1     -32.723  -6.298 -11.182  0.00  0.00     0.010 A 
HETATM    9  C           1     -33.059  -7.521 -10.602  0.00  0.00     0.037 A 
HETATM   10  C           1     -34.295  -7.680  -9.976  0.00  0.00     0.065 A 
HETATM   11  C           1     -35.195  -6.614  -9.929  0.00  0.00     0.037 A 
HETATM   12  C           1     -34.858  -5.391 -10.508  0.00  0.00     0.010 A 
BRANCH  10  13
HETATM   13  O           1     -34.622  -8.867  -9.412  0.00  0.00    -0.361 OA
HETATM   14  H           1     -35.043  -9.418 -10.093  0.00  0.00     0.217 HD
ENDBRANCH  10  13
ENDBRANCH   6   7
ENDBRANCH   5   6
BRANCH   5  15
HETATM   15  N           1     -34.461  -2.296 -13.177  0.00  0.00    -0.066 N 
HETATM   16  H           1     -35.416  -1.939 -13.408  0.00  0.00     0.275 HD
HETATM   17  H           1     -34.132  -2.928 -13.941  0.00  0.00     0.275 HD
HETATM   18  H           1     -33.802  -1.492 -13.080  0.00  0.00     0.275 HD
ENDBRANCH   5  15
ENDBRANCH   3   5
BRANCH   1  19
HETATM   19  C           1     -36.256  -0.329 -10.937  0.00  0.00     0.189 C 
BRANCH  19  20
HETATM   20  C           1     -37.326  -0.642 -11.973  0.00  0.00     0.074 C 
BRANCH  20  21
HETATM   21  C           1     -36.924  -0.067 -13.296  0.00  0.00    -0.056 A 
HETATM   22  C           1     -37.795  -0.142 -14.383  0.00  0.00     0.007 A 
HETATM   23  C           1     -37.420   0.393 -15.615  0.00  0.00     0.001 A 
HETATM   24  C           1     -36.175   1.003 -15.761  0.00  0.00     0.000 A 
HETATM   25  C           1     -35.304   1.077 -14.674  0.00  0.00     0.001 A 
HETATM   26  C           1     -35.678   0.542 -13.441  0.00  0.00     0.007 A 
ENDBRANCH  20  21
ENDBRANCH  19  20
BRANCH  19  27
HETATM   27  C           1     -36.840   0.551  -9.860  0.00  0.00     0.197 C 
HETATM   28  O           1     -36.242   0.686  -8.769  0.00  0.00    -0.646 OA
HETATM   29  O           1     -37.921   1.146 -10.056  0.00  0.00    -0.646 OA
ENDBRANCH  19  27
ENDBRANCH   1  19
TORSDOF 9
ENDMDL
MODEL 6
REMARK VINA RESULT:      -7.8      4.847      7.681
REMARK  9 active torsions:
REMARK  status: ('A' for Active; 'I' for Inactive)
REMARK    1  A    between atoms: C_1  and  C_13 
REMARK    2  A    between atoms: C_1  and  C_25 
REMARK    3  A    between atoms: C_1  and  N_28 
REMARK    4  A    between atoms: N_7  and  C_29 
REMARK       I    between atoms: N_7  and  C_13 
REMARK    5  A    between atoms: C_14  and  C_29 
REMARK    6  A    between atoms: C_14  and  C_21 
REMARK    7  A    between atoms: C_17  and  C_29 
REMARK    8  A    between atoms: C_18  and  O_19 
REMARK    9  A    between atoms: C_25  and  C_27 
ROOT
HETATM    1  N           1     -20.736  -7.786  -3.128  0.00  0.00    -0.344 N 
HETATM    2  O           1     -21.598  -7.876  -5.186  0.00  0.00    -0.271 OA
HETATM    3  C           1     -20.901  -8.391  -4.345  0.00  0.00     0.249 C 
HETATM    4  H           1     -19.981  -7.127  -2.987  0.00  0.00     0.163 HD
ENDROOT
BRANCH   3   5
HETATM    5  C           1     -20.209  -9.700  -4.635  0.00  0.00     0.278 C 
BRANCH   5   6
HETATM    6  C           1     -18.722  -9.452  -4.854  0.00  0.00     0.081 C 
BRANCH   6   7
HETATM    7  C           1     -17.946 -10.035  -3.714  0.00  0.00    -0.056 A 
HETATM    8  C           1     -16.605  -9.696  -3.538  0.00  0.00     0.010 A 
HETATM    9  C           1     -15.881 -10.240  -2.476  0.00  0.00     0.037 A 
HETATM   10  C           1     -16.500 -11.122  -1.591  0.00  0.00     0.065 A 
HETATM   11  C           1     -17.841 -11.462  -1.767  0.00  0.00     0.037 A 
HETATM   12  C           1     -18.564 -10.917  -2.829  0.00  0.00     0.010 A 
BRANCH  10  13
HETATM   13  O           1     -15.798 -11.650  -0.559  0.00  0.00    -0.361 OA
HETATM   14  H           1     -16.338 -11.570   0.245  0.00  0.00     0.217 HD
ENDBRANCH  10  13
ENDBRANCH   6   7
ENDBRANCH   5   6
BRANCH   5  15
HETATM   15  N           1     -20.800 -10.314  -5.869  0.00  0.00    -0.066 N 
HETATM   16  H           1     -20.251 -11.162  -6.134  0.00  0.00     0.275 HD
HETATM   17  H           1     -20.768  -9.622  -6.651  0.00  0.00     0.275 HD
HETATM   18  H           1     -21.792 -10.585  -5.683  0.00  0.00     0.275 HD
ENDBRANCH   5  15
ENDBRANCH   3   5
BRANCH   1  19
HETATM   19  C           1     -21.645  -8.090  -2.039  0.00  0.00     0.189 C 
BRANCH  19  20
HETATM   20  C           1     -20.876  -8.759  -0.909  0.00  0.00     0.074 C 
BRANCH  20  21
HETATM   21  C           1     -21.619  -9.977  -0.451  0.00  0.00    -0.056 A 
HETATM   22  C           1     -20.966 -10.947   0.309  0.00  0.00     0.007 A 
HETATM   23  C           1     -21.658 -12.081   0.735  0.00  0.00     0.001 A 
HETATM   24  C           1     -23.002 -12.245   0.400  0.00  0.00     0.000 A 
HETATM   25  C           1     -23.654 -11.275  -0.362  0.00  0.00     0.001 A 
HETATM   26  C           1     -22.962 -10.140  -0.787  0.00  0.00     0.007 A 
ENDBRANCH  20  21
ENDBRANCH  19  20
BRANCH  19  27
HETATM   27  C           1     -22.271  -6.813  -1.535  0.00  0.00     0.197 C 
HETATM   28  O           1     -22.361  -5.820  -2.291  0.00  0.00    -0.646 OA
HETATM   29  O           1     -22.699  -6.746  -0.363  0.00  0.00    -0.646 OA
ENDBRANCH  19  27
ENDBRANCH   1  19
TORSDOF 9
ENDMDL
MODEL 7
REMARK VINA RESULT:      -7.8      2.276      3.903
REMARK  9 active torsions:
REMARK  status: ('A' for Active; 'I' for Inactive)
REMARK    1  A    between atoms: C_1  and  C_13 
REMARK    2  A    between atoms: C_1  and  C_25 
REMARK    3  A    between atoms: C_1  and  N_28 
REMARK    4  A    between atoms: N_7  and  C_29 
REMARK       I    between atoms: N_7  and  C_13 
REMARK    5  A    between atoms: C_14  and  C_29 
REMARK    6  A    between atoms: C_14  and  C_21 
REMARK    7  A    between atoms: C_17  and  C_29 
REMARK    8  A    between atoms: C_18  and  O_19 
REMARK    9  A    between atoms: C_25  and  C_27 
ROOT
HETATM    1  N           1     -21.469  -6.443  -3.080  0.00  0.00    -0.344 N 
HETATM    2  O           1     -22.839  -6.121  -4.814  0.00  0.00    -0.271 OA
HETATM    3  C           1     -21.706  -6.248  -4.415  0.00  0.00     0.249 C 
HETATM    4  H           1     -21.326  -5.648  -2.470  0.00  0.00     0.163 HD
ENDROOT
BRANCH   3   5
HETATM    5  C           1     -20.552  -6.191  -5.385  0.00  0.00     0.278 C 
BRANCH   5   6
HETATM    6  C           1     -20.272  -4.740  -5.755  0.00  0.00     0.081 C 
BRANCH   6   7
HETATM    7  C           1     -20.716  -4.489  -7.163  0.00  0.00    -0.056 A 
HETATM    8  C           1     -19.816  -4.645  -8.217  0.00  0.00     0.010 A 
HETATM    9  C           1     -20.230  -4.411  -9.528  0.00  0.00     0.037 A 
HETATM   10  C           1     -21.544  -4.021  -9.785  0.00  0.00     0.065 A 
HETATM   11  C           1     -22.444  -3.864  -8.731  0.00  0.00     0.037 A 
HETATM   12  C           1     -22.029  -4.099  -7.420  0.00  0.00     0.010 A 
BRANCH  10  13
HETATM   13  O           1     -21.946  -3.794 -11.059  0.00  0.00    -0.361 OA
HETATM   14  H           1     -22.902  -3.965 -11.107  0.00  0.00     0.217 HD
ENDBRANCH  10  13
ENDBRANCH   6   7
ENDBRANCH   5   6
BRANCH   5  15
HETATM   15  N           1     -20.900  -6.963  -6.622  0.00  0.00    -0.066 N 
HETATM   16  H           1     -21.579  -7.720  -6.381  0.00  0.00     0.275 HD
HETATM   17  H           1     -20.034  -7.388  -7.022  0.00  0.00     0.275 HD
HETATM   18  H           1     -21.330  -6.320  -7.325  0.00  0.00     0.275 HD
ENDBRANCH   5  15
ENDBRANCH   3   5
BRANCH   1  19
HETATM   19  C           1     -21.423  -7.789  -2.542  0.00  0.00     0.189 C 
BRANCH  19  20
HETATM   20  C           1     -19.972  -8.222  -2.384  0.00  0.00     0.074 C 
BRANCH  20  21
HETATM   21  C           1     -19.598  -9.135  -3.511  0.00  0.00    -0.056 A 
HETATM   22  C           1     -20.593  -9.776  -4.250  0.00  0.00     0.007 A 
HETATM   23  C           1     -20.244 -10.626  -5.298  0.00  0.00     0.001 A 
HETATM   24  C           1     -18.901 -10.837  -5.609  0.00  0.00     0.000 A 
HETATM   25  C           1     -17.907 -10.197  -4.869  0.00  0.00     0.001 A 
HETATM   26  C           1     -18.255  -9.346  -3.820  0.00  0.00     0.007 A 
ENDBRANCH  20  21
ENDBRANCH  19  20
BRANCH  19  27
HETATM   27  C           1     -22.105  -7.815  -1.197  0.00  0.00     0.197 C 
HETATM   28  O           1     -22.042  -8.841  -0.483  0.00  0.00    -0.646 OA
HETATM   29  O           1     -22.735  -6.813  -0.795  0.00  0.00    -0.646 OA
ENDBRANCH  19  27
ENDBRANCH   1  19
TORSDOF 9
ENDMDL
MODEL 8
REMARK VINA RESULT:      -7.8      2.734      8.698
REMARK  9 active torsions:
REMARK  status: ('A' for Active; 'I' for Inactive)
REMARK    1  A    between atoms: C_1  and  C_13 
REMARK    2  A    between atoms: C_1  and  C_25 
REMARK    3  A    between atoms: C_1  and  N_28 
REMARK    4  A    between atoms: N_7  and  C_29 
REMARK       I    between atoms: N_7  and  C_13 
REMARK    5  A    between atoms: C_14  and  C_29 
REMARK    6  A    between atoms: C_14  and  C_21 
REMARK    7  A    between atoms: C_17  and  C_29 
REMARK    8  A    between atoms: C_18  and  O_19 
REMARK    9  A    between atoms: C_25  and  C_27 
ROOT
HETATM    1  N           1     -22.576  -6.775  -3.941  0.00  0.00    -0.344 N 
HETATM    2  O           1     -21.833  -5.626  -2.177  0.00  0.00    -0.271 OA
HETATM    3  C           1     -21.988  -6.700  -2.707  0.00  0.00     0.249 C 
HETATM    4  H           1     -23.580  -6.876  -4.018  0.00  0.00     0.163 HD
ENDROOT
BRANCH   3   5
HETATM    5  C           1     -21.535  -7.959  -2.009  0.00  0.00     0.278 C 
BRANCH   5   6
HETATM    6  C           1     -22.187  -8.041  -0.635  0.00  0.00     0.081 C 
BRANCH   6   7
HETATM    7  C           1     -22.268  -9.473  -0.205  0.00  0.00    -0.056 A 
HETATM    8  C           1     -21.160 -10.092   0.370  0.00  0.00     0.010 A 
HETATM    9  C           1     -21.235 -11.427   0.770  0.00  0.00     0.037 A 
HETATM   10  C           1     -22.421 -12.141   0.594  0.00  0.00     0.065 A 
HETATM   11  C           1     -23.530 -11.521   0.019  0.00  0.00     0.037 A 
HETATM   12  C           1     -23.453 -10.186  -0.380  0.00  0.00     0.010 A 
BRANCH  10  13
HETATM   13  O           1     -22.495 -13.437   0.984  0.00  0.00    -0.361 OA
HETATM   14  H           1     -22.764 -13.455   1.917  0.00  0.00     0.217 HD
ENDBRANCH  10  13
ENDBRANCH   6   7
ENDBRANCH   5   6
BRANCH   5  15
HETATM   15  N           1     -20.044  -7.936  -1.855  0.00  0.00    -0.066 N 
HETATM   16  H           1     -19.703  -6.949  -1.904  0.00  0.00     0.275 HD
HETATM   17  H           1     -19.606  -8.494  -2.622  0.00  0.00     0.275 HD
HETATM   18  H           1     -19.783  -8.349  -0.931  0.00  0.00     0.275 HD
ENDBRANCH   5  15
ENDBRANCH   3   5
BRANCH   1  19
HETATM   19  C           1     -21.760  -6.711  -5.138  0.00  0.00     0.189 C 
BRANCH  19  20
HETATM   20  C           1     -20.877  -5.472  -5.083  0.00  0.00     0.074 C 
BRANCH  20  21
HETATM   21  C           1     -20.743  -4.892  -6.458  0.00  0.00    -0.056 A 
HETATM   22  C           1     -21.878  -4.480  -7.154  0.00  0.00     0.007 A 
HETATM   23  C           1     -21.753  -3.941  -8.434  0.00  0.00     0.001 A 
HETATM   24  C           1     -20.493  -3.815  -9.018  0.00  0.00     0.000 A 
HETATM   25  C           1     -19.358  -4.229  -8.322  0.00  0.00     0.001 A 
HETATM   26  C           1     -19.482  -4.768  -7.041  0.00  0.00     0.007 A 
ENDBRANCH  20  21
ENDBRANCH  19  20
BRANCH  19  27
HETATM   27  C           1     -20.893  -7.943  -5.222  0.00  0.00     0.197 C 
HETATM   28  O           1     -19.682  -7.879  -4.916  0.00  0.00    -0.646 OA
HETATM   29  O           1     -21.385  -9.029  -5.598  0.00  0.00    -0.646 OA
ENDBRANCH  19  27
ENDBRANCH   1  19
TORSDOF 9
ENDMDL
MODEL 9
REMARK VINA RESULT:      -7.8      3.217      5.009
REMARK  9 active torsions:
REMARK  status: ('A' for Active; 'I' for Inactive)
REMARK    1  A    between atoms: C_1  and  C_13 
REMARK    2  A    between atoms: C_1  and  C_25 
REMARK    3  A    between atoms: C_1  and  N_28 
REMARK    4  A    between atoms: N_7  and  C_29 
REMARK       I    between atoms: N_7  and  C_13 
REMARK    5  A    between atoms: C_14  and  C_29 
REMARK    6  A    between atoms: C_14  and  C_21 
REMARK    7  A    between atoms: C_17  and  C_29 
REMARK    8  A    between atoms: C_18  and  O_19 
REMARK    9  A    between atoms: C_25  and  C_27 
ROOT
HETATM    1  N           1     -21.093  -7.619  -1.520  0.00  0.00    -0.344 N 
HETATM    2  O           1     -22.275  -5.910  -2.338  0.00  0.00    -0.271 OA
HETATM    3  C           1     -21.641  -6.915  -2.559  0.00  0.00     0.249 C 
HETATM    4  H           1     -20.158  -7.403  -1.200  0.00  0.00     0.163 HD
ENDROOT
BRANCH   3   5
HETATM    5  C           1     -21.453  -7.394  -3.977  0.00  0.00     0.278 C 
BRANCH   5   6
HETATM    6  C           1     -22.427  -6.663  -4.893  0.00  0.00     0.081 C 
BRANCH   6   7
HETATM    7  C           1     -21.660  -5.861  -5.899  0.00  0.00    -0.056 A 
HETATM    8  C           1     -20.301  -6.102  -6.093  0.00  0.00     0.010 A 
HETATM    9  C           1     -19.587  -5.355  -7.030  0.00  0.00     0.037 A 
HETATM   10  C           1     -20.233  -4.367  -7.773  0.00  0.00     0.065 A 
HETATM   11  C           1     -21.593  -4.126  -7.579  0.00  0.00     0.037 A 
HETATM   12  C           1     -22.306  -4.874  -6.641  0.00  0.00     0.010 A 
BRANCH  10  13
HETATM   13  O           1     -19.540  -3.642  -8.683  0.00  0.00    -0.361 OA
HETATM   14  H           1     -19.879  -2.732  -8.665  0.00  0.00     0.217 HD
ENDBRANCH  10  13
ENDBRANCH   6   7
ENDBRANCH   5   6
BRANCH   5  15
HETATM   15  N           1     -21.714  -8.869  -4.045  0.00  0.00    -0.066 N 
HETATM   16  H           1     -22.735  -9.036  -4.191  0.00  0.00     0.275 HD
HETATM   17  H           1     -21.412  -9.317  -3.151  0.00  0.00     0.275 HD
HETATM   18  H           1     -21.177  -9.281  -4.841  0.00  0.00     0.275 HD
ENDBRANCH   5  15
ENDBRANCH   3   5
BRANCH   1  19
HETATM   19  C           1     -21.854  -8.675  -0.880  0.00  0.00     0.189 C 
BRANCH  19  20
HETATM   20  C           1     -20.982  -9.916  -0.742  0.00  0.00     0.074 C 
BRANCH  20  21
HETATM   21  C           1     -21.826 -11.073  -0.306  0.00  0.00    -0.056 A 
HETATM   22  C           1     -21.391 -11.903   0.728  0.00  0.00     0.007 A 
HETATM   23  C           1     -22.177 -12.982   1.133  0.00  0.00     0.001 A 
HETATM   24  C           1     -23.397 -13.231   0.506  0.00  0.00     0.000 A 
HETATM   25  C           1     -23.831 -12.402  -0.528  0.00  0.00     0.001 A 
HETATM   26  C           1     -23.046 -11.323  -0.934  0.00  0.00     0.007 A 
ENDBRANCH  20  21
ENDBRANCH  19  20
BRANCH  19  27
HETATM   27  C           1     -22.297  -8.217   0.487  0.00  0.00     0.197 C 
HETATM   28  O           1     -23.501  -7.950   0.697  0.00  0.00    -0.646 OA
HETATM   29  O           1     -21.462  -8.102   1.410  0.00  0.00    -0.646 OA
ENDBRANCH  19  27
ENDBRANCH   1  19
TORSDOF 9
ENDMDL
