MODEL 1
REMARK VINA RESULT:      -6.2      0.000      0.000
REMARK  6 active torsions:
REMARK  status: ('A' for Active; 'I' for Inactive)
REMARK    1  A    between atoms: C_1  and  C_11 
REMARK    2  A    between atoms: C_1  and  C_2 
REMARK    3  A    between atoms: C_2  and  C_17 
REMARK    4  A    between atoms: C_2  and  N_7 
REMARK       I    between atoms: N_7  and  C_8 
REMARK    5  A    between atoms: C_8  and  C_10 
REMARK    6  A    between atoms: C_11  and  Se_13 
ROOT
HETATM    1  H           1     -34.783  -0.913 -11.284  0.00  0.00     0.163 HD
HETATM    2  N           1     -34.935  -1.393 -12.162  0.00  0.00    -0.345 N 
HETATM    3  C           1     -34.248  -2.544 -12.441  0.00  0.00     0.251 C 
HETATM    4  O           1     -34.430  -3.116 -13.489  0.00  0.00    -0.271 OA
ENDROOT
BRANCH   2   5
HETATM    5  C           1     -35.879  -0.861 -13.124  0.00  0.00     0.185 C 
BRANCH   5   6
HETATM    6  C           1     -37.006  -0.146 -12.389  0.00  0.00     0.036 C 
BRANCH   6   7
HETATM    7  C           1     -37.079  -0.656 -10.955  0.00  0.00     0.003 C 
BRANCH   7   8
HETATM    8 Se           1     -37.285   0.853  -9.739  0.00  0.00     0.000 Se
HETATM    9  C           1     -37.442  -0.249  -8.138  0.00  0.00     0.000 C 
ENDBRANCH   7   8
ENDBRANCH   6   7
ENDBRANCH   5   6
BRANCH   5  10
HETATM   10  C           1     -35.174   0.117 -14.033  0.00  0.00     0.196 C 
HETATM   11  O           1     -34.977  -0.175 -15.233  0.00  0.00    -0.646 OA
HETATM   12  O           1     -34.787   1.218 -13.585  0.00  0.00    -0.646 OA
ENDBRANCH   5  10
ENDBRANCH   2   5
BRANCH   3  13
HETATM   13  C           1     -33.264  -3.097 -11.440  0.00  0.00     0.311 C 
HETATM   14  C           1     -32.624  -4.373 -11.957  0.00  0.00     0.047 C 
HETATM   15  C           1     -33.464  -5.503 -11.376  0.00  0.00     0.033 C 
HETATM   16  C           1     -34.537  -4.815 -10.549  0.00  0.00     0.271 C 
HETATM   17  N           1     -33.947  -3.520 -10.220  0.00  0.00     0.097 N 
HETATM   18  H           1     -33.283  -3.634  -9.454  0.00  0.00     0.317 HD
ENDBRANCH   3  13
TORSDOF 6
ENDMDL
MODEL 2
REMARK VINA RESULT:      -6.0      3.099      5.560
REMARK  6 active torsions:
REMARK  status: ('A' for Active; 'I' for Inactive)
REMARK    1  A    between atoms: C_1  and  C_11 
REMARK    2  A    between atoms: C_1  and  C_2 
REMARK    3  A    between atoms: C_2  and  C_17 
REMARK    4  A    between atoms: C_2  and  N_7 
REMARK       I    between atoms: N_7  and  C_8 
REMARK    5  A    between atoms: C_8  and  C_10 
REMARK    6  A    between atoms: C_11  and  Se_13 
ROOT
HETATM    1  H           1     -33.956  -1.324 -13.647  0.00  0.00     0.163 HD
HETATM    2  N           1     -34.836  -1.489 -13.175  0.00  0.00    -0.345 N 
HETATM    3  C           1     -35.955  -0.795 -13.549  0.00  0.00     0.251 C 
HETATM    4  O           1     -37.005  -0.992 -12.985  0.00  0.00    -0.271 OA
ENDROOT
BRANCH   2   5
HETATM    5  C           1     -34.911  -2.460 -12.100  0.00  0.00     0.185 C 
BRANCH   5   6
HETATM    6  C           1     -34.047  -3.666 -12.445  0.00  0.00     0.036 C 
BRANCH   6   7
HETATM    7  C           1     -34.762  -4.941 -12.018  0.00  0.00     0.003 C 
BRANCH   7   8
HETATM    8 Se           1     -33.577  -6.006 -10.896  0.00  0.00     0.000 Se
HETATM    9  C           1     -34.964  -7.253 -10.331  0.00  0.00     0.000 C 
ENDBRANCH   7   8
ENDBRANCH   6   7
ENDBRANCH   5   6
BRANCH   5  10
HETATM   10  C           1     -34.410  -1.833 -10.821  0.00  0.00     0.196 C 
HETATM   11  O           1     -35.217  -1.299 -10.029  0.00  0.00    -0.646 OA
HETATM   12  O           1     -33.189  -1.848 -10.555  0.00  0.00    -0.646 OA
ENDBRANCH   5  10
ENDBRANCH   2   5
BRANCH   3  13
HETATM   13  C           1     -35.876   0.216 -14.667  0.00  0.00     0.311 C 
HETATM   14  C           1     -37.200   0.309 -15.406  0.00  0.00     0.047 C 
HETATM   15  C           1     -37.060  -0.636 -16.592  0.00  0.00     0.033 C 
HETATM   16  C           1     -35.660  -1.216 -16.475  0.00  0.00     0.271 C 
HETATM   17  N           1     -34.934  -0.218 -15.694  0.00  0.00     0.097 N 
HETATM   18  H           1     -34.672   0.561 -16.298  0.00  0.00     0.317 HD
ENDBRANCH   3  13
TORSDOF 6
ENDMDL
MODEL 3
REMARK VINA RESULT:      -5.8      2.973      5.327
REMARK  6 active torsions:
REMARK  status: ('A' for Active; 'I' for Inactive)
REMARK    1  A    between atoms: C_1  and  C_11 
REMARK    2  A    between atoms: C_1  and  C_2 
REMARK    3  A    between atoms: C_2  and  C_17 
REMARK    4  A    between atoms: C_2  and  N_7 
REMARK       I    between atoms: N_7  and  C_8 
REMARK    5  A    between atoms: C_8  and  C_10 
REMARK    6  A    between atoms: C_11  and  Se_13 
ROOT
HETATM    1  H           1     -35.024   0.217 -12.298  0.00  0.00     0.163 HD
HETATM    2  N           1     -35.923  -0.248 -12.319  0.00  0.00    -0.345 N 
HETATM    3  C           1     -36.694  -0.194 -13.449  0.00  0.00     0.251 C 
HETATM    4  O           1     -37.767  -0.748 -13.474  0.00  0.00    -0.271 OA
ENDROOT
BRANCH   2   5
HETATM    5  C           1     -36.394  -0.968 -11.153  0.00  0.00     0.185 C 
BRANCH   5   6
HETATM    6  C           1     -35.270  -1.837 -10.604  0.00  0.00     0.036 C 
BRANCH   6   7
HETATM    7  C           1     -35.076  -3.048 -11.508  0.00  0.00     0.003 C 
BRANCH   7   8
HETATM    8 Se           1     -33.203  -3.585 -11.482  0.00  0.00     0.000 Se
HETATM    9  C           1     -33.579  -5.470 -11.159  0.00  0.00     0.000 C 
ENDBRANCH   7   8
ENDBRANCH   6   7
ENDBRANCH   5   6
BRANCH   5  10
HETATM   10  C           1     -36.829   0.017 -10.095  0.00  0.00     0.196 C 
HETATM   11  O           1     -36.223   0.069  -9.003  0.00  0.00    -0.646 OA
HETATM   12  O           1     -37.794   0.780 -10.312  0.00  0.00    -0.646 OA
ENDBRANCH   5  10
ENDBRANCH   2   5
BRANCH   3  13
HETATM   13  C           1     -36.204   0.557 -14.662  0.00  0.00     0.311 C 
HETATM   14  C           1     -37.155   0.377 -15.832  0.00  0.00     0.047 C 
HETATM   15  C           1     -36.583  -0.785 -16.634  0.00  0.00     0.033 C 
HETATM   16  C           1     -35.329  -1.204 -15.886  0.00  0.00     0.271 C 
HETATM   17  N           1     -34.946  -0.004 -15.147  0.00  0.00     0.097 N 
HETATM   18  H           1     -34.477   0.647 -15.777  0.00  0.00     0.317 HD
ENDBRANCH   3  13
TORSDOF 6
ENDMDL
MODEL 4
REMARK VINA RESULT:      -5.7      2.526      3.628
REMARK  6 active torsions:
REMARK  status: ('A' for Active; 'I' for Inactive)
REMARK    1  A    between atoms: C_1  and  C_11 
REMARK    2  A    between atoms: C_1  and  C_2 
REMARK    3  A    between atoms: C_2  and  C_17 
REMARK    4  A    between atoms: C_2  and  N_7 
REMARK       I    between atoms: N_7  and  C_8 
REMARK    5  A    between atoms: C_8  and  C_10 
REMARK    6  A    between atoms: C_11  and  Se_13 
ROOT
HETATM    1  H           1     -35.259  -1.670 -13.693  0.00  0.00     0.163 HD
HETATM    2  N           1     -35.110  -1.540 -12.700  0.00  0.00    -0.345 N 
HETATM    3  C           1     -34.818  -2.616 -11.906  0.00  0.00     0.251 C 
HETATM    4  O           1     -34.640  -2.462 -10.721  0.00  0.00    -0.271 OA
ENDROOT
BRANCH   2   5
HETATM    5  C           1     -35.206  -0.216 -12.119  0.00  0.00     0.185 C 
BRANCH   5   6
HETATM    6  C           1     -34.991   0.831 -13.204  0.00  0.00     0.036 C 
BRANCH   6   7
HETATM    7  C           1     -34.932   0.148 -14.565  0.00  0.00     0.003 C 
BRANCH   7   8
HETATM    8 Se           1     -36.641   0.365 -15.476  0.00  0.00     0.000 Se
HETATM    9  C           1     -36.291  -1.015 -16.808  0.00  0.00     0.000 C 
ENDBRANCH   7   8
ENDBRANCH   6   7
ENDBRANCH   5   6
BRANCH   5  10
HETATM   10  C           1     -36.575  -0.033 -11.510  0.00  0.00     0.196 C 
HETATM   11  O           1     -37.586  -0.474 -12.100  0.00  0.00    -0.646 OA
HETATM   12  O           1     -36.698   0.560 -10.417  0.00  0.00    -0.646 OA
ENDBRANCH   5  10
ENDBRANCH   2   5
BRANCH   3  13
HETATM   13  C           1     -34.718  -3.995 -12.510  0.00  0.00     0.311 C 
HETATM   14  C           1     -34.680  -5.060 -11.428  0.00  0.00     0.047 C 
HETATM   15  C           1     -33.200  -5.333 -11.192  0.00  0.00     0.033 C 
HETATM   16  C           1     -32.468  -4.416 -12.158  0.00  0.00     0.271 C 
HETATM   17  N           1     -33.448  -4.165 -13.210  0.00  0.00     0.097 N 
HETATM   18  H           1     -33.485  -4.968 -13.838  0.00  0.00     0.317 HD
ENDBRANCH   3  13
TORSDOF 6
ENDMDL
MODEL 5
REMARK VINA RESULT:      -5.1     15.585     17.521
REMARK  6 active torsions:
REMARK  status: ('A' for Active; 'I' for Inactive)
REMARK    1  A    between atoms: C_1  and  C_11 
REMARK    2  A    between atoms: C_1  and  C_2 
REMARK    3  A    between atoms: C_2  and  C_17 
REMARK    4  A    between atoms: C_2  and  N_7 
REMARK       I    between atoms: N_7  and  C_8 
REMARK    5  A    between atoms: C_8  and  C_10 
REMARK    6  A    between atoms: C_11  and  Se_13 
ROOT
HETATM    1  H           1     -19.691  -6.213  -4.506  0.00  0.00     0.163 HD
HETATM    2  N           1     -20.688  -6.307  -4.658  0.00  0.00    -0.345 N 
HETATM    3  C           1     -21.332  -5.458  -5.517  0.00  0.00     0.251 C 
HETATM    4  O           1     -22.521  -5.569  -5.698  0.00  0.00    -0.271 OA
ENDROOT
BRANCH   2   5
HETATM    5  C           1     -21.433  -7.339  -3.964  0.00  0.00     0.185 C 
BRANCH   5   6
HETATM    6  C           1     -20.640  -8.639  -3.988  0.00  0.00     0.036 C 
BRANCH   6   7
HETATM    7  C           1     -19.579  -8.568  -5.079  0.00  0.00     0.003 C 
BRANCH   7   8
HETATM    8 Se           1     -18.074  -9.708  -4.597  0.00  0.00     0.000 Se
HETATM    9  C           1     -18.543  -9.806  -2.707  0.00  0.00     0.000 C 
ENDBRANCH   7   8
ENDBRANCH   6   7
ENDBRANCH   5   6
BRANCH   5  10
HETATM   10  C           1     -21.662  -6.918  -2.533  0.00  0.00     0.196 C 
HETATM   11  O           1     -22.460  -5.990  -2.275  0.00  0.00    -0.646 OA
HETATM   12  O           1     -21.055  -7.496  -1.607  0.00  0.00    -0.646 OA
ENDBRANCH   5  10
ENDBRANCH   2   5
BRANCH   3  13
HETATM   13  C           1     -20.557  -4.382  -6.237  0.00  0.00     0.311 C 
HETATM   14  C           1     -21.432  -3.673  -7.256  0.00  0.00     0.047 C 
HETATM   15  C           1     -21.170  -4.391  -8.573  0.00  0.00     0.033 C 
HETATM   16  C           1     -20.152  -5.469  -8.242  0.00  0.00     0.271 C 
HETATM   17  N           1     -19.488  -4.965  -7.044  0.00  0.00     0.097 N 
HETATM   18  H           1     -18.804  -4.255  -7.307  0.00  0.00     0.317 HD
ENDBRANCH   3  13
TORSDOF 6
ENDMDL
MODEL 6
REMARK VINA RESULT:      -5.1     14.963     16.714
REMARK  6 active torsions:
REMARK  status: ('A' for Active; 'I' for Inactive)
REMARK    1  A    between atoms: C_1  and  C_11 
REMARK    2  A    between atoms: C_1  and  C_2 
REMARK    3  A    between atoms: C_2  and  C_17 
REMARK    4  A    between atoms: C_2  and  N_7 
REMARK       I    between atoms: N_7  and  C_8 
REMARK    5  A    between atoms: C_8  and  C_10 
REMARK    6  A    between atoms: C_11  and  Se_13 
ROOT
HETATM    1  H           1     -22.381  -5.525  -5.835  0.00  0.00     0.163 HD
HETATM    2  N           1     -21.389  -5.545  -5.636  0.00  0.00    -0.345 N 
HETATM    3  C           1     -20.548  -4.656  -6.250  0.00  0.00     0.251 C 
HETATM    4  O           1     -19.365  -4.681  -6.012  0.00  0.00    -0.271 OA
ENDROOT
BRANCH   2   5
HETATM    5  C           1     -20.858  -6.517  -4.700  0.00  0.00     0.185 C 
BRANCH   5   6
HETATM    6  C           1     -21.881  -6.776  -3.603  0.00  0.00     0.036 C 
BRANCH   6   7
HETATM    7  C           1     -21.189  -7.406  -2.401  0.00  0.00     0.003 C 
BRANCH   7   8
HETATM    8 Se           1     -22.279  -7.136  -0.808  0.00  0.00     0.000 Se
HETATM    9  C           1     -21.324  -8.452   0.267  0.00  0.00     0.000 C 
ENDBRANCH   7   8
ENDBRANCH   6   7
ENDBRANCH   5   6
BRANCH   5  10
HETATM   10  C           1     -20.564  -7.806  -5.427  0.00  0.00     0.196 C 
HETATM   11  O           1     -19.382  -8.190  -5.567  0.00  0.00    -0.646 OA
HETATM   12  O           1     -21.502  -8.490  -5.890  0.00  0.00    -0.646 OA
ENDBRANCH   5  10
ENDBRANCH   2   5
BRANCH   3  13
HETATM   13  C           1     -21.101  -3.646  -7.225  0.00  0.00     0.311 C 
HETATM   14  C           1     -22.417  -4.125  -7.814  0.00  0.00     0.047 C 
HETATM   15  C           1     -22.041  -4.806  -9.124  0.00  0.00     0.033 C 
HETATM   16  C           1     -20.530  -4.674  -9.220  0.00  0.00     0.271 C 
HETATM   17  N           1     -20.228  -3.513  -8.387  0.00  0.00     0.097 N 
HETATM   18  H           1     -20.439  -2.660  -8.904  0.00  0.00     0.317 HD
ENDBRANCH   3  13
TORSDOF 6
ENDMDL
MODEL 7
REMARK VINA RESULT:      -5.0     15.576     17.519
REMARK  6 active torsions:
REMARK  status: ('A' for Active; 'I' for Inactive)
REMARK    1  A    between atoms: C_1  and  C_11 
REMARK    2  A    between atoms: C_1  and  C_2 
REMARK    3  A    between atoms: C_2  and  C_17 
REMARK    4  A    between atoms: C_2  and  N_7 
REMARK       I    between atoms: N_7  and  C_8 
REMARK    5  A    between atoms: C_8  and  C_10 
REMARK    6  A    between atoms: C_11  and  Se_13 
ROOT
HETATM    1  H           1     -20.078  -5.989  -3.894  0.00  0.00     0.163 HD
HETATM    2  N           1     -20.552  -6.833  -4.191  0.00  0.00    -0.345 N 
HETATM    3  C           1     -20.625  -7.145  -5.521  0.00  0.00     0.251 C 
HETATM    4  O           1     -21.191  -8.151  -5.875  0.00  0.00    -0.271 OA
ENDROOT
BRANCH   2   5
HETATM    5  C           1     -21.155  -7.710  -3.206  0.00  0.00     0.185 C 
BRANCH   5   6
HETATM    6  C           1     -20.068  -8.527  -2.521  0.00  0.00     0.036 C 
BRANCH   6   7
HETATM    7  C           1     -20.220  -9.995  -2.901  0.00  0.00     0.003 C 
BRANCH   7   8
HETATM    8 Se           1     -21.847 -10.708  -2.100  0.00  0.00     0.000 Se
HETATM    9  C           1     -22.655 -11.217  -3.799  0.00  0.00     0.000 C 
ENDBRANCH   7   8
ENDBRANCH   6   7
ENDBRANCH   5   6
BRANCH   5  10
HETATM   10  C           1     -21.885  -6.882  -2.176  0.00  0.00     0.196 C 
HETATM   11  O           1     -22.509  -5.856  -2.526  0.00  0.00    -0.646 OA
HETATM   12  O           1     -21.866  -7.223  -0.974  0.00  0.00    -0.646 OA
ENDBRANCH   5  10
ENDBRANCH   2   5
BRANCH   3  13
HETATM   13  C           1     -19.999  -6.231  -6.546  0.00  0.00     0.311 C 
HETATM   14  C           1     -19.831  -4.828  -5.989  0.00  0.00     0.047 C 
HETATM   15  C           1     -21.071  -4.069  -6.443  0.00  0.00     0.033 C 
HETATM   16  C           1     -21.881  -5.076  -7.243  0.00  0.00     0.271 C 
HETATM   17  N           1     -20.887  -6.047  -7.690  0.00  0.00     0.097 N 
HETATM   18  H           1     -20.376  -5.668  -8.488  0.00  0.00     0.317 HD
ENDBRANCH   3  13
TORSDOF 6
ENDMDL
MODEL 8
REMARK VINA RESULT:      -4.9     17.097     18.675
REMARK  6 active torsions:
REMARK  status: ('A' for Active; 'I' for Inactive)
REMARK    1  A    between atoms: C_1  and  C_11 
REMARK    2  A    between atoms: C_1  and  C_2 
REMARK    3  A    between atoms: C_2  and  C_17 
REMARK    4  A    between atoms: C_2  and  N_7 
REMARK       I    between atoms: N_7  and  C_8 
REMARK    5  A    between atoms: C_8  and  C_10 
REMARK    6  A    between atoms: C_11  and  Se_13 
ROOT
HETATM    1  H           1     -22.682  -8.621  -2.482  0.00  0.00     0.163 HD
HETATM    2  N           1     -21.673  -8.543  -2.529  0.00  0.00    -0.345 N 
HETATM    3  C           1     -20.898  -9.095  -1.545  0.00  0.00     0.251 C 
HETATM    4  O           1     -19.695  -9.003  -1.601  0.00  0.00    -0.271 OA
ENDROOT
BRANCH   2   5
HETATM    5  C           1     -21.051  -7.846  -3.637  0.00  0.00     0.185 C 
BRANCH   5   6
HETATM    6  C           1     -21.492  -8.483  -4.949  0.00  0.00     0.036 C 
BRANCH   6   7
HETATM    7  C           1     -20.725  -9.781  -5.166  0.00  0.00     0.003 C 
BRANCH   7   8
HETATM    8 Se           1     -18.811  -9.428  -5.086  0.00  0.00     0.000 Se
HETATM    9  C           1     -18.379 -11.082  -4.150  0.00  0.00     0.000 C 
ENDBRANCH   7   8
ENDBRANCH   6   7
ENDBRANCH   5   6
BRANCH   5  10
HETATM   10  C           1     -21.469  -6.396  -3.618  0.00  0.00     0.196 C 
HETATM   11  O           1     -22.232  -5.978  -2.720  0.00  0.00    -0.646 OA
HETATM   12  O           1     -21.053  -5.614  -4.499  0.00  0.00    -0.646 OA
ENDBRANCH   5  10
ENDBRANCH   2   5
BRANCH   3  13
HETATM   13  C           1     -21.547  -9.819  -0.391  0.00  0.00     0.311 C 
HETATM   14  C           1     -23.042  -9.557  -0.359  0.00  0.00     0.047 C 
HETATM   15  C           1     -23.221  -8.390   0.603  0.00  0.00     0.033 C 
HETATM   16  C           1     -21.818  -8.049   1.079  0.00  0.00     0.271 C 
HETATM   17  N           1     -21.074  -9.291   0.886  0.00  0.00     0.097 N 
HETATM   18  H           1     -21.287  -9.936   1.646  0.00  0.00     0.317 HD
ENDBRANCH   3  13
TORSDOF 6
ENDMDL
MODEL 9
REMARK VINA RESULT:      -4.8     25.126     26.322
REMARK  6 active torsions:
REMARK  status: ('A' for Active; 'I' for Inactive)
REMARK    1  A    between atoms: C_1  and  C_11 
REMARK    2  A    between atoms: C_1  and  C_2 
REMARK    3  A    between atoms: C_2  and  C_17 
REMARK    4  A    between atoms: C_2  and  N_7 
REMARK       I    between atoms: N_7  and  C_8 
REMARK    5  A    between atoms: C_8  and  C_10 
REMARK    6  A    between atoms: C_11  and  Se_13 
ROOT
HETATM    1  H           1     -11.707   5.687 -20.420  0.00  0.00     0.163 HD
HETATM    2  N           1     -12.316   6.359 -20.869  0.00  0.00    -0.345 N 
HETATM    3  C           1     -12.139   7.698 -20.649  0.00  0.00     0.251 C 
HETATM    4  O           1     -12.866   8.499 -21.185  0.00  0.00    -0.271 OA
ENDROOT
BRANCH   2   5
HETATM    5  C           1     -13.377   5.902 -21.745  0.00  0.00     0.185 C 
BRANCH   5   6
HETATM    6  C           1     -12.893   4.700 -22.546  0.00  0.00     0.036 C 
BRANCH   6   7
HETATM    7  C           1     -11.469   4.354 -22.131  0.00  0.00     0.003 C 
BRANCH   7   8
HETATM    8 Se           1     -11.501   2.861 -20.879  0.00  0.00     0.000 Se
HETATM    9  C           1     -13.308   2.298 -21.345  0.00  0.00     0.000 C 
ENDBRANCH   7   8
ENDBRANCH   6   7
ENDBRANCH   5   6
BRANCH   5  10
HETATM   10  C           1     -14.576   5.504 -20.918  0.00  0.00     0.196 C 
HETATM   11  O           1     -15.670   5.271 -21.476  0.00  0.00    -0.646 OA
HETATM   12  O           1     -14.474   5.409 -19.677  0.00  0.00    -0.646 OA
ENDBRANCH   5  10
ENDBRANCH   2   5
BRANCH   3  13
HETATM   13  C           1     -11.035   8.172 -19.736  0.00  0.00     0.311 C 
HETATM   14  C           1     -10.337   9.389 -20.318  0.00  0.00     0.047 C 
HETATM   15  C           1      -9.133   8.834 -21.068  0.00  0.00     0.033 C 
HETATM   16  C           1      -9.200   7.329 -20.870  0.00  0.00     0.271 C 
HETATM   17  N           1      -9.974   7.174 -19.642  0.00  0.00     0.097 N 
HETATM   18  H           1      -9.374   7.357 -18.837  0.00  0.00     0.317 HD
ENDBRANCH   3  13
TORSDOF 6
ENDMDL
