MODEL 1
REMARK VINA RESULT:      -6.5      0.000      0.000
REMARK  8 active torsions:
REMARK  status: ('A' for Active; 'I' for Inactive)
REMARK    1  A    between atoms: C_2  and  C_3 
REMARK    2  A    between atoms: C_3  and  C_6 
REMARK    3  A    between atoms: C_3  and  N_23 
REMARK    4  A    between atoms: C_6  and  C_20 
REMARK       I    between atoms: C_7  and  N_23 
REMARK    5  A    between atoms: C_7  and  C_10 
REMARK    6  A    between atoms: C_8  and  C_9 
REMARK    7  A    between atoms: C_9  and  C_10 
REMARK    8  A    between atoms: C_10  and  N_22 
ROOT
HETATM    1  C           1     -21.132  -5.693  -6.774  0.00  0.00     0.280 C 
ENDROOT
BRANCH   1   2
HETATM    2  C           1     -21.670  -4.565  -7.621  0.00  0.00     0.249 C 
HETATM    3  N           1     -22.268  -4.836  -8.822  0.00  0.00    -0.344 N 
HETATM    4  H           1     -22.349  -5.793  -9.143  0.00  0.00     0.163 HD
HETATM    5  O           1     -21.573  -3.424  -7.238  0.00  0.00    -0.271 OA
BRANCH   3   6
HETATM    6  C           1     -22.785  -3.753  -9.635  0.00  0.00     0.195 C 
BRANCH   6   7
HETATM    7  C           1     -24.292  -3.821  -9.663  0.00  0.00     0.197 C 
HETATM    8  O           1     -24.968  -2.784  -9.492  0.00  0.00    -0.646 OA
HETATM    9  O           1     -24.865  -4.916  -9.857  0.00  0.00    -0.646 OA
ENDBRANCH   6   7
BRANCH   6  10
HETATM   10  C           1     -22.245  -3.880 -11.054  0.00  0.00     0.149 C 
BRANCH  10  11
HETATM   11  C           1     -20.745  -3.722 -11.038  0.00  0.00     0.175 C 
HETATM   12  O           1     -20.231  -2.611 -11.291  0.00  0.00    -0.648 OA
HETATM   13  O           1     -20.016  -4.701 -10.769  0.00  0.00    -0.648 OA
ENDBRANCH  10  11
ENDBRANCH   6  10
ENDBRANCH   3   6
ENDBRANCH   1   2
BRANCH   1  14
HETATM   14  C           1     -20.723  -5.154  -5.410  0.00  0.00     0.101 C 
BRANCH  14  15
HETATM   15  C           1     -21.104  -6.140  -4.350  0.00  0.00     0.028 A 
HETATM   16  C           1     -21.068  -7.506  -4.503  0.00  0.00     0.114 A 
HETATM   17  N           1     -21.491  -8.008  -3.304  0.00  0.00    -0.360 N 
HETATM   18  C           1     -21.762  -6.949  -2.487  0.00  0.00     0.180 A 
HETATM   19  H           1     -21.591  -9.025  -3.057  0.00  0.00     0.166 HD
HETATM   20  N           1     -21.537  -5.806  -3.093  0.00  0.00    -0.355 N 
ATOM     21  HN          1     -21.658  -4.868  -2.710  1.00  0.00     0.166 HD
ENDBRANCH  14  15
ENDBRANCH   1  14
BRANCH   1  22
HETATM   22  N           1     -19.937  -6.299  -7.450  0.00  0.00    -0.066 N 
HETATM   23  H           1     -20.247  -7.083  -8.067  0.00  0.00     0.275 HD
HETATM   24  H           1     -19.457  -5.570  -8.027  0.00  0.00     0.275 HD
HETATM   25  H           1     -19.276  -6.663  -6.728  0.00  0.00     0.275 HD
ENDBRANCH   1  22
TORSDOF 8
ENDMDL
MODEL 2
REMARK VINA RESULT:      -6.3      2.579      6.764
REMARK  8 active torsions:
REMARK  status: ('A' for Active; 'I' for Inactive)
REMARK    1  A    between atoms: C_2  and  C_3 
REMARK    2  A    between atoms: C_3  and  C_6 
REMARK    3  A    between atoms: C_3  and  N_23 
REMARK    4  A    between atoms: C_6  and  C_20 
REMARK       I    between atoms: C_7  and  N_23 
REMARK    5  A    between atoms: C_7  and  C_10 
REMARK    6  A    between atoms: C_8  and  C_9 
REMARK    7  A    between atoms: C_9  and  C_10 
REMARK    8  A    between atoms: C_10  and  N_22 
ROOT
HETATM    1  C           1     -23.786  -4.404  -8.841  0.00  0.00     0.280 C 
ENDROOT
BRANCH   1   2
HETATM    2  C           1     -22.521  -4.128  -8.064  0.00  0.00     0.249 C 
HETATM    3  N           1     -22.076  -5.031  -7.136  0.00  0.00    -0.344 N 
HETATM    4  H           1     -22.596  -5.883  -6.970  0.00  0.00     0.163 HD
HETATM    5  O           1     -21.901  -3.111  -8.262  0.00  0.00    -0.271 OA
BRANCH   3   6
HETATM    6  C           1     -20.861  -4.766  -6.390  0.00  0.00     0.195 C 
BRANCH   6   7
HETATM    7  C           1     -19.673  -5.263  -7.175  0.00  0.00     0.197 C 
HETATM    8  O           1     -19.569  -6.478  -7.450  0.00  0.00    -0.646 OA
HETATM    9  O           1     -18.791  -4.460  -7.550  0.00  0.00    -0.646 OA
ENDBRANCH   6   7
BRANCH   6  10
HETATM   10  C           1     -20.921  -5.486  -5.049  0.00  0.00     0.149 C 
BRANCH  10  11
HETATM   11  C           1     -22.041  -6.497  -5.070  0.00  0.00     0.175 C 
HETATM   12  O           1     -23.212  -6.138  -4.824  0.00  0.00    -0.648 OA
HETATM   13  O           1     -21.797  -7.694  -5.335  0.00  0.00    -0.648 OA
ENDBRANCH  10  11
ENDBRANCH   6  10
ENDBRANCH   3   6
ENDBRANCH   1   2
BRANCH   1  14
HETATM   14  C           1     -23.429  -4.973 -10.207  0.00  0.00     0.101 C 
BRANCH  14  15
HETATM   15  C           1     -23.299  -3.856 -11.195  0.00  0.00     0.028 A 
HETATM   16  C           1     -24.303  -3.435 -12.034  0.00  0.00     0.114 A 
HETATM   17  N           1     -23.756  -2.409 -12.753  0.00  0.00    -0.360 N 
HETATM   18  C           1     -22.467  -2.252 -12.331  0.00  0.00     0.180 A 
HETATM   19  H           1     -24.239  -1.844 -13.496  0.00  0.00     0.166 HD
HETATM   20  N           1     -22.163  -3.115 -11.389  0.00  0.00    -0.355 N 
ATOM     21  HN          1     -21.271  -3.212 -10.903  1.00  0.00     0.166 HD
ENDBRANCH  14  15
ENDBRANCH   1  14
BRANCH   1  22
HETATM   22  N           1     -24.552  -3.126  -9.017  0.00  0.00    -0.066 N 
HETATM   23  H           1     -23.885  -2.322  -9.045  0.00  0.00     0.275 HD
HETATM   24  H           1     -25.091  -3.164  -9.912  0.00  0.00     0.275 HD
HETATM   25  H           1     -25.213  -3.003  -8.217  0.00  0.00     0.275 HD
ENDBRANCH   1  22
TORSDOF 8
ENDMDL
MODEL 3
REMARK VINA RESULT:      -6.2      1.713      3.320
REMARK  8 active torsions:
REMARK  status: ('A' for Active; 'I' for Inactive)
REMARK    1  A    between atoms: C_2  and  C_3 
REMARK    2  A    between atoms: C_3  and  C_6 
REMARK    3  A    between atoms: C_3  and  N_23 
REMARK    4  A    between atoms: C_6  and  C_20 
REMARK       I    between atoms: C_7  and  N_23 
REMARK    5  A    between atoms: C_7  and  C_10 
REMARK    6  A    between atoms: C_8  and  C_9 
REMARK    7  A    between atoms: C_9  and  C_10 
REMARK    8  A    between atoms: C_10  and  N_22 
ROOT
HETATM    1  C           1     -20.227  -3.642  -8.108  0.00  0.00     0.280 C 
ENDROOT
BRANCH   1   2
HETATM    2  C           1     -20.676  -4.172  -9.448  0.00  0.00     0.249 C 
HETATM    3  N           1     -21.833  -3.708 -10.015  0.00  0.00    -0.344 N 
HETATM    4  H           1     -22.388  -3.011  -9.534  0.00  0.00     0.163 HD
HETATM    5  O           1     -20.014  -5.004 -10.020  0.00  0.00    -0.271 OA
BRANCH   3   6
HETATM    6  C           1     -22.265  -4.217 -11.302  0.00  0.00     0.195 C 
BRANCH   6   7
HETATM    7  C           1     -22.322  -3.084 -12.296  0.00  0.00     0.197 C 
HETATM    8  O           1     -22.546  -3.321 -13.502  0.00  0.00    -0.646 OA
HETATM    9  O           1     -22.146  -1.907 -11.913  0.00  0.00    -0.646 OA
ENDBRANCH   6   7
BRANCH   6  10
HETATM   10  C           1     -23.647  -4.842 -11.164  0.00  0.00     0.149 C 
BRANCH  10  11
HETATM   11  C           1     -24.419  -4.123 -10.085  0.00  0.00     0.175 C 
HETATM   12  O           1     -25.240  -3.231 -10.393  0.00  0.00    -0.648 OA
HETATM   13  O           1     -24.239  -4.419  -8.884  0.00  0.00    -0.648 OA
ENDBRANCH  10  11
ENDBRANCH   6  10
ENDBRANCH   3   6
ENDBRANCH   1   2
BRANCH   1  14
HETATM   14  C           1     -19.359  -4.683  -7.414  0.00  0.00     0.101 C 
BRANCH  14  15
HETATM   15  C           1     -20.199  -5.483  -6.468  0.00  0.00     0.028 A 
HETATM   16  C           1     -20.418  -5.158  -5.151  0.00  0.00     0.114 A 
HETATM   17  N           1     -21.229  -6.148  -4.671  0.00  0.00    -0.360 N 
HETATM   18  C           1     -21.464  -7.019  -5.696  0.00  0.00     0.180 A 
HETATM   19  H           1     -21.602  -6.226  -3.692  0.00  0.00     0.166 HD
HETATM   20  N           1     -20.853  -6.642  -6.796  0.00  0.00    -0.355 N 
ATOM     21  HN          1     -20.863  -7.112  -7.701  1.00  0.00     0.166 HD
ENDBRANCH  14  15
ENDBRANCH   1  14
BRANCH   1  22
HETATM   22  N           1     -21.429  -3.349  -7.259  0.00  0.00    -0.066 N 
HETATM   23  H           1     -21.259  -2.479  -6.704  0.00  0.00     0.275 HD
HETATM   24  H           1     -22.264  -3.213  -7.873  0.00  0.00     0.275 HD
HETATM   25  H           1     -21.600  -4.149  -6.609  0.00  0.00     0.275 HD
ENDBRANCH   1  22
TORSDOF 8
ENDMDL
MODEL 4
REMARK VINA RESULT:      -6.2     11.099     13.816
REMARK  8 active torsions:
REMARK  status: ('A' for Active; 'I' for Inactive)
REMARK    1  A    between atoms: C_2  and  C_3 
REMARK    2  A    between atoms: C_3  and  C_6 
REMARK    3  A    between atoms: C_3  and  N_23 
REMARK    4  A    between atoms: C_6  and  C_20 
REMARK       I    between atoms: C_7  and  N_23 
REMARK    5  A    between atoms: C_7  and  C_10 
REMARK    6  A    between atoms: C_8  and  C_9 
REMARK    7  A    between atoms: C_9  and  C_10 
REMARK    8  A    between atoms: C_10  and  N_22 
ROOT
HETATM    1  C           1     -25.359  -6.757 -19.591  0.00  0.00     0.280 C 
ENDROOT
BRANCH   1   2
HETATM    2  C           1     -26.680  -6.357 -18.981  0.00  0.00     0.249 C 
HETATM    3  N           1     -26.967  -6.697 -17.686  0.00  0.00    -0.344 N 
HETATM    4  H           1     -26.294  -7.218 -17.138  0.00  0.00     0.163 HD
HETATM    5  O           1     -27.484  -5.736 -19.634  0.00  0.00    -0.271 OA
BRANCH   3   6
HETATM    6  C           1     -28.237  -6.313 -17.099  0.00  0.00     0.195 C 
BRANCH   6   7
HETATM    7  C           1     -28.152  -6.434 -15.598  0.00  0.00     0.197 C 
HETATM    8  O           1     -27.679  -7.468 -15.079  0.00  0.00    -0.646 OA
HETATM    9  O           1     -28.556  -5.500 -14.872  0.00  0.00    -0.646 OA
ENDBRANCH   6   7
BRANCH   6  10
HETATM   10  C           1     -29.336  -7.230 -17.621  0.00  0.00     0.149 C 
BRANCH  10  11
HETATM   11  C           1     -30.658  -6.504 -17.579  0.00  0.00     0.175 C 
HETATM   12  O           1     -30.686  -5.255 -17.561  0.00  0.00    -0.648 OA
HETATM   13  O           1     -31.727  -7.153 -17.563  0.00  0.00    -0.648 OA
ENDBRANCH  10  11
ENDBRANCH   6  10
ENDBRANCH   3   6
ENDBRANCH   1   2
BRANCH   1  14
HETATM   14  C           1     -25.601  -7.747 -20.722  0.00  0.00     0.101 C 
BRANCH  14  15
HETATM   15  C           1     -24.303  -8.052 -21.404  0.00  0.00     0.028 A 
HETATM   16  C           1     -23.989  -7.677 -22.689  0.00  0.00     0.114 A 
HETATM   17  N           1     -22.726  -8.156 -22.899  0.00  0.00    -0.360 N 
HETATM   18  C           1     -22.332  -8.792 -21.756  0.00  0.00     0.180 A 
HETATM   19  H           1     -22.161  -8.055 -23.779  0.00  0.00     0.166 HD
HETATM   20  N           1     -23.267  -8.744 -20.835  0.00  0.00    -0.355 N 
ATOM     21  HN          1     -23.230  -9.139 -19.895  1.00  0.00     0.166 HD
ENDBRANCH  14  15
ENDBRANCH   1  14
BRANCH   1  22
HETATM   22  N           1     -24.498  -7.397 -18.542  0.00  0.00    -0.066 N 
HETATM   23  H           1     -24.697  -8.423 -18.509  0.00  0.00     0.275 HD
HETATM   24  H           1     -23.491  -7.245 -18.778  0.00  0.00     0.275 HD
HETATM   25  H           1     -24.707  -6.971 -17.612  0.00  0.00     0.275 HD
ENDBRANCH   1  22
TORSDOF 8
ENDMDL
MODEL 5
REMARK VINA RESULT:      -6.2      3.237      6.625
REMARK  8 active torsions:
REMARK  status: ('A' for Active; 'I' for Inactive)
REMARK    1  A    between atoms: C_2  and  C_3 
REMARK    2  A    between atoms: C_3  and  C_6 
REMARK    3  A    between atoms: C_3  and  N_23 
REMARK    4  A    between atoms: C_6  and  C_20 
REMARK       I    between atoms: C_7  and  N_23 
REMARK    5  A    between atoms: C_7  and  C_10 
REMARK    6  A    between atoms: C_8  and  C_9 
REMARK    7  A    between atoms: C_9  and  C_10 
REMARK    8  A    between atoms: C_10  and  N_22 
ROOT
HETATM    1  C           1     -21.202  -4.807  -6.500  0.00  0.00     0.280 C 
ENDROOT
BRANCH   1   2
HETATM    2  C           1     -21.810  -5.795  -5.534  0.00  0.00     0.249 C 
HETATM    3  N           1     -21.001  -6.544  -4.722  0.00  0.00    -0.344 N 
HETATM    4  H           1     -19.996  -6.437  -4.771  0.00  0.00     0.163 HD
HETATM    5  O           1     -23.009  -5.923  -5.476  0.00  0.00    -0.271 OA
BRANCH   3   6
HETATM    6  C           1     -21.585  -7.493  -3.793  0.00  0.00     0.195 C 
BRANCH   6   7
HETATM    7  C           1     -21.604  -6.893  -2.409  0.00  0.00     0.197 C 
HETATM    8  O           1     -20.903  -7.391  -1.502  0.00  0.00    -0.646 OA
HETATM    9  O           1     -22.322  -5.898  -2.169  0.00  0.00    -0.646 OA
ENDBRANCH   6   7
BRANCH   6  10
HETATM   10  C           1     -20.754  -8.770  -3.782  0.00  0.00     0.149 C 
BRANCH  10  11
HETATM   11  C           1     -20.290  -9.081  -5.184  0.00  0.00     0.175 C 
HETATM   12  O           1     -21.088  -9.572  -6.011  0.00  0.00    -0.648 OA
HETATM   13  O           1     -19.108  -8.848  -5.518  0.00  0.00    -0.648 OA
ENDBRANCH  10  11
ENDBRANCH   6  10
ENDBRANCH   3   6
ENDBRANCH   1   2
BRANCH   1  14
HETATM   14  C           1     -21.313  -5.351  -7.919  0.00  0.00     0.101 C 
BRANCH  14  15
HETATM   15  C           1     -22.345  -4.572  -8.673  0.00  0.00     0.028 A 
HETATM   16  C           1     -22.230  -4.191  -9.988  0.00  0.00     0.114 A 
HETATM   17  N           1     -23.383  -3.510 -10.263  0.00  0.00    -0.360 N 
HETATM   18  C           1     -24.137  -3.504  -9.124  0.00  0.00     0.180 A 
HETATM   19  H           1     -23.642  -3.071 -11.182  0.00  0.00     0.166 HD
HETATM   20  N           1     -23.534  -4.139  -8.146  0.00  0.00    -0.355 N 
ATOM     21  HN          1     -23.877  -4.280  -7.195  1.00  0.00     0.166 HD
ENDBRANCH  14  15
ENDBRANCH   1  14
BRANCH   1  22
HETATM   22  N           1     -19.757  -4.598  -6.157  0.00  0.00    -0.066 N 
HETATM   23  H           1     -19.165  -5.217  -6.755  0.00  0.00     0.275 HD
HETATM   24  H           1     -19.500  -3.599  -6.328  0.00  0.00     0.275 HD
HETATM   25  H           1     -19.601  -4.831  -5.151  0.00  0.00     0.275 HD
ENDBRANCH   1  22
TORSDOF 8
ENDMDL
MODEL 6
REMARK VINA RESULT:      -6.0      3.274      6.828
REMARK  8 active torsions:
REMARK  status: ('A' for Active; 'I' for Inactive)
REMARK    1  A    between atoms: C_2  and  C_3 
REMARK    2  A    between atoms: C_3  and  C_6 
REMARK    3  A    between atoms: C_3  and  N_23 
REMARK    4  A    between atoms: C_6  and  C_20 
REMARK       I    between atoms: C_7  and  N_23 
REMARK    5  A    between atoms: C_7  and  C_10 
REMARK    6  A    between atoms: C_8  and  C_9 
REMARK    7  A    between atoms: C_9  and  C_10 
REMARK    8  A    between atoms: C_10  and  N_22 
ROOT
HETATM    1  C           1     -20.966  -4.245  -7.425  0.00  0.00     0.280 C 
ENDROOT
BRANCH   1   2
HETATM    2  C           1     -20.621  -4.995  -6.162  0.00  0.00     0.249 C 
HETATM    3  N           1     -20.879  -6.337  -6.070  0.00  0.00    -0.344 N 
HETATM    4  H           1     -21.302  -6.825  -6.849  0.00  0.00     0.163 HD
HETATM    5  O           1     -20.116  -4.413  -5.233  0.00  0.00    -0.271 OA
BRANCH   3   6
HETATM    6  C           1     -20.547  -7.058  -4.857  0.00  0.00     0.195 C 
BRANCH   6   7
HETATM    7  C           1     -19.877  -8.362  -5.215  0.00  0.00     0.197 C 
HETATM    8  O           1     -20.179  -9.409  -4.602  0.00  0.00    -0.646 OA
HETATM    9  O           1     -19.021  -8.395  -6.125  0.00  0.00    -0.646 OA
ENDBRANCH   6   7
BRANCH   6  10
HETATM   10  C           1     -21.820  -7.341  -4.069  0.00  0.00     0.149 C 
BRANCH  10  11
HETATM   11  C           1     -21.662  -6.831  -2.658  0.00  0.00     0.175 C 
HETATM   12  O           1     -22.343  -5.859  -2.265  0.00  0.00    -0.648 OA
HETATM   13  O           1     -20.851  -7.381  -1.881  0.00  0.00    -0.648 OA
ENDBRANCH  10  11
ENDBRANCH   6  10
ENDBRANCH   3   6
ENDBRANCH   1   2
BRANCH   1  14
HETATM   14  C           1     -21.750  -5.157  -8.360  0.00  0.00     0.101 C 
BRANCH  14  15
HETATM   15  C           1     -22.786  -4.357  -9.086  0.00  0.00     0.028 A 
HETATM   16  C           1     -22.679  -3.942 -10.392  0.00  0.00     0.114 A 
HETATM   17  N           1     -23.832  -3.252 -10.640  0.00  0.00    -0.360 N 
HETATM   18  C           1     -24.578  -3.274  -9.497  0.00  0.00     0.180 A 
HETATM   19  H           1     -24.097  -2.788 -11.546  0.00  0.00     0.166 HD
HETATM   20  N           1     -23.970  -3.935  -8.539  0.00  0.00    -0.355 N 
ATOM     21  HN          1     -24.306  -4.101  -7.590  1.00  0.00     0.166 HD
ENDBRANCH  14  15
ENDBRANCH   1  14
BRANCH   1  22
HETATM   22  N           1     -19.704  -3.801  -8.103  0.00  0.00    -0.066 N 
HETATM   23  H           1     -19.338  -4.578  -8.699  0.00  0.00     0.275 HD
HETATM   24  H           1     -19.905  -2.968  -8.702  0.00  0.00     0.275 HD
HETATM   25  H           1     -18.991  -3.549  -7.382  0.00  0.00     0.275 HD
ENDBRANCH   1  22
TORSDOF 8
ENDMDL
MODEL 7
REMARK VINA RESULT:      -6.0      3.364      7.420
REMARK  8 active torsions:
REMARK  status: ('A' for Active; 'I' for Inactive)
REMARK    1  A    between atoms: C_2  and  C_3 
REMARK    2  A    between atoms: C_3  and  C_6 
REMARK    3  A    between atoms: C_3  and  N_23 
REMARK    4  A    between atoms: C_6  and  C_20 
REMARK       I    between atoms: C_7  and  N_23 
REMARK    5  A    between atoms: C_7  and  C_10 
REMARK    6  A    between atoms: C_8  and  C_9 
REMARK    7  A    between atoms: C_9  and  C_10 
REMARK    8  A    between atoms: C_10  and  N_22 
ROOT
HETATM    1  C           1     -23.088  -2.959 -11.600  0.00  0.00     0.280 C 
ENDROOT
BRANCH   1   2
HETATM    2  C           1     -23.079  -4.058 -10.566  0.00  0.00     0.249 C 
HETATM    3  N           1     -22.298  -3.940  -9.448  0.00  0.00    -0.344 N 
HETATM    4  H           1     -21.724  -3.116  -9.316  0.00  0.00     0.163 HD
HETATM    5  O           1     -23.763  -5.040 -10.723  0.00  0.00    -0.271 OA
BRANCH   3   6
HETATM    6  C           1     -22.290  -4.995  -8.453  0.00  0.00     0.195 C 
BRANCH   6   7
HETATM    7  C           1     -22.740  -4.437  -7.126  0.00  0.00     0.197 C 
HETATM    8  O           1     -21.905  -3.940  -6.341  0.00  0.00    -0.646 OA
HETATM    9  O           1     -23.950  -4.472  -6.811  0.00  0.00    -0.646 OA
ENDBRANCH   6   7
BRANCH   6  10
HETATM   10  C           1     -20.879  -5.554  -8.317  0.00  0.00     0.149 C 
BRANCH  10  11
HETATM   11  C           1     -19.909  -4.654  -9.041  0.00  0.00     0.175 C 
HETATM   12  O           1     -19.735  -4.785 -10.272  0.00  0.00    -0.648 OA
HETATM   13  O           1     -19.280  -3.777  -8.410  0.00  0.00    -0.648 OA
ENDBRANCH  10  11
ENDBRANCH   6  10
ENDBRANCH   3   6
ENDBRANCH   1   2
BRANCH   1  14
HETATM   14  C           1     -23.738  -3.470 -12.879  0.00  0.00     0.101 C 
BRANCH  14  15
HETATM   15  C           1     -23.572  -2.452 -13.964  0.00  0.00     0.028 A 
HETATM   16  C           1     -22.696  -2.569 -15.017  0.00  0.00     0.114 A 
HETATM   17  N           1     -22.874  -1.430 -15.753  0.00  0.00    -0.360 N 
HETATM   18  C           1     -23.830  -0.682 -15.129  0.00  0.00     0.180 A 
HETATM   19  H           1     -22.366  -1.177 -16.638  0.00  0.00     0.166 HD
HETATM   20  N           1     -24.271  -1.276 -14.044  0.00  0.00    -0.355 N 
ATOM     21  HN          1     -24.983  -0.935 -13.397  1.00  0.00     0.166 HD
ENDBRANCH  14  15
ENDBRANCH   1  14
BRANCH   1  22
HETATM   22  N           1     -21.677  -2.537 -11.892  0.00  0.00    -0.066 N 
HETATM   23  H           1     -21.082  -3.385 -12.026  0.00  0.00     0.275 HD
HETATM   24  H           1     -21.660  -1.958 -12.762  0.00  0.00     0.275 HD
HETATM   25  H           1     -21.310  -1.975 -11.092  0.00  0.00     0.275 HD
ENDBRANCH   1  22
TORSDOF 8
ENDMDL
MODEL 8
REMARK VINA RESULT:      -6.0      3.153      7.404
REMARK  8 active torsions:
REMARK  status: ('A' for Active; 'I' for Inactive)
REMARK    1  A    between atoms: C_2  and  C_3 
REMARK    2  A    between atoms: C_3  and  C_6 
REMARK    3  A    between atoms: C_3  and  N_23 
REMARK    4  A    between atoms: C_6  and  C_20 
REMARK       I    between atoms: C_7  and  N_23 
REMARK    5  A    between atoms: C_7  and  C_10 
REMARK    6  A    between atoms: C_8  and  C_9 
REMARK    7  A    between atoms: C_9  and  C_10 
REMARK    8  A    between atoms: C_10  and  N_22 
ROOT
HETATM    1  C           1     -21.844  -3.555 -11.359  0.00  0.00     0.280 C 
ENDROOT
BRANCH   1   2
HETATM    2  C           1     -22.179  -4.306 -10.093  0.00  0.00     0.249 C 
HETATM    3  N           1     -21.200  -4.565  -9.171  0.00  0.00    -0.344 N 
HETATM    4  H           1     -20.252  -4.255  -9.340  0.00  0.00     0.163 HD
HETATM    5  O           1     -23.311  -4.676  -9.892  0.00  0.00    -0.271 OA
BRANCH   3   6
HETATM    6  C           1     -21.522  -5.287  -7.955  0.00  0.00     0.195 C 
BRANCH   6   7
HETATM    7  C           1     -22.208  -4.356  -6.986  0.00  0.00     0.197 C 
HETATM    8  O           1     -23.374  -4.597  -6.607  0.00  0.00    -0.646 OA
HETATM    9  O           1     -21.610  -3.343  -6.563  0.00  0.00    -0.646 OA
ENDBRANCH   6   7
BRANCH   6  10
HETATM   10  C           1     -20.241  -5.820  -7.326  0.00  0.00     0.149 C 
BRANCH  10  11
HETATM   11  C           1     -20.584  -6.656  -6.118  0.00  0.00     0.175 C 
HETATM   12  O           1     -21.119  -7.776  -6.265  0.00  0.00    -0.648 OA
HETATM   13  O           1     -20.332  -6.229  -4.970  0.00  0.00    -0.648 OA
ENDBRANCH  10  11
ENDBRANCH   6  10
ENDBRANCH   3   6
ENDBRANCH   1   2
BRANCH   1  14
HETATM   14  C           1     -22.634  -4.141 -12.521  0.00  0.00     0.101 C 
BRANCH  14  15
HETATM   15  C           1     -23.027  -3.044 -13.461  0.00  0.00     0.028 A 
HETATM   16  C           1     -23.978  -2.089 -13.191  0.00  0.00     0.114 A 
HETATM   17  N           1     -24.015  -1.301 -14.308  0.00  0.00    -0.360 N 
HETATM   18  C           1     -23.103  -1.800 -15.194  0.00  0.00     0.180 A 
HETATM   19  H           1     -24.632  -0.464 -14.458  0.00  0.00     0.166 HD
HETATM   20  N           1     -22.491  -2.856 -14.708  0.00  0.00    -0.355 N 
ATOM     21  HN          1     -21.769  -3.416 -15.162  1.00  0.00     0.166 HD
ENDBRANCH  14  15
ENDBRANCH   1  14
BRANCH   1  22
HETATM   22  N           1     -20.375  -3.680 -11.639  0.00  0.00    -0.066 N 
HETATM   23  H           1     -20.038  -2.814 -12.116  0.00  0.00     0.275 HD
HETATM   24  H           1     -19.858  -3.807 -10.739  0.00  0.00     0.275 HD
HETATM   25  H           1     -20.208  -4.506 -12.257  0.00  0.00     0.275 HD
ENDBRANCH   1  22
TORSDOF 8
ENDMDL
MODEL 9
REMARK VINA RESULT:      -5.9      3.283      7.149
REMARK  8 active torsions:
REMARK  status: ('A' for Active; 'I' for Inactive)
REMARK    1  A    between atoms: C_2  and  C_3 
REMARK    2  A    between atoms: C_3  and  C_6 
REMARK    3  A    between atoms: C_3  and  N_23 
REMARK    4  A    between atoms: C_6  and  C_20 
REMARK       I    between atoms: C_7  and  N_23 
REMARK    5  A    between atoms: C_7  and  C_10 
REMARK    6  A    between atoms: C_8  and  C_9 
REMARK    7  A    between atoms: C_9  and  C_10 
REMARK    8  A    between atoms: C_10  and  N_22 
ROOT
HETATM    1  C           1     -22.292  -5.147  -6.902  0.00  0.00     0.280 C 
ENDROOT
BRANCH   1   2
HETATM    2  C           1     -21.423  -5.615  -5.760  0.00  0.00     0.249 C 
HETATM    3  N           1     -21.644  -6.840  -5.189  0.00  0.00    -0.344 N 
HETATM    4  H           1     -22.392  -7.430  -5.531  0.00  0.00     0.163 HD
HETATM    5  O           1     -20.532  -4.911  -5.351  0.00  0.00    -0.271 OA
BRANCH   3   6
HETATM    6  C           1     -20.810  -7.290  -4.092  0.00  0.00     0.195 C 
BRANCH   6   7
HETATM    7  C           1     -19.873  -8.366  -4.583  0.00  0.00     0.197 C 
HETATM    8  O           1     -19.572  -9.321  -3.835  0.00  0.00    -0.646 OA
HETATM    9  O           1     -19.399  -8.303  -5.738  0.00  0.00    -0.646 OA
ENDBRANCH   6   7
BRANCH   6  10
HETATM   10  C           1     -21.689  -7.850  -2.981  0.00  0.00     0.149 C 
BRANCH  10  11
HETATM   11  C           1     -22.002  -6.758  -1.988  0.00  0.00     0.175 C 
HETATM   12  O           1     -21.916  -5.559  -2.330  0.00  0.00    -0.648 OA
HETATM   13  O           1     -22.348  -7.052  -0.823  0.00  0.00    -0.648 OA
ENDBRANCH  10  11
ENDBRANCH   6  10
ENDBRANCH   3   6
ENDBRANCH   1   2
BRANCH   1  14
HETATM   14  C           1     -21.709  -3.872  -7.495  0.00  0.00     0.101 C 
BRANCH  14  15
HETATM   15  C           1     -21.441  -4.076  -8.953  0.00  0.00     0.028 A 
HETATM   16  C           1     -22.409  -4.098  -9.930  0.00  0.00     0.114 A 
HETATM   17  N           1     -21.729  -4.309 -11.097  0.00  0.00    -0.360 N 
HETATM   18  C           1     -20.402  -4.406 -10.789  0.00  0.00     0.180 A 
HETATM   19  H           1     -22.151  -4.384 -12.057  0.00  0.00     0.166 HD
HETATM   20  N           1     -20.199  -4.269  -9.499  0.00  0.00    -0.355 N 
ATOM     21  HN          1     -19.305  -4.299  -9.007  1.00  0.00     0.166 HD
ENDBRANCH  14  15
ENDBRANCH   1  14
BRANCH   1  22
HETATM   22  N           1     -23.678  -4.874  -6.395  0.00  0.00    -0.066 N 
HETATM   23  H           1     -24.163  -5.779  -6.204  0.00  0.00     0.275 HD
HETATM   24  H           1     -23.622  -4.315  -5.513  0.00  0.00     0.275 HD
HETATM   25  H           1     -24.212  -4.337  -7.114  0.00  0.00     0.275 HD
ENDBRANCH   1  22
TORSDOF 8
ENDMDL
