MODEL 1
REMARK VINA RESULT:      -7.4      0.000      0.000
REMARK  9 active torsions:
REMARK  status: ('A' for Active; 'I' for Inactive)
REMARK    1  A    between atoms: C_2  and  C_10 
REMARK    2  A    between atoms: C_2  and  S_3 
REMARK    3  A    between atoms: N_7  and  C_27 
REMARK       I    between atoms: N_7  and  C_11 
REMARK    4  A    between atoms: C_8  and  C_27 
REMARK    5  A    between atoms: C_8  and  C_18 
REMARK    6  A    between atoms: C_10  and  C_23 
REMARK    7  A    between atoms: C_11  and  C_23 
REMARK    8  A    between atoms: N_16  and  C_23 
REMARK    9  A    between atoms: C_21  and  C_27 
ROOT
HETATM    1  C           1     -21.848  -6.597  -5.809  0.00  0.00     0.190 C 
ENDROOT
BRANCH   1   2
HETATM    2  N           1     -22.354  -6.223  -4.503  0.00  0.00    -0.344 N 
HETATM    3  C           1     -21.558  -6.353  -3.397  0.00  0.00     0.249 C 
HETATM    4  O           1     -20.851  -5.436  -3.050  0.00  0.00    -0.271 OA
HETATM    5  H           1     -23.297  -5.867  -4.408  0.00  0.00     0.163 HD
BRANCH   3   6
HETATM    6  C           1     -21.561  -7.641  -2.610  0.00  0.00     0.275 C 
BRANCH   6   7
HETATM    7  C           1     -22.041  -7.368  -1.190  0.00  0.00     0.053 C 
BRANCH   7   8
HETATM    8  C           1     -22.339  -8.688  -0.491  0.00  0.00     0.076 C 
BRANCH   8   9
HETATM    9  S           1     -21.290  -8.844   0.981  0.00  0.00    -0.173 SA
HETATM   10  C           1     -20.710 -10.530   0.635  0.00  0.00     0.089 C 
ENDBRANCH   8   9
ENDBRANCH   7   8
ENDBRANCH   6   7
BRANCH   6  11
HETATM   11  N           1     -20.171  -8.204  -2.568  0.00  0.00    -0.066 N 
HETATM   12  H           1     -19.484  -7.425  -2.453  0.00  0.00     0.275 HD
HETATM   13  H           1     -19.974  -8.715  -3.458  0.00  0.00     0.275 HD
HETATM   14  H           1     -20.087  -8.863  -1.761  0.00  0.00     0.275 HD
ENDBRANCH   6  11
ENDBRANCH   3   6
ENDBRANCH   1   2
BRANCH   1  15
HETATM   15  C           1     -21.115  -5.413  -6.427  0.00  0.00     0.077 C 
BRANCH  15  16
HETATM   16  C           1     -21.981  -4.782  -7.472  0.00  0.00    -0.028 A 
HETATM   17  C           1     -21.588  -4.451  -8.799  0.00  0.00    -0.002 A 
HETATM   18  C           1     -22.697  -3.886  -9.427  0.00  0.00     0.042 A 
HETATM   19  C           1     -20.388  -4.579  -9.526  0.00  0.00     0.014 A 
HETATM   20  C           1     -22.668  -3.440 -10.754  0.00  0.00     0.030 A 
HETATM   21  N           1     -23.722  -3.877  -8.508  0.00  0.00    -0.365 N 
HETATM   22  C           1     -21.467  -3.578 -11.456  0.00  0.00     0.002 A 
HETATM   23  C           1     -20.343  -4.139 -10.854  0.00  0.00     0.001 A 
HETATM   24  H           1     -24.690  -3.510  -8.690  0.00  0.00     0.165 HD
HETATM   25  C           1     -23.300  -4.417  -7.323  0.00  0.00     0.096 A 
ENDBRANCH  15  16
ENDBRANCH   1  15
BRANCH   1  26
HETATM   26  C           1     -20.895  -7.759  -5.665  0.00  0.00     0.197 C 
HETATM   27  O           1     -19.663  -7.556  -5.633  0.00  0.00    -0.646 OA
HETATM   28  O           1     -21.339  -8.924  -5.578  0.00  0.00    -0.646 OA
ENDBRANCH   1  26
TORSDOF 9
ENDMDL
MODEL 2
REMARK VINA RESULT:      -7.2      3.257      7.783
REMARK  9 active torsions:
REMARK  status: ('A' for Active; 'I' for Inactive)
REMARK    1  A    between atoms: C_2  and  C_10 
REMARK    2  A    between atoms: C_2  and  S_3 
REMARK    3  A    between atoms: N_7  and  C_27 
REMARK       I    between atoms: N_7  and  C_11 
REMARK    4  A    between atoms: C_8  and  C_27 
REMARK    5  A    between atoms: C_8  and  C_18 
REMARK    6  A    between atoms: C_10  and  C_23 
REMARK    7  A    between atoms: C_11  and  C_23 
REMARK    8  A    between atoms: N_16  and  C_23 
REMARK    9  A    between atoms: C_21  and  C_27 
ROOT
HETATM    1  C           1     -20.045  -7.373  -5.316  0.00  0.00     0.190 C 
ENDROOT
BRANCH   1   2
HETATM    2  N           1     -20.078  -6.922  -6.694  0.00  0.00    -0.344 N 
HETATM    3  C           1     -20.166  -5.585  -6.974  0.00  0.00     0.249 C 
HETATM    4  O           1     -19.160  -4.927  -7.102  0.00  0.00    -0.271 OA
HETATM    5  H           1     -20.037  -7.596  -7.448  0.00  0.00     0.163 HD
BRANCH   3   6
HETATM    6  C           1     -21.518  -4.932  -7.125  0.00  0.00     0.275 C 
BRANCH   6   7
HETATM    7  C           1     -21.956  -4.999  -8.583  0.00  0.00     0.053 C 
BRANCH   7   8
HETATM    8  C           1     -22.651  -3.699  -8.966  0.00  0.00     0.076 C 
BRANCH   8   9
HETATM    9  S           1     -22.983  -3.693 -10.750  0.00  0.00    -0.173 SA
HETATM   10  C           1     -21.346  -4.290 -11.260  0.00  0.00     0.089 C 
ENDBRANCH   8   9
ENDBRANCH   7   8
ENDBRANCH   6   7
BRANCH   6  11
HETATM   11  N           1     -21.430  -3.497  -6.696  0.00  0.00    -0.066 N 
HETATM   12  H           1     -22.053  -2.914  -7.300  0.00  0.00     0.275 HD
HETATM   13  H           1     -20.444  -3.165  -6.789  0.00  0.00     0.275 HD
HETATM   14  H           1     -21.734  -3.413  -5.699  0.00  0.00     0.275 HD
ENDBRANCH   6  11
ENDBRANCH   3   6
ENDBRANCH   1   2
BRANCH   1  15
HETATM   15  C           1     -21.439  -7.819  -4.894  0.00  0.00     0.077 C 
BRANCH  15  16
HETATM   16  C           1     -21.743  -7.284  -3.530  0.00  0.00    -0.028 A 
HETATM   17  C           1     -21.840  -8.046  -2.333  0.00  0.00    -0.002 A 
HETATM   18  C           1     -22.137  -7.155  -1.301  0.00  0.00     0.042 A 
HETATM   19  C           1     -21.704  -9.414  -2.029  0.00  0.00     0.014 A 
HETATM   20  C           1     -22.304  -7.565   0.027  0.00  0.00     0.030 A 
HETATM   21  N           1     -22.215  -5.900  -1.861  0.00  0.00    -0.365 N 
HETATM   22  C           1     -22.164  -8.928   0.305  0.00  0.00     0.002 A 
HETATM   23  C           1     -21.868  -9.842  -0.706  0.00  0.00     0.001 A 
HETATM   24  H           1     -22.425  -5.017  -1.331  0.00  0.00     0.165 HD
HETATM   25  C           1     -21.978  -5.966  -3.208  0.00  0.00     0.096 A 
ENDBRANCH  15  16
ENDBRANCH   1  15
BRANCH   1  26
HETATM   26  C           1     -19.086  -8.531  -5.189  0.00  0.00     0.197 C 
HETATM   27  O           1     -18.617  -9.069  -6.215  0.00  0.00    -0.646 OA
HETATM   28  O           1     -18.761  -8.952  -4.059  0.00  0.00    -0.646 OA
ENDBRANCH   1  26
TORSDOF 9
ENDMDL
MODEL 3
REMARK VINA RESULT:      -7.1      1.756      2.652
REMARK  9 active torsions:
REMARK  status: ('A' for Active; 'I' for Inactive)
REMARK    1  A    between atoms: C_2  and  C_10 
REMARK    2  A    between atoms: C_2  and  S_3 
REMARK    3  A    between atoms: N_7  and  C_27 
REMARK       I    between atoms: N_7  and  C_11 
REMARK    4  A    between atoms: C_8  and  C_27 
REMARK    5  A    between atoms: C_8  and  C_18 
REMARK    6  A    between atoms: C_10  and  C_23 
REMARK    7  A    between atoms: C_11  and  C_23 
REMARK    8  A    between atoms: N_16  and  C_23 
REMARK    9  A    between atoms: C_21  and  C_27 
ROOT
HETATM    1  C           1     -21.554  -5.505  -6.874  0.00  0.00     0.190 C 
ENDROOT
BRANCH   1   2
HETATM    2  N           1     -22.349  -5.760  -5.689  0.00  0.00    -0.344 N 
HETATM    3  C           1     -21.787  -6.385  -4.609  0.00  0.00     0.249 C 
HETATM    4  O           1     -21.256  -5.732  -3.742  0.00  0.00    -0.271 OA
HETATM    5  H           1     -23.320  -5.477  -5.660  0.00  0.00     0.163 HD
BRANCH   3   6
HETATM    6  C           1     -21.829  -7.890  -4.500  0.00  0.00     0.275 C 
BRANCH   6   7
HETATM    7  C           1     -21.062  -8.333  -3.261  0.00  0.00     0.053 C 
BRANCH   7   8
HETATM    8  C           1     -21.754  -9.538  -2.637  0.00  0.00     0.076 C 
BRANCH   8   9
HETATM    9  S           1     -21.806  -9.340  -0.834  0.00  0.00    -0.173 SA
HETATM   10  C           1     -22.157  -7.559  -0.839  0.00  0.00     0.089 C 
ENDBRANCH   8   9
ENDBRANCH   7   8
ENDBRANCH   6   7
BRANCH   6  11
HETATM   11  N           1     -21.199  -8.496  -5.720  0.00  0.00    -0.066 N 
HETATM   12  H           1     -20.197  -8.203  -5.776  0.00  0.00     0.275 HD
HETATM   13  H           1     -21.707  -8.170  -6.573  0.00  0.00     0.275 HD
HETATM   14  H           1     -21.253  -9.538  -5.658  0.00  0.00     0.275 HD
ENDBRANCH   6  11
ENDBRANCH   3   6
ENDBRANCH   1   2
BRANCH   1  15
HETATM   15  C           1     -21.884  -4.120  -7.417  0.00  0.00     0.077 C 
BRANCH  15  16
HETATM   16  C           1     -21.551  -4.065  -8.876  0.00  0.00    -0.028 A 
HETATM   17  C           1     -22.461  -3.783  -9.933  0.00  0.00    -0.002 A 
HETATM   18  C           1     -21.735  -3.833 -11.123  0.00  0.00     0.042 A 
HETATM   19  C           1     -23.837  -3.491  -9.989  0.00  0.00     0.014 A 
HETATM   20  C           1     -22.320  -3.603 -12.375  0.00  0.00     0.030 A 
HETATM   21  N           1     -20.433  -4.134 -10.791  0.00  0.00    -0.365 N 
HETATM   22  C           1     -23.687  -3.315 -12.405  0.00  0.00     0.002 A 
HETATM   23  C           1     -24.437  -3.258 -11.232  0.00  0.00     0.001 A 
HETATM   24  H           1     -19.647  -4.240 -11.479  0.00  0.00     0.165 HD
HETATM   25  C           1     -20.311  -4.276  -9.435  0.00  0.00     0.096 A 
ENDBRANCH  15  16
ENDBRANCH   1  15
BRANCH   1  26
HETATM   26  C           1     -20.088  -5.570  -6.519  0.00  0.00     0.197 C 
HETATM   27  O           1     -19.426  -6.595  -6.786  0.00  0.00    -0.646 OA
HETATM   28  O           1     -19.537  -4.599  -5.958  0.00  0.00    -0.646 OA
ENDBRANCH   1  26
TORSDOF 9
ENDMDL
MODEL 4
REMARK VINA RESULT:      -7.0      3.449      8.262
REMARK  9 active torsions:
REMARK  status: ('A' for Active; 'I' for Inactive)
REMARK    1  A    between atoms: C_2  and  C_10 
REMARK    2  A    between atoms: C_2  and  S_3 
REMARK    3  A    between atoms: N_7  and  C_27 
REMARK       I    between atoms: N_7  and  C_11 
REMARK    4  A    between atoms: C_8  and  C_27 
REMARK    5  A    between atoms: C_8  and  C_18 
REMARK    6  A    between atoms: C_10  and  C_23 
REMARK    7  A    between atoms: C_11  and  C_23 
REMARK    8  A    between atoms: N_16  and  C_23 
REMARK    9  A    between atoms: C_21  and  C_27 
ROOT
HETATM    1  C           1     -21.152  -7.131  -5.904  0.00  0.00     0.190 C 
ENDROOT
BRANCH   1   2
HETATM    2  N           1     -20.413  -6.396  -6.912  0.00  0.00    -0.344 N 
HETATM    3  C           1     -20.803  -5.131  -7.259  0.00  0.00     0.249 C 
HETATM    4  O           1     -20.354  -4.177  -6.669  0.00  0.00    -0.271 OA
HETATM    5  H           1     -19.609  -6.819  -7.359  0.00  0.00     0.163 HD
BRANCH   3   6
HETATM    6  C           1     -21.794  -4.928  -8.380  0.00  0.00     0.275 C 
BRANCH   6   7
HETATM    7  C           1     -21.115  -4.202  -9.533  0.00  0.00     0.053 C 
BRANCH   7   8
HETATM    8  C           1     -21.852  -4.505 -10.831  0.00  0.00     0.076 C 
BRANCH   8   9
HETATM    9  S           1     -22.319  -2.950 -11.641  0.00  0.00    -0.173 SA
HETATM   10  C           1     -24.114  -3.189 -11.511  0.00  0.00     0.089 C 
ENDBRANCH   8   9
ENDBRANCH   7   8
ENDBRANCH   6   7
BRANCH   6  11
HETATM   11  N           1     -22.947  -4.106  -7.882  0.00  0.00    -0.066 N 
HETATM   12  H           1     -23.557  -3.839  -8.688  0.00  0.00     0.275 HD
HETATM   13  H           1     -22.585  -3.242  -7.418  0.00  0.00     0.275 HD
HETATM   14  H           1     -23.502  -4.665  -7.196  0.00  0.00     0.275 HD
ENDBRANCH   6  11
ENDBRANCH   3   6
ENDBRANCH   1   2
BRANCH   1  15
HETATM   15  C           1     -20.178  -7.910  -5.028  0.00  0.00     0.077 C 
BRANCH  15  16
HETATM   16  C           1     -20.933  -8.910  -4.209  0.00  0.00    -0.028 A 
HETATM   17  C           1     -21.171  -8.839  -2.809  0.00  0.00    -0.002 A 
HETATM   18  C           1     -21.909  -9.970  -2.460  0.00  0.00     0.042 A 
HETATM   19  C           1     -20.826  -7.917  -1.802  0.00  0.00     0.014 A 
HETATM   20  C           1     -22.323 -10.227  -1.147  0.00  0.00     0.030 A 
HETATM   21  N           1     -22.107 -10.696  -3.613  0.00  0.00    -0.365 N 
HETATM   22  C           1     -21.969  -9.297  -0.165  0.00  0.00     0.002 A 
HETATM   23  C           1     -21.232  -8.158  -0.484  0.00  0.00     0.001 A 
HETATM   24  H           1     -22.633 -11.603  -3.669  0.00  0.00     0.165 HD
HETATM   25  C           1     -21.521 -10.064  -4.677  0.00  0.00     0.096 A 
ENDBRANCH  15  16
ENDBRANCH   1  15
BRANCH   1  26
HETATM   26  C           1     -21.935  -6.165  -5.049  0.00  0.00     0.197 C 
HETATM   27  O           1     -23.146  -5.965  -5.282  0.00  0.00    -0.646 OA
HETATM   28  O           1     -21.372  -5.563  -4.110  0.00  0.00    -0.646 OA
ENDBRANCH   1  26
TORSDOF 9
ENDMDL
MODEL 5
REMARK VINA RESULT:      -7.0      2.276      2.574
REMARK  9 active torsions:
REMARK  status: ('A' for Active; 'I' for Inactive)
REMARK    1  A    between atoms: C_2  and  C_10 
REMARK    2  A    between atoms: C_2  and  S_3 
REMARK    3  A    between atoms: N_7  and  C_27 
REMARK       I    between atoms: N_7  and  C_11 
REMARK    4  A    between atoms: C_8  and  C_27 
REMARK    5  A    between atoms: C_8  and  C_18 
REMARK    6  A    between atoms: C_10  and  C_23 
REMARK    7  A    between atoms: C_11  and  C_23 
REMARK    8  A    between atoms: N_16  and  C_23 
REMARK    9  A    between atoms: C_21  and  C_27 
ROOT
HETATM    1  C           1     -21.080  -6.101  -7.128  0.00  0.00     0.190 C 
ENDROOT
BRANCH   1   2
HETATM    2  N           1     -21.705  -7.060  -6.238  0.00  0.00    -0.344 N 
HETATM    3  C           1     -22.162  -6.658  -5.012  0.00  0.00     0.249 C 
HETATM    4  O           1     -23.297  -6.261  -4.891  0.00  0.00    -0.271 OA
HETATM    5  H           1     -21.803  -8.026  -6.522  0.00  0.00     0.163 HD
BRANCH   3   6
HETATM    6  C           1     -21.249  -6.709  -3.811  0.00  0.00     0.275 C 
BRANCH   6   7
HETATM    7  C           1     -21.145  -8.144  -3.312  0.00  0.00     0.053 C 
BRANCH   7   8
HETATM    8  C           1     -19.779  -8.712  -3.675  0.00  0.00     0.076 C 
BRANCH   8   9
HETATM    9  S           1     -19.989 -10.125  -4.794  0.00  0.00    -0.173 SA
HETATM   10  C           1     -21.671 -10.553  -4.264  0.00  0.00     0.089 C 
ENDBRANCH   8   9
ENDBRANCH   7   8
ENDBRANCH   6   7
BRANCH   6  11
HETATM   11  N           1     -21.807  -5.841  -2.722  0.00  0.00    -0.066 N 
HETATM   12  H           1     -22.792  -5.578  -2.957  0.00  0.00     0.275 HD
HETATM   13  H           1     -21.227  -4.977  -2.633  0.00  0.00     0.275 HD
HETATM   14  H           1     -21.794  -6.366  -1.818  0.00  0.00     0.275 HD
ENDBRANCH   6  11
ENDBRANCH   3   6
ENDBRANCH   1   2
BRANCH   1  15
HETATM   15  C           1     -21.618  -4.707  -6.832  0.00  0.00     0.077 C 
BRANCH  15  16
HETATM   16  C           1     -22.501  -4.264  -7.957  0.00  0.00    -0.028 A 
HETATM   17  C           1     -22.080  -3.952  -9.280  0.00  0.00    -0.002 A 
HETATM   18  C           1     -23.219  -3.586  -9.997  0.00  0.00     0.042 A 
HETATM   19  C           1     -20.834  -3.947  -9.936  0.00  0.00     0.014 A 
HETATM   20  C           1     -23.175  -3.213 -11.346  0.00  0.00     0.030 A 
HETATM   21  N           1     -24.287  -3.675  -9.133  0.00  0.00    -0.365 N 
HETATM   22  C           1     -21.928  -3.216 -11.976  0.00  0.00     0.002 A 
HETATM   23  C           1     -20.773  -3.577 -11.285  0.00  0.00     0.001 A 
HETATM   24  H           1     -25.284  -3.461  -9.385  0.00  0.00     0.165 HD
HETATM   25  C           1     -23.864  -4.084  -7.896  0.00  0.00     0.096 A 
ENDBRANCH  15  16
ENDBRANCH   1  15
BRANCH   1  26
HETATM   26  C           1     -19.585  -6.120  -6.917  0.00  0.00     0.197 C 
HETATM   27  O           1     -18.998  -7.202  -6.709  0.00  0.00    -0.646 OA
HETATM   28  O           1     -18.937  -5.052  -6.950  0.00  0.00    -0.646 OA
ENDBRANCH   1  26
TORSDOF 9
ENDMDL
MODEL 6
REMARK VINA RESULT:      -7.0      3.715      6.998
REMARK  9 active torsions:
REMARK  status: ('A' for Active; 'I' for Inactive)
REMARK    1  A    between atoms: C_2  and  C_10 
REMARK    2  A    between atoms: C_2  and  S_3 
REMARK    3  A    between atoms: N_7  and  C_27 
REMARK       I    between atoms: N_7  and  C_11 
REMARK    4  A    between atoms: C_8  and  C_27 
REMARK    5  A    between atoms: C_8  and  C_18 
REMARK    6  A    between atoms: C_10  and  C_23 
REMARK    7  A    between atoms: C_11  and  C_23 
REMARK    8  A    between atoms: N_16  and  C_23 
REMARK    9  A    between atoms: C_21  and  C_27 
ROOT
HETATM    1  C           1     -21.314  -8.750  -2.000  0.00  0.00     0.190 C 
ENDROOT
BRANCH   1   2
HETATM    2  N           1     -20.883  -7.413  -2.357  0.00  0.00    -0.344 N 
HETATM    3  C           1     -21.742  -6.567  -3.004  0.00  0.00     0.249 C 
HETATM    4  O           1     -22.465  -5.836  -2.368  0.00  0.00    -0.271 OA
HETATM    5  H           1     -19.946  -7.105  -2.128  0.00  0.00     0.163 HD
BRANCH   3   6
HETATM    6  C           1     -21.787  -6.545  -4.513  0.00  0.00     0.275 C 
BRANCH   6   7
HETATM    7  C           1     -20.758  -5.552  -5.038  0.00  0.00     0.053 C 
BRANCH   7   8
HETATM    8  C           1     -20.055  -6.142  -6.253  0.00  0.00     0.076 C 
BRANCH   8   9
HETATM    9  S           1     -20.761  -5.431  -7.767  0.00  0.00    -0.173 SA
HETATM   10  C           1     -21.097  -3.786  -7.077  0.00  0.00     0.089 C 
ENDBRANCH   8   9
ENDBRANCH   7   8
ENDBRANCH   6   7
BRANCH   6  11
HETATM   11  N           1     -23.156  -6.131  -4.966  0.00  0.00    -0.066 N 
HETATM   12  H           1     -23.545  -6.858  -5.608  0.00  0.00     0.275 HD
HETATM   13  H           1     -23.096  -5.217  -5.468  0.00  0.00     0.275 HD
HETATM   14  H           1     -23.782  -6.032  -4.134  0.00  0.00     0.275 HD
ENDBRANCH   6  11
ENDBRANCH   3   6
ENDBRANCH   1   2
BRANCH   1  15
HETATM   15  C           1     -20.119  -9.695  -2.035  0.00  0.00     0.077 C 
BRANCH  15  16
HETATM   16  C           1     -19.602  -9.794  -3.436  0.00  0.00    -0.028 A 
HETATM   17  C           1     -18.235  -9.768  -3.829  0.00  0.00    -0.002 A 
HETATM   18  C           1     -18.205  -9.888  -5.218  0.00  0.00     0.042 A 
HETATM   19  C           1     -17.017  -9.653  -3.131  0.00  0.00     0.014 A 
HETATM   20  C           1     -17.010  -9.899  -5.950  0.00  0.00     0.030 A 
HETATM   21  N           1     -19.510  -9.983  -5.645  0.00  0.00    -0.365 N 
HETATM   22  C           1     -15.814  -9.783  -5.236  0.00  0.00     0.002 A 
HETATM   23  C           1     -15.814  -9.662  -3.847  0.00  0.00     0.001 A 
HETATM   24  H           1     -19.809 -10.084  -6.647  0.00  0.00     0.165 HD
HETATM   25  C           1     -20.363  -9.927  -4.575  0.00  0.00     0.096 A 
ENDBRANCH  15  16
ENDBRANCH   1  15
BRANCH   1  26
HETATM   26  C           1     -21.904  -8.735  -0.611  0.00  0.00     0.197 C 
HETATM   27  O           1     -21.305  -8.149   0.315  0.00  0.00    -0.646 OA
HETATM   28  O           1     -22.990  -9.310  -0.387  0.00  0.00    -0.646 OA
ENDBRANCH   1  26
TORSDOF 9
ENDMDL
MODEL 7
REMARK VINA RESULT:      -6.9      3.389      8.094
REMARK  9 active torsions:
REMARK  status: ('A' for Active; 'I' for Inactive)
REMARK    1  A    between atoms: C_2  and  C_10 
REMARK    2  A    between atoms: C_2  and  S_3 
REMARK    3  A    between atoms: N_7  and  C_27 
REMARK       I    between atoms: N_7  and  C_11 
REMARK    4  A    between atoms: C_8  and  C_27 
REMARK    5  A    between atoms: C_8  and  C_18 
REMARK    6  A    between atoms: C_10  and  C_23 
REMARK    7  A    between atoms: C_11  and  C_23 
REMARK    8  A    between atoms: N_16  and  C_23 
REMARK    9  A    between atoms: C_21  and  C_27 
ROOT
HETATM    1  C           1     -20.664  -8.408  -4.728  0.00  0.00     0.190 C 
ENDROOT
BRANCH   1   2
HETATM    2  N           1     -21.116  -7.769  -5.949  0.00  0.00    -0.344 N 
HETATM    3  C           1     -20.538  -6.599  -6.363  0.00  0.00     0.249 C 
HETATM    4  O           1     -19.576  -6.626  -7.093  0.00  0.00    -0.271 OA
HETATM    5  H           1     -21.859  -8.187  -6.494  0.00  0.00     0.163 HD
BRANCH   3   6
HETATM    6  C           1     -21.103  -5.275  -5.908  0.00  0.00     0.275 C 
BRANCH   6   7
HETATM    7  C           1     -21.201  -4.329  -7.097  0.00  0.00     0.053 C 
BRANCH   7   8
HETATM    8  C           1     -22.628  -4.324  -7.628  0.00  0.00     0.076 C 
BRANCH   8   9
HETATM    9  S           1     -22.615  -3.923  -9.398  0.00  0.00    -0.173 SA
HETATM   10  C           1     -24.371  -3.477  -9.515  0.00  0.00     0.089 C 
ENDBRANCH   8   9
ENDBRANCH   7   8
ENDBRANCH   6   7
BRANCH   6  11
HETATM   11  N           1     -20.201  -4.679  -4.869  0.00  0.00    -0.066 N 
HETATM   12  H           1     -19.487  -5.386  -4.580  0.00  0.00     0.275 HD
HETATM   13  H           1     -20.766  -4.394  -4.037  0.00  0.00     0.275 HD
HETATM   14  H           1     -19.718  -3.841  -5.266  0.00  0.00     0.275 HD
ENDBRANCH   6  11
ENDBRANCH   3   6
ENDBRANCH   1   2
BRANCH   1  15
HETATM   15  C           1     -21.740  -9.364  -4.227  0.00  0.00     0.077 C 
BRANCH  15  16
HETATM   16  C           1     -21.403  -9.811  -2.839  0.00  0.00    -0.028 A 
HETATM   17  C           1     -21.605  -9.063  -1.646  0.00  0.00    -0.002 A 
HETATM   18  C           1     -21.154  -9.851  -0.586  0.00  0.00     0.042 A 
HETATM   19  C           1     -22.129  -7.786  -1.366  0.00  0.00     0.014 A 
HETATM   20  C           1     -21.202  -9.424   0.746  0.00  0.00     0.030 A 
HETATM   21  N           1     -20.697 -11.032  -1.126  0.00  0.00    -0.365 N 
HETATM   22  C           1     -21.726  -8.153   0.999  0.00  0.00     0.002 A 
HETATM   23  C           1     -22.184  -7.344  -0.039  0.00  0.00     0.001 A 
HETATM   24  H           1     -20.295 -11.830  -0.574  0.00  0.00     0.165 HD
HETATM   25  C           1     -20.844 -11.018  -2.488  0.00  0.00     0.096 A 
ENDBRANCH  15  16
ENDBRANCH   1  15
BRANCH   1  26
HETATM   26  C           1     -19.396  -9.179  -5.005  0.00  0.00     0.197 C 
HETATM   27  O           1     -18.387  -8.998  -4.290  0.00  0.00    -0.646 OA
HETATM   28  O           1     -19.355  -9.997  -5.948  0.00  0.00    -0.646 OA
ENDBRANCH   1  26
TORSDOF 9
ENDMDL
MODEL 8
REMARK VINA RESULT:      -6.7      2.702      3.807
REMARK  9 active torsions:
REMARK  status: ('A' for Active; 'I' for Inactive)
REMARK    1  A    between atoms: C_2  and  C_10 
REMARK    2  A    between atoms: C_2  and  S_3 
REMARK    3  A    between atoms: N_7  and  C_27 
REMARK       I    between atoms: N_7  and  C_11 
REMARK    4  A    between atoms: C_8  and  C_27 
REMARK    5  A    between atoms: C_8  and  C_18 
REMARK    6  A    between atoms: C_10  and  C_23 
REMARK    7  A    between atoms: C_11  and  C_23 
REMARK    8  A    between atoms: N_16  and  C_23 
REMARK    9  A    between atoms: C_21  and  C_27 
ROOT
HETATM    1  C           1     -21.053  -5.492  -7.735  0.00  0.00     0.190 C 
ENDROOT
BRANCH   1   2
HETATM    2  N           1     -21.559  -6.588  -6.932  0.00  0.00    -0.344 N 
HETATM    3  C           1     -21.926  -6.370  -5.631  0.00  0.00     0.249 C 
HETATM    4  O           1     -23.062  -6.052  -5.369  0.00  0.00    -0.271 OA
HETATM    5  H           1     -21.641  -7.514  -7.332  0.00  0.00     0.163 HD
BRANCH   3   6
HETATM    6  C           1     -20.911  -6.527  -4.524  0.00  0.00     0.275 C 
BRANCH   6   7
HETATM    7  C           1     -20.666  -8.008  -4.266  0.00  0.00     0.053 C 
BRANCH   7   8
HETATM    8  C           1     -19.440  -8.464  -5.046  0.00  0.00     0.076 C 
BRANCH   8   9
HETATM    9  S           1     -18.912 -10.093  -4.446  0.00  0.00    -0.173 SA
HETATM   10  C           1     -17.846 -10.491  -5.860  0.00  0.00     0.089 C 
ENDBRANCH   8   9
ENDBRANCH   7   8
ENDBRANCH   6   7
BRANCH   6  11
HETATM   11  N           1     -21.434  -5.882  -3.274  0.00  0.00    -0.066 N 
HETATM   12  H           1     -22.240  -5.262  -3.513  0.00  0.00     0.275 HD
HETATM   13  H           1     -20.676  -5.315  -2.831  0.00  0.00     0.275 HD
HETATM   14  H           1     -21.751  -6.622  -2.608  0.00  0.00     0.275 HD
ENDBRANCH   6  11
ENDBRANCH   3   6
ENDBRANCH   1   2
BRANCH   1  15
HETATM   15  C           1     -22.218  -4.766  -8.395  0.00  0.00     0.077 C 
BRANCH  15  16
HETATM   16  C           1     -21.813  -4.312  -9.763  0.00  0.00    -0.028 A 
HETATM   17  C           1     -22.683  -3.819 -10.775  0.00  0.00    -0.002 A 
HETATM   18  C           1     -21.893  -3.514 -11.883  0.00  0.00     0.042 A 
HETATM   19  C           1     -24.073  -3.604 -10.852  0.00  0.00     0.014 A 
HETATM   20  C           1     -22.425  -3.000 -13.072  0.00  0.00     0.030 A 
HETATM   21  N           1     -20.592  -3.814 -11.547  0.00  0.00    -0.365 N 
HETATM   22  C           1     -23.807  -2.795 -13.125  0.00  0.00     0.002 A 
HETATM   23  C           1     -24.621  -3.091 -12.033  0.00  0.00     0.001 A 
HETATM   24  H           1     -19.764  -3.690 -12.181  0.00  0.00     0.165 HD
HETATM   25  C           1     -20.532  -4.297 -10.267  0.00  0.00     0.096 A 
ENDBRANCH  15  16
ENDBRANCH   1  15
BRANCH   1  26
HETATM   26  C           1     -20.295  -4.530  -6.853  0.00  0.00     0.197 C 
HETATM   27  O           1     -20.880  -3.545  -6.356  0.00  0.00    -0.646 OA
HETATM   28  O           1     -19.081  -4.719  -6.621  0.00  0.00    -0.646 OA
ENDBRANCH   1  26
TORSDOF 9
ENDMDL
MODEL 9
REMARK VINA RESULT:      -6.7      5.441      7.854
REMARK  9 active torsions:
REMARK  status: ('A' for Active; 'I' for Inactive)
REMARK    1  A    between atoms: C_2  and  C_10 
REMARK    2  A    between atoms: C_2  and  S_3 
REMARK    3  A    between atoms: N_7  and  C_27 
REMARK       I    between atoms: N_7  and  C_11 
REMARK    4  A    between atoms: C_8  and  C_27 
REMARK    5  A    between atoms: C_8  and  C_18 
REMARK    6  A    between atoms: C_10  and  C_23 
REMARK    7  A    between atoms: C_11  and  C_23 
REMARK    8  A    between atoms: N_16  and  C_23 
REMARK    9  A    between atoms: C_21  and  C_27 
ROOT
HETATM    1  C           1     -19.377 -10.135  -4.807  0.00  0.00     0.190 C 
ENDROOT
BRANCH   1   2
HETATM    2  N           1     -18.487 -10.053  -5.948  0.00  0.00    -0.344 N 
HETATM    3  C           1     -18.133 -11.190  -6.624  0.00  0.00     0.249 C 
HETATM    4  O           1     -18.801 -11.571  -7.557  0.00  0.00    -0.271 OA
HETATM    5  H           1     -18.125  -9.155  -6.245  0.00  0.00     0.163 HD
BRANCH   3   6
HETATM    6  C           1     -16.910 -11.968  -6.204  0.00  0.00     0.275 C 
BRANCH   6   7
HETATM    7  C           1     -15.732 -11.016  -6.044  0.00  0.00     0.053 C 
BRANCH   7   8
HETATM    8  C           1     -14.824 -11.513  -4.927  0.00  0.00     0.076 C 
BRANCH   8   9
HETATM    9  S           1     -15.834 -12.027  -3.509  0.00  0.00    -0.173 SA
HETATM   10  C           1     -15.812 -10.424  -2.657  0.00  0.00     0.089 C 
ENDBRANCH   8   9
ENDBRANCH   7   8
ENDBRANCH   6   7
BRANCH   6  11
HETATM   11  N           1     -16.585 -12.991  -7.253  0.00  0.00    -0.066 N 
HETATM   12  H           1     -15.991 -13.743  -6.835  0.00  0.00     0.275 HD
HETATM   13  H           1     -16.069 -12.534  -8.038  0.00  0.00     0.275 HD
HETATM   14  H           1     -17.472 -13.411  -7.616  0.00  0.00     0.275 HD
ENDBRANCH   6  11
ENDBRANCH   3   6
ENDBRANCH   1   2
BRANCH   1  15
HETATM   15  C           1     -19.025  -9.041  -3.808  0.00  0.00     0.077 C 
BRANCH  15  16
HETATM   16  C           1     -19.746  -9.289  -2.521  0.00  0.00    -0.028 A 
HETATM   17  C           1     -20.704  -8.428  -1.917  0.00  0.00    -0.002 A 
HETATM   18  C           1     -21.121  -9.041  -0.735  0.00  0.00     0.042 A 
HETATM   19  C           1     -21.257  -7.180  -2.265  0.00  0.00     0.014 A 
HETATM   20  C           1     -22.069  -8.467   0.120  0.00  0.00     0.030 A 
HETATM   21  N           1     -20.436 -10.231  -0.634  0.00  0.00    -0.365 N 
HETATM   22  C           1     -22.604  -7.229  -0.246  0.00  0.00     0.002 A 
HETATM   23  C           1     -22.206  -6.593  -1.421  0.00  0.00     0.001 A 
HETATM   24  H           1     -20.538 -10.918   0.154  0.00  0.00     0.165 HD
HETATM   25  C           1     -19.602 -10.391  -1.708  0.00  0.00     0.096 A 
ENDBRANCH  15  16
ENDBRANCH   1  15
BRANCH   1  26
HETATM   26  C           1     -20.803  -9.956  -5.269  0.00  0.00     0.197 C 
HETATM   27  O           1     -21.156  -8.884  -5.805  0.00  0.00    -0.646 OA
HETATM   28  O           1     -21.631 -10.879  -5.113  0.00  0.00    -0.646 OA
ENDBRANCH   1  26
TORSDOF 9
ENDMDL
