MODEL 1
REMARK VINA RESULT:      -7.2      0.000      0.000
REMARK  8 active torsions:
REMARK  status: ('A' for Active; 'I' for Inactive)
REMARK    1  A    between atoms: N_1  and  C_17 
REMARK       I    between atoms: N_2  and  C_15 
REMARK       I    between atoms: N_3  and  C_15 
REMARK    2  A    between atoms: N_3  and  C_19 
REMARK    3  A    between atoms: C_8  and  C_19 
REMARK    4  A    between atoms: C_8  and  C_9 
REMARK    5  A    between atoms: C_9  and  C_16 
REMARK    6  A    between atoms: C_16  and  C_25 
REMARK    7  A    between atoms: C_16  and  N_22 
REMARK    8  A    between atoms: C_17  and  C_20 
REMARK       I    between atoms: C_20  and  N_22 
ROOT
HETATM    1  C           1     -22.935  -3.324 -12.233  0.00  0.00     0.185 C 
ENDROOT
BRANCH   1   2
HETATM    2  C           1     -21.752  -2.886 -11.380  0.00  0.00     0.038 C 
BRANCH   2   3
HETATM    3  C           1     -20.858  -4.085 -11.096  0.00  0.00     0.023 C 
BRANCH   3   4
HETATM    4  C           1     -20.681  -4.242  -9.592  0.00  0.00     0.138 C 
BRANCH   4   5
HETATM    5  N           1     -21.966  -4.612  -8.982  0.00  0.00    -0.227 N 
HETATM    6  C           1     -22.348  -4.045  -7.916  0.00  0.00     0.665 C 
HETATM    7  N           1     -21.622  -3.160  -7.376  0.00  0.00    -0.235 N 
HETATM    8  N           1     -23.484  -4.372  -7.377  0.00  0.00    -0.235 N 
HETATM    9  H           1     -20.704  -2.895  -7.812  0.00  0.00     0.174 HD
HETATM   10  H           1     -21.939  -2.689  -6.492  0.00  0.00     0.174 HD
HETATM   11  H           1     -24.083  -5.103  -7.823  0.00  0.00     0.174 HD
HETATM   12  H           1     -23.799  -3.904  -6.497  0.00  0.00     0.174 HD
HETATM   13  H           1     -22.568  -5.347  -9.430  0.00  0.00     0.177 HD
ENDBRANCH   4   5
ENDBRANCH   3   4
ENDBRANCH   2   3
ENDBRANCH   1   2
BRANCH   1  14
HETATM   14  C           1     -23.995  -3.936 -11.351  0.00  0.00     0.196 C 
HETATM   15  O           1     -24.934  -3.231 -10.920  0.00  0.00    -0.646 OA
HETATM   16  O           1     -23.934  -5.148 -11.050  0.00  0.00    -0.646 OA
ENDBRANCH   1  14
BRANCH   1  17
HETATM   17  N           1     -23.486  -2.172 -12.921  0.00  0.00    -0.345 N 
HETATM   18  H           1     -23.901  -1.417 -12.392  0.00  0.00     0.163 HD
HETATM   19  C           1     -23.443  -2.107 -14.289  0.00  0.00     0.243 C 
HETATM   20  O           1     -22.948  -3.009 -14.921  0.00  0.00    -0.272 OA
BRANCH  19  21
HETATM   21  C           1     -24.017  -0.909 -15.005  0.00  0.00     0.332 C 
BRANCH  21  22
HETATM   22  N           1     -23.045  -0.434 -16.044  0.00  0.00    -0.071 N 
HETATM   23  H           1     -23.407  -0.671 -16.994  0.00  0.00     0.274 HD
HETATM   24  H           1     -22.928   0.602 -15.964  0.00  0.00     0.274 HD
HETATM   25  H           1     -22.122  -0.902 -15.897  0.00  0.00     0.274 HD
ENDBRANCH  21  22
ENDBRANCH  19  21
ENDBRANCH   1  17
TORSDOF 8
ENDMDL
MODEL 2
REMARK VINA RESULT:      -6.8      1.913      6.319
REMARK  8 active torsions:
REMARK  status: ('A' for Active; 'I' for Inactive)
REMARK    1  A    between atoms: N_1  and  C_17 
REMARK       I    between atoms: N_2  and  C_15 
REMARK       I    between atoms: N_3  and  C_15 
REMARK    2  A    between atoms: N_3  and  C_19 
REMARK    3  A    between atoms: C_8  and  C_19 
REMARK    4  A    between atoms: C_8  and  C_9 
REMARK    5  A    between atoms: C_9  and  C_16 
REMARK    6  A    between atoms: C_16  and  C_25 
REMARK    7  A    between atoms: C_16  and  N_22 
REMARK    8  A    between atoms: C_17  and  C_20 
REMARK       I    between atoms: C_20  and  N_22 
ROOT
HETATM    1  C           1     -22.680  -3.755  -9.664  0.00  0.00     0.185 C 
ENDROOT
BRANCH   1   2
HETATM    2  C           1     -22.084  -3.945 -11.053  0.00  0.00     0.038 C 
BRANCH   2   3
HETATM    3  C           1     -22.317  -2.690 -11.883  0.00  0.00     0.023 C 
BRANCH   3   4
HETATM    4  C           1     -23.118  -3.046 -13.128  0.00  0.00     0.138 C 
BRANCH   4   5
HETATM    5  N           1     -23.939  -1.895 -13.530  0.00  0.00    -0.227 N 
HETATM    6  C           1     -23.760  -1.354 -14.661  0.00  0.00     0.665 C 
HETATM    7  N           1     -22.875  -1.805 -15.445  0.00  0.00    -0.235 N 
HETATM    8  N           1     -24.486  -0.336 -15.016  0.00  0.00    -0.235 N 
HETATM    9  H           1     -22.289  -2.627 -15.158  0.00  0.00     0.174 HD
HETATM   10  H           1     -22.727  -1.356 -16.383  0.00  0.00     0.174 HD
HETATM   11  H           1     -25.217   0.036 -14.368  0.00  0.00     0.174 HD
HETATM   12  H           1     -24.339   0.110 -15.949  0.00  0.00     0.174 HD
HETATM   13  H           1     -24.673  -1.521 -12.879  0.00  0.00     0.177 HD
ENDBRANCH   4   5
ENDBRANCH   3   4
ENDBRANCH   2   3
ENDBRANCH   1   2
BRANCH   1  14
HETATM   14  C           1     -24.186  -3.807  -9.750  0.00  0.00     0.196 C 
HETATM   15  O           1     -24.758  -4.876 -10.053  0.00  0.00    -0.646 OA
HETATM   16  O           1     -24.860  -2.781  -9.518  0.00  0.00    -0.646 OA
ENDBRANCH   1  14
BRANCH   1  17
HETATM   17  N           1     -22.209  -4.811  -8.789  0.00  0.00    -0.345 N 
HETATM   18  H           1     -22.301  -5.779  -9.069  0.00  0.00     0.163 HD
HETATM   19  C           1     -21.640  -4.498  -7.583  0.00  0.00     0.243 C 
HETATM   20  O           1     -21.532  -3.342  -7.248  0.00  0.00    -0.272 OA
BRANCH  19  21
HETATM   21  C           1     -21.151  -5.597  -6.671  0.00  0.00     0.332 C 
BRANCH  21  22
HETATM   22  N           1     -19.960  -6.266  -7.289  0.00  0.00    -0.071 N 
HETATM   23  H           1     -20.215  -7.238  -7.574  0.00  0.00     0.274 HD
HETATM   24  H           1     -19.653  -5.726  -8.129  0.00  0.00     0.274 HD
HETATM   25  H           1     -19.181  -6.302  -6.593  0.00  0.00     0.274 HD
ENDBRANCH  21  22
ENDBRANCH  19  21
ENDBRANCH   1  17
TORSDOF 8
ENDMDL
MODEL 3
REMARK VINA RESULT:      -6.3      2.488      5.053
REMARK  8 active torsions:
REMARK  status: ('A' for Active; 'I' for Inactive)
REMARK    1  A    between atoms: N_1  and  C_17 
REMARK       I    between atoms: N_2  and  C_15 
REMARK       I    between atoms: N_3  and  C_15 
REMARK    2  A    between atoms: N_3  and  C_19 
REMARK    3  A    between atoms: C_8  and  C_19 
REMARK    4  A    between atoms: C_8  and  C_9 
REMARK    5  A    between atoms: C_9  and  C_16 
REMARK    6  A    between atoms: C_16  and  C_25 
REMARK    7  A    between atoms: C_16  and  N_22 
REMARK    8  A    between atoms: C_17  and  C_20 
REMARK       I    between atoms: C_20  and  N_22 
ROOT
HETATM    1  C           1     -21.562  -4.906  -8.641  0.00  0.00     0.185 C 
ENDROOT
BRANCH   1   2
HETATM    2  C           1     -20.337  -4.198  -9.206  0.00  0.00     0.038 C 
BRANCH   2   3
HETATM    3  C           1     -20.255  -4.442 -10.707  0.00  0.00     0.023 C 
BRANCH   3   4
HETATM    4  C           1     -20.849  -3.251 -11.448  0.00  0.00     0.138 C 
BRANCH   4   5
HETATM    5  N           1     -21.595  -3.727 -12.622  0.00  0.00    -0.227 N 
HETATM    6  C           1     -22.677  -3.161 -12.956  0.00  0.00     0.665 C 
HETATM    7  N           1     -23.117  -2.187 -12.279  0.00  0.00    -0.235 N 
HETATM    8  N           1     -23.337  -3.582 -13.995  0.00  0.00    -0.235 N 
HETATM    9  H           1     -22.584  -1.847 -11.440  0.00  0.00     0.174 HD
HETATM   10  H           1     -24.015  -1.717 -12.556  0.00  0.00     0.174 HD
HETATM   11  H           1     -22.973  -4.386 -14.553  0.00  0.00     0.174 HD
HETATM   12  H           1     -24.230  -3.115 -14.270  0.00  0.00     0.174 HD
HETATM   13  H           1     -21.230  -4.536 -13.184  0.00  0.00     0.177 HD
ENDBRANCH   4   5
ENDBRANCH   3   4
ENDBRANCH   2   3
ENDBRANCH   1   2
BRANCH   1  14
HETATM   14  C           1     -21.224  -5.502  -7.296  0.00  0.00     0.196 C 
HETATM   15  O           1     -21.806  -5.093  -6.268  0.00  0.00    -0.646 OA
HETATM   16  O           1     -20.364  -6.404  -7.210  0.00  0.00    -0.646 OA
ENDBRANCH   1  14
BRANCH   1  17
HETATM   17  N           1     -22.643  -3.953  -8.490  0.00  0.00    -0.345 N 
HETATM   18  H           1     -22.622  -3.279  -7.735  0.00  0.00     0.163 HD
HETATM   19  C           1     -23.693  -3.963  -9.369  0.00  0.00     0.243 C 
HETATM   20  O           1     -23.718  -4.767 -10.270  0.00  0.00    -0.272 OA
BRANCH  19  21
HETATM   21  C           1     -24.819  -2.971  -9.211  0.00  0.00     0.332 C 
BRANCH  21  22
HETATM   22  N           1     -26.105  -3.596  -9.666  0.00  0.00    -0.071 N 
HETATM   23  H           1     -25.907  -4.534 -10.083  0.00  0.00     0.274 HD
HETATM   24  H           1     -26.746  -3.707  -8.849  0.00  0.00     0.274 HD
HETATM   25  H           1     -26.555  -2.985 -10.383  0.00  0.00     0.274 HD
ENDBRANCH  21  22
ENDBRANCH  19  21
ENDBRANCH   1  17
TORSDOF 8
ENDMDL
MODEL 4
REMARK VINA RESULT:      -6.3      2.492      6.609
REMARK  8 active torsions:
REMARK  status: ('A' for Active; 'I' for Inactive)
REMARK    1  A    between atoms: N_1  and  C_17 
REMARK       I    between atoms: N_2  and  C_15 
REMARK       I    between atoms: N_3  and  C_15 
REMARK    2  A    between atoms: N_3  and  C_19 
REMARK    3  A    between atoms: C_8  and  C_19 
REMARK    4  A    between atoms: C_8  and  C_9 
REMARK    5  A    between atoms: C_9  and  C_16 
REMARK    6  A    between atoms: C_16  and  C_25 
REMARK    7  A    between atoms: C_16  and  N_22 
REMARK    8  A    between atoms: C_17  and  C_20 
REMARK       I    between atoms: C_20  and  N_22 
ROOT
HETATM    1  C           1     -21.717  -4.490  -9.331  0.00  0.00     0.185 C 
ENDROOT
BRANCH   1   2
HETATM    2  C           1     -22.987  -3.688  -9.580  0.00  0.00     0.038 C 
BRANCH   2   3
HETATM    3  C           1     -23.865  -4.424 -10.583  0.00  0.00     0.023 C 
BRANCH   3   4
HETATM    4  C           1     -24.240  -3.481 -11.719  0.00  0.00     0.138 C 
BRANCH   4   5
HETATM    5  N           1     -23.335  -3.696 -12.856  0.00  0.00    -0.227 N 
HETATM    6  C           1     -23.241  -2.821 -13.766  0.00  0.00     0.665 C 
HETATM    7  N           1     -23.927  -1.760 -13.695  0.00  0.00    -0.235 N 
HETATM    8  N           1     -22.440  -3.012 -14.772  0.00  0.00    -0.235 N 
HETATM    9  H           1     -24.574  -1.606 -12.882  0.00  0.00     0.174 HD
HETATM   10  H           1     -23.850  -1.033 -14.449  0.00  0.00     0.174 HD
HETATM   11  H           1     -21.874  -3.888 -14.830  0.00  0.00     0.174 HD
HETATM   12  H           1     -22.363  -2.289 -15.522  0.00  0.00     0.174 HD
HETATM   13  H           1     -22.766  -4.577 -12.915  0.00  0.00     0.177 HD
ENDBRANCH   4   5
ENDBRANCH   3   4
ENDBRANCH   2   3
ENDBRANCH   1   2
BRANCH   1  14
HETATM   14  C           1     -20.702  -4.175 -10.403  0.00  0.00     0.196 C 
HETATM   15  O           1     -19.755  -4.962 -10.617  0.00  0.00    -0.646 OA
HETATM   16  O           1     -20.809  -3.128 -11.076  0.00  0.00    -0.646 OA
ENDBRANCH   1  14
BRANCH   1  17
HETATM   17  N           1     -21.173  -4.141  -8.033  0.00  0.00    -0.345 N 
HETATM   18  H           1     -21.154  -3.174  -7.736  0.00  0.00     0.163 HD
HETATM   19  C           1     -20.685  -5.120  -7.209  0.00  0.00     0.243 C 
HETATM   20  O           1     -20.706  -6.274  -7.565  0.00  0.00    -0.272 OA
BRANCH  19  21
HETATM   21  C           1     -20.117  -4.757  -5.858  0.00  0.00     0.332 C 
BRANCH  21  22
HETATM   22  N           1     -20.879  -5.477  -4.786  0.00  0.00    -0.071 N 
HETATM   23  H           1     -21.740  -5.903  -5.196  0.00  0.00     0.274 HD
HETATM   24  H           1     -20.279  -6.229  -4.377  0.00  0.00     0.274 HD
HETATM   25  H           1     -21.149  -4.801  -4.037  0.00  0.00     0.274 HD
ENDBRANCH  21  22
ENDBRANCH  19  21
ENDBRANCH   1  17
TORSDOF 8
ENDMDL
MODEL 5
REMARK VINA RESULT:      -5.6      5.041      8.387
REMARK  8 active torsions:
REMARK  status: ('A' for Active; 'I' for Inactive)
REMARK    1  A    between atoms: N_1  and  C_17 
REMARK       I    between atoms: N_2  and  C_15 
REMARK       I    between atoms: N_3  and  C_15 
REMARK    2  A    between atoms: N_3  and  C_19 
REMARK    3  A    between atoms: C_8  and  C_19 
REMARK    4  A    between atoms: C_8  and  C_9 
REMARK    5  A    between atoms: C_9  and  C_16 
REMARK    6  A    between atoms: C_16  and  C_25 
REMARK    7  A    between atoms: C_16  and  N_22 
REMARK    8  A    between atoms: C_17  and  C_20 
REMARK       I    between atoms: C_20  and  N_22 
ROOT
HETATM    1  C           1     -20.505  -6.804  -5.373  0.00  0.00     0.185 C 
ENDROOT
BRANCH   1   2
HETATM    2  C           1     -20.263  -6.089  -6.696  0.00  0.00     0.038 C 
BRANCH   2   3
HETATM    3  C           1     -20.026  -4.607  -6.438  0.00  0.00     0.023 C 
BRANCH   3   4
HETATM    4  C           1     -20.612  -3.791  -7.583  0.00  0.00     0.138 C 
BRANCH   4   5
HETATM    5  N           1     -22.074  -3.730  -7.445  0.00  0.00    -0.227 N 
HETATM    6  C           1     -22.816  -4.042  -8.422  0.00  0.00     0.665 C 
HETATM    7  N           1     -22.299  -4.407  -9.518  0.00  0.00    -0.235 N 
HETATM    8  N           1     -24.109  -3.988  -8.300  0.00  0.00    -0.235 N 
HETATM    9  H           1     -21.254  -4.451  -9.617  0.00  0.00     0.174 HD
HETATM   10  H           1     -22.914  -4.666 -10.329  0.00  0.00     0.174 HD
HETATM   11  H           1     -24.536  -3.687  -7.395  0.00  0.00     0.174 HD
HETATM   12  H           1     -24.721  -4.246  -9.106  0.00  0.00     0.174 HD
HETATM   13  H           1     -22.503  -3.427  -6.535  0.00  0.00     0.177 HD
ENDBRANCH   4   5
ENDBRANCH   3   4
ENDBRANCH   2   3
ENDBRANCH   1   2
BRANCH   1  14
HETATM   14  C           1     -21.729  -6.227  -4.705  0.00  0.00     0.196 C 
HETATM   15  O           1     -22.774  -6.044  -5.367  0.00  0.00    -0.646 OA
HETATM   16  O           1     -21.698  -5.934  -3.491  0.00  0.00    -0.646 OA
ENDBRANCH   1  14
BRANCH   1  17
HETATM   17  N           1     -20.710  -8.218  -5.620  0.00  0.00    -0.345 N 
HETATM   18  H           1     -21.311  -8.518  -6.376  0.00  0.00     0.163 HD
HETATM   19  C           1     -20.088  -9.147  -4.829  0.00  0.00     0.243 C 
HETATM   20  O           1     -19.371  -8.789  -3.926  0.00  0.00    -0.272 OA
BRANCH  19  21
HETATM   21  C           1     -20.302 -10.620  -5.085  0.00  0.00     0.332 C 
BRANCH  21  22
HETATM   22  N           1     -21.089 -10.799  -6.349  0.00  0.00    -0.071 N 
HETATM   23  H           1     -21.846 -11.500  -6.191  0.00  0.00     0.274 HD
HETATM   24  H           1     -21.512  -9.885  -6.628  0.00  0.00     0.274 HD
HETATM   25  H           1     -20.455 -11.136  -7.108  0.00  0.00     0.274 HD
ENDBRANCH  21  22
ENDBRANCH  19  21
ENDBRANCH   1  17
TORSDOF 8
ENDMDL
MODEL 6
REMARK VINA RESULT:      -5.2      6.263      8.859
REMARK  8 active torsions:
REMARK  status: ('A' for Active; 'I' for Inactive)
REMARK    1  A    between atoms: N_1  and  C_17 
REMARK       I    between atoms: N_2  and  C_15 
REMARK       I    between atoms: N_3  and  C_15 
REMARK    2  A    between atoms: N_3  and  C_19 
REMARK    3  A    between atoms: C_8  and  C_19 
REMARK    4  A    between atoms: C_8  and  C_9 
REMARK    5  A    between atoms: C_9  and  C_16 
REMARK    6  A    between atoms: C_16  and  C_25 
REMARK    7  A    between atoms: C_16  and  N_22 
REMARK    8  A    between atoms: C_17  and  C_20 
REMARK       I    between atoms: C_20  and  N_22 
ROOT
HETATM    1  C           1     -20.922  -6.885  -4.762  0.00  0.00     0.185 C 
ENDROOT
BRANCH   1   2
HETATM    2  C           1     -21.744  -7.256  -3.534  0.00  0.00     0.038 C 
BRANCH   2   3
HETATM    3  C           1     -21.712  -6.107  -2.535  0.00  0.00     0.023 C 
BRANCH   3   4
HETATM    4  C           1     -22.285  -6.576  -1.204  0.00  0.00     0.138 C 
BRANCH   4   5
HETATM    5  N           1     -22.068  -8.023  -1.058  0.00  0.00    -0.227 N 
HETATM    6  C           1     -22.706  -8.673  -0.180  0.00  0.00     0.665 C 
HETATM    7  N           1     -23.532  -8.078   0.573  0.00  0.00    -0.235 N 
HETATM    8  N           1     -22.514  -9.952  -0.050  0.00  0.00    -0.235 N 
HETATM    9  H           1     -23.687  -7.045   0.468  0.00  0.00     0.174 HD
HETATM   10  H           1     -24.062  -8.618   1.301  0.00  0.00     0.174 HD
HETATM   11  H           1     -21.832 -10.443  -0.672  0.00  0.00     0.174 HD
HETATM   12  H           1     -23.041 -10.489   0.675  0.00  0.00     0.174 HD
HETATM   13  H           1     -21.382  -8.516  -1.682  0.00  0.00     0.177 HD
ENDBRANCH   4   5
ENDBRANCH   3   4
ENDBRANCH   2   3
ENDBRANCH   1   2
BRANCH   1  14
HETATM   14  C           1     -20.393  -8.140  -5.412  0.00  0.00     0.196 C 
HETATM   15  O           1     -19.219  -8.173  -5.843  0.00  0.00    -0.646 OA
HETATM   16  O           1     -21.127  -9.145  -5.521  0.00  0.00    -0.646 OA
ENDBRANCH   1  14
BRANCH   1  17
HETATM   17  N           1     -21.758  -6.168  -5.704  0.00  0.00    -0.345 N 
HETATM   18  H           1     -22.693  -6.498  -5.904  0.00  0.00     0.163 HD
HETATM   19  C           1     -21.282  -5.043  -6.323  0.00  0.00     0.243 C 
HETATM   20  O           1     -20.166  -4.649  -6.085  0.00  0.00    -0.272 OA
BRANCH  19  21
HETATM   21  C           1     -22.153  -4.296  -7.305  0.00  0.00     0.332 C 
BRANCH  21  22
HETATM   22  N           1     -23.595  -4.473  -6.930  0.00  0.00    -0.071 N 
HETATM   23  H           1     -24.079  -3.548  -6.962  0.00  0.00     0.274 HD
HETATM   24  H           1     -24.051  -5.129  -7.603  0.00  0.00     0.274 HD
HETATM   25  H           1     -23.657  -4.865  -5.964  0.00  0.00     0.274 HD
ENDBRANCH  21  22
ENDBRANCH  19  21
ENDBRANCH   1  17
TORSDOF 8
ENDMDL
MODEL 7
REMARK VINA RESULT:      -4.9      8.480     12.189
REMARK  8 active torsions:
REMARK  status: ('A' for Active; 'I' for Inactive)
REMARK    1  A    between atoms: N_1  and  C_17 
REMARK       I    between atoms: N_2  and  C_15 
REMARK       I    between atoms: N_3  and  C_15 
REMARK    2  A    between atoms: N_3  and  C_19 
REMARK    3  A    between atoms: C_8  and  C_19 
REMARK    4  A    between atoms: C_8  and  C_9 
REMARK    5  A    between atoms: C_9  and  C_16 
REMARK    6  A    between atoms: C_16  and  C_25 
REMARK    7  A    between atoms: C_16  and  N_22 
REMARK    8  A    between atoms: C_17  and  C_20 
REMARK       I    between atoms: C_20  and  N_22 
ROOT
HETATM    1  C           1     -21.224  -8.124  -0.736  0.00  0.00     0.185 C 
ENDROOT
BRANCH   1   2
HETATM    2  C           1     -20.452  -7.870  -2.024  0.00  0.00     0.038 C 
BRANCH   2   3
HETATM    3  C           1     -20.840  -8.913  -3.064  0.00  0.00     0.023 C 
BRANCH   3   4
HETATM    4  C           1     -21.540  -8.231  -4.232  0.00  0.00     0.138 C 
BRANCH   4   5
HETATM    5  N           1     -21.177  -6.807  -4.258  0.00  0.00    -0.227 N 
HETATM    6  C           1     -20.788  -6.272  -5.337  0.00  0.00     0.665 C 
HETATM    7  N           1     -20.711  -6.964  -6.394  0.00  0.00    -0.235 N 
HETATM    8  N           1     -20.467  -5.012  -5.360  0.00  0.00    -0.235 N 
HETATM    9  H           1     -20.970  -7.982  -6.375  0.00  0.00     0.174 HD
HETATM   10  H           1     -20.388  -6.521  -7.290  0.00  0.00     0.174 HD
HETATM   11  H           1     -20.531  -4.442  -4.487  0.00  0.00     0.174 HD
HETATM   12  H           1     -20.146  -4.572  -6.251  0.00  0.00     0.174 HD
HETATM   13  H           1     -21.242  -6.233  -3.380  0.00  0.00     0.177 HD
ENDBRANCH   4   5
ENDBRANCH   3   4
ENDBRANCH   2   3
ENDBRANCH   1   2
BRANCH   1  14
HETATM   14  C           1     -22.438  -7.228  -0.690  0.00  0.00     0.196 C 
HETATM   15  O           1     -22.532  -6.263  -1.480  0.00  0.00    -0.646 OA
HETATM   16  O           1     -23.348  -7.450   0.137  0.00  0.00    -0.646 OA
ENDBRANCH   1  14
BRANCH   1  17
HETATM   17  N           1     -21.645  -9.510  -0.691  0.00  0.00    -0.345 N 
HETATM   18  H           1     -22.157  -9.909  -1.467  0.00  0.00     0.163 HD
HETATM   19  C           1     -21.349 -10.280   0.402  0.00  0.00     0.243 C 
HETATM   20  O           1     -20.739  -9.804   1.329  0.00  0.00    -0.272 OA
BRANCH  19  21
HETATM   21  C           1     -21.788 -11.724   0.450  0.00  0.00     0.332 C 
BRANCH  21  22
HETATM   22  N           1     -22.642 -12.027  -0.745  0.00  0.00    -0.071 N 
HETATM   23  H           1     -23.453 -12.617  -0.453  0.00  0.00     0.274 HD
HETATM   24  H           1     -22.993 -11.133  -1.158  0.00  0.00     0.274 HD
HETATM   25  H           1     -22.076 -12.541  -1.456  0.00  0.00     0.274 HD
ENDBRANCH  21  22
ENDBRANCH  19  21
ENDBRANCH   1  17
TORSDOF 8
ENDMDL
MODEL 8
REMARK VINA RESULT:      -4.8      8.118     10.331
REMARK  8 active torsions:
REMARK  status: ('A' for Active; 'I' for Inactive)
REMARK    1  A    between atoms: N_1  and  C_17 
REMARK       I    between atoms: N_2  and  C_15 
REMARK       I    between atoms: N_3  and  C_15 
REMARK    2  A    between atoms: N_3  and  C_19 
REMARK    3  A    between atoms: C_8  and  C_19 
REMARK    4  A    between atoms: C_8  and  C_9 
REMARK    5  A    between atoms: C_9  and  C_16 
REMARK    6  A    between atoms: C_16  and  C_25 
REMARK    7  A    between atoms: C_16  and  N_22 
REMARK    8  A    between atoms: C_17  and  C_20 
REMARK       I    between atoms: C_20  and  N_22 
ROOT
HETATM    1  C           1     -21.784  -7.363  -4.111  0.00  0.00     0.185 C 
ENDROOT
BRANCH   1   2
HETATM    2  C           1     -21.138  -6.875  -2.820  0.00  0.00     0.038 C 
BRANCH   2   3
HETATM    3  C           1     -22.203  -6.270  -1.915  0.00  0.00     0.023 C 
BRANCH   3   4
HETATM    4  C           1     -22.264  -7.051  -0.609  0.00  0.00     0.138 C 
BRANCH   4   5
HETATM    5  N           1     -22.112  -8.486  -0.888  0.00  0.00    -0.227 N 
HETATM    6  C           1     -22.885  -9.324  -0.337  0.00  0.00     0.665 C 
HETATM    7  N           1     -23.789  -8.925   0.454  0.00  0.00    -0.235 N 
HETATM    8  N           1     -22.750 -10.593  -0.583  0.00  0.00    -0.235 N 
HETATM    9  H           1     -23.898  -7.900   0.653  0.00  0.00     0.174 HD
HETATM   10  H           1     -24.431  -9.619   0.911  0.00  0.00     0.174 HD
HETATM   11  H           1     -22.003 -10.922  -1.236  0.00  0.00     0.174 HD
HETATM   12  H           1     -23.388 -11.284  -0.128  0.00  0.00     0.174 HD
HETATM   13  H           1     -21.361  -8.817  -1.544  0.00  0.00     0.177 HD
ENDBRANCH   4   5
ENDBRANCH   3   4
ENDBRANCH   2   3
ENDBRANCH   1   2
BRANCH   1  14
HETATM   14  C           1     -21.890  -6.216  -5.086  0.00  0.00     0.196 C 
HETATM   15  O           1     -23.014  -5.822  -5.466  0.00  0.00    -0.646 OA
HETATM   16  O           1     -20.855  -5.662  -5.514  0.00  0.00    -0.646 OA
ENDBRANCH   1  14
BRANCH   1  17
HETATM   17  N           1     -20.972  -8.415  -4.688  0.00  0.00    -0.345 N 
HETATM   18  H           1     -20.207  -8.182  -5.309  0.00  0.00     0.163 HD
HETATM   19  C           1     -21.239  -9.726  -4.394  0.00  0.00     0.243 C 
HETATM   20  O           1     -22.151 -10.005  -3.654  0.00  0.00    -0.272 OA
BRANCH  19  21
HETATM   21  C           1     -20.393 -10.822  -4.996  0.00  0.00     0.332 C 
BRANCH  21  22
HETATM   22  N           1     -20.815 -11.056  -6.416  0.00  0.00    -0.071 N 
HETATM   23  H           1     -21.480 -10.306  -6.710  0.00  0.00     0.274 HD
HETATM   24  H           1     -19.974 -11.037  -7.037  0.00  0.00     0.274 HD
HETATM   25  H           1     -21.284 -11.986  -6.492  0.00  0.00     0.274 HD
ENDBRANCH  21  22
ENDBRANCH  19  21
ENDBRANCH   1  17
TORSDOF 8
ENDMDL
MODEL 9
REMARK VINA RESULT:      -4.6      7.567     10.023
REMARK  8 active torsions:
REMARK  status: ('A' for Active; 'I' for Inactive)
REMARK    1  A    between atoms: N_1  and  C_17 
REMARK       I    between atoms: N_2  and  C_15 
REMARK       I    between atoms: N_3  and  C_15 
REMARK    2  A    between atoms: N_3  and  C_19 
REMARK    3  A    between atoms: C_8  and  C_19 
REMARK    4  A    between atoms: C_8  and  C_9 
REMARK    5  A    between atoms: C_9  and  C_16 
REMARK    6  A    between atoms: C_16  and  C_25 
REMARK    7  A    between atoms: C_16  and  N_22 
REMARK    8  A    between atoms: C_17  and  C_20 
REMARK       I    between atoms: C_20  and  N_22 
ROOT
HETATM    1  C           1     -21.223  -7.074  -5.245  0.00  0.00     0.185 C 
ENDROOT
BRANCH   1   2
HETATM    2  C           1     -22.127  -6.432  -4.201  0.00  0.00     0.038 C 
BRANCH   2   3
HETATM    3  C           1     -21.349  -6.232  -2.907  0.00  0.00     0.023 C 
BRANCH   3   4
HETATM    4  C           1     -22.224  -6.622  -1.723  0.00  0.00     0.138 C 
BRANCH   4   5
HETATM    5  N           1     -21.750  -7.895  -1.160  0.00  0.00    -0.227 N 
HETATM    6  C           1     -22.352  -8.414  -0.175  0.00  0.00     0.665 C 
HETATM    7  N           1     -23.361  -7.837   0.325  0.00  0.00    -0.235 N 
HETATM    8  N           1     -21.934  -9.540   0.322  0.00  0.00    -0.235 N 
HETATM    9  H           1     -23.699  -6.928  -0.077  0.00  0.00     0.174 HD
HETATM   10  H           1     -23.861  -8.268   1.142  0.00  0.00     0.174 HD
HETATM   11  H           1     -21.100 -10.016  -0.091  0.00  0.00     0.174 HD
HETATM   12  H           1     -22.431  -9.968   1.135  0.00  0.00     0.174 HD
HETATM   13  H           1     -20.913  -8.373  -1.576  0.00  0.00     0.177 HD
ENDBRANCH   4   5
ENDBRANCH   3   4
ENDBRANCH   2   3
ENDBRANCH   1   2
BRANCH   1  14
HETATM   14  C           1     -20.810  -6.038  -6.262  0.00  0.00     0.196 C 
HETATM   15  O           1     -20.335  -6.397  -7.361  0.00  0.00    -0.646 OA
HETATM   16  O           1     -20.942  -4.822  -6.004  0.00  0.00    -0.646 OA
ENDBRANCH   1  14
BRANCH   1  17
HETATM   17  N           1     -20.043  -7.612  -4.596  0.00  0.00    -0.345 N 
HETATM   18  H           1     -19.530  -7.048  -3.931  0.00  0.00     0.163 HD
HETATM   19  C           1     -19.623  -8.883  -4.884  0.00  0.00     0.243 C 
HETATM   20  O           1     -20.234  -9.556  -5.679  0.00  0.00    -0.272 OA
BRANCH  19  21
HETATM   21  C           1     -18.394  -9.443  -4.209  0.00  0.00     0.332 C 
BRANCH  21  22
HETATM   22  N           1     -18.538  -9.316  -2.721  0.00  0.00    -0.071 N 
HETATM   23  H           1     -19.373  -8.727  -2.502  0.00  0.00     0.274 HD
HETATM   24  H           1     -18.661 -10.265  -2.301  0.00  0.00     0.274 HD
HETATM   25  H           1     -17.682  -8.866  -2.326  0.00  0.00     0.274 HD
ENDBRANCH  21  22
ENDBRANCH  19  21
ENDBRANCH   1  17
TORSDOF 8
ENDMDL
