MODEL 1
REMARK VINA RESULT:      -7.7      0.000      0.000
REMARK  7 active torsions:
REMARK  status: ('A' for Active; 'I' for Inactive)
REMARK    1  A    between atoms: C_1  and  C_2 
REMARK    2  A    between atoms: C_1  and  C_6 
REMARK    3  A    between atoms: C_2  and  C_3 
REMARK    4  A    between atoms: C_2  and  N_12 
REMARK       I    between atoms: C_3  and  N_4 
REMARK    5  A    between atoms: C_5  and  C_24 
REMARK    6  A    between atoms: C_6  and  C_7 
REMARK    7  A    between atoms: C_7  and  N_8 
REMARK       I    between atoms: N_8  and  C_9 
REMARK       I    between atoms: C_9  and  N_10 
ROOT
HETATM    1  C           1     -34.196  -2.295 -11.528  0.00  0.00     0.275 C 
ENDROOT
BRANCH   1   2
HETATM    2  C           1     -33.310  -3.534 -11.515  0.00  0.00     0.044 C 
BRANCH   2   3
HETATM    3  C           1     -33.846  -4.531 -10.497  0.00  0.00     0.023 C 
BRANCH   3   4
HETATM    4  C           1     -34.536  -5.679 -11.223  0.00  0.00     0.138 C 
BRANCH   4   5
HETATM    5  N           1     -33.740  -6.905 -11.070  0.00  0.00    -0.227 N 
HETATM    6  C           1     -34.127  -7.817 -10.284  0.00  0.00     0.665 C 
HETATM    7  N           1     -33.441  -8.874 -10.153  0.00  0.00    -0.235 N 
HETATM    8  N           1     -35.230  -7.671  -9.611  0.00  0.00    -0.235 N 
HETATM    9  H           1     -33.763  -9.631  -9.500  0.00  0.00     0.174 HD
HETATM   10  H           1     -32.550  -8.992 -10.695  0.00  0.00     0.174 HD
HETATM   11  H           1     -35.550  -8.425  -8.962  0.00  0.00     0.174 HD
HETATM   12  H           1     -35.797  -6.800  -9.720  0.00  0.00     0.174 HD
HETATM   13  H           1     -32.849  -7.023 -11.613  0.00  0.00     0.177 HD
ENDBRANCH   4   5
ENDBRANCH   3   4
ENDBRANCH   2   3
ENDBRANCH   1   2
BRANCH   1  14
HETATM   14  C           1     -34.777  -2.105 -12.908  0.00  0.00     0.251 C 
HETATM   15  N           1     -35.610  -1.048 -13.160  0.00  0.00    -0.336 N 
HETATM   16  C           1     -36.259  -0.709 -14.423  0.00  0.00     0.188 C 
HETATM   17  C           1     -36.043  -0.015 -12.224  0.00  0.00     0.127 C 
HETATM   18  C           1     -37.654  -0.273 -14.008  0.00  0.00     0.038 C 
HETATM   19  C           1     -37.511   0.189 -12.563  0.00  0.00     0.022 C 
HETATM   20  O           1     -34.506  -2.884 -13.790  0.00  0.00    -0.271 OA
BRANCH  16  21
HETATM   21  C           1     -35.529   0.414 -15.118  0.00  0.00     0.196 C 
HETATM   22  O           1     -34.299   0.558 -14.949  0.00  0.00    -0.646 OA
HETATM   23  O           1     -36.154   1.200 -15.862  0.00  0.00    -0.646 OA
ENDBRANCH  16  21
ENDBRANCH   1  14
BRANCH   1  24
HETATM   24  N           1     -35.309  -2.465 -10.537  0.00  0.00    -0.067 N 
HETATM   25  H           1     -35.403  -3.476 -10.289  0.00  0.00     0.275 HD
HETATM   26  H           1     -35.096  -1.914  -9.676  0.00  0.00     0.275 HD
HETATM   27  H           1     -36.203  -2.126 -10.958  0.00  0.00     0.275 HD
ENDBRANCH   1  24
TORSDOF 7
ENDMDL
MODEL 2
REMARK VINA RESULT:      -7.6     12.557     15.012
REMARK  7 active torsions:
REMARK  status: ('A' for Active; 'I' for Inactive)
REMARK    1  A    between atoms: C_1  and  C_2 
REMARK    2  A    between atoms: C_1  and  C_6 
REMARK    3  A    between atoms: C_2  and  C_3 
REMARK    4  A    between atoms: C_2  and  N_12 
REMARK       I    between atoms: C_3  and  N_4 
REMARK    5  A    between atoms: C_5  and  C_24 
REMARK    6  A    between atoms: C_6  and  C_7 
REMARK    7  A    between atoms: C_7  and  N_8 
REMARK       I    between atoms: N_8  and  C_9 
REMARK       I    between atoms: C_9  and  N_10 
ROOT
HETATM    1  C           1     -21.742  -3.235 -10.541  0.00  0.00     0.275 C 
ENDROOT
BRANCH   1   2
HETATM    2  C           1     -22.983  -2.963 -11.383  0.00  0.00     0.044 C 
BRANCH   2   3
HETATM    3  C           1     -22.706  -3.339 -12.832  0.00  0.00     0.023 C 
BRANCH   3   4
HETATM    4  C           1     -23.784  -2.743 -13.727  0.00  0.00     0.138 C 
BRANCH   4   5
HETATM    5  N           1     -23.153  -1.989 -14.820  0.00  0.00    -0.227 N 
HETATM    6  C           1     -23.667  -0.904 -15.219  0.00  0.00     0.665 C 
HETATM    7  N           1     -23.123  -0.254 -16.160  0.00  0.00    -0.235 N 
HETATM    8  N           1     -24.753  -0.455 -14.662  0.00  0.00    -0.235 N 
HETATM    9  H           1     -23.551   0.647 -16.491  0.00  0.00     0.174 HD
HETATM   10  H           1     -22.247  -0.616 -16.610  0.00  0.00     0.174 HD
HETATM   11  H           1     -25.177   0.441 -14.992  0.00  0.00     0.174 HD
HETATM   12  H           1     -25.202  -0.991 -13.885  0.00  0.00     0.174 HD
HETATM   13  H           1     -22.276  -2.351 -15.269  0.00  0.00     0.177 HD
ENDBRANCH   4   5
ENDBRANCH   3   4
ENDBRANCH   2   3
ENDBRANCH   1   2
BRANCH   1  14
HETATM   14  C           1     -21.984  -4.437  -9.661  0.00  0.00     0.251 C 
HETATM   15  N           1     -21.261  -4.600  -8.511  0.00  0.00    -0.336 N 
HETATM   16  C           1     -21.358  -5.691  -7.545  0.00  0.00     0.188 C 
HETATM   17  C           1     -20.222  -3.720  -7.982  0.00  0.00     0.127 C 
HETATM   18  C           1     -19.913  -5.978  -7.175  0.00  0.00     0.038 C 
HETATM   19  C           1     -19.167  -4.680  -7.457  0.00  0.00     0.022 C 
HETATM   20  O           1     -22.818  -5.256  -9.972  0.00  0.00    -0.271 OA
BRANCH  16  21
HETATM   21  C           1     -22.150  -5.266  -6.333  0.00  0.00     0.196 C 
HETATM   22  O           1     -21.665  -5.407  -5.189  0.00  0.00    -0.646 OA
HETATM   23  O           1     -23.290  -4.773  -6.473  0.00  0.00    -0.646 OA
ENDBRANCH  16  21
ENDBRANCH   1  14
BRANCH   1  24
HETATM   24  N           1     -20.575  -3.505 -11.444  0.00  0.00    -0.067 N 
HETATM   25  H           1     -20.690  -2.968 -12.333  0.00  0.00     0.275 HD
HETATM   26  H           1     -19.693  -3.208 -10.970  0.00  0.00     0.275 HD
HETATM   27  H           1     -20.530  -4.527 -11.658  0.00  0.00     0.275 HD
ENDBRANCH   1  24
TORSDOF 7
ENDMDL
MODEL 3
REMARK VINA RESULT:      -7.3      2.746      6.128
REMARK  7 active torsions:
REMARK  status: ('A' for Active; 'I' for Inactive)
REMARK    1  A    between atoms: C_1  and  C_2 
REMARK    2  A    between atoms: C_1  and  C_6 
REMARK    3  A    between atoms: C_2  and  C_3 
REMARK    4  A    between atoms: C_2  and  N_12 
REMARK       I    between atoms: C_3  and  N_4 
REMARK    5  A    between atoms: C_5  and  C_24 
REMARK    6  A    between atoms: C_6  and  C_7 
REMARK    7  A    between atoms: C_7  and  N_8 
REMARK       I    between atoms: N_8  and  C_9 
REMARK       I    between atoms: C_9  and  N_10 
ROOT
HETATM    1  C           1     -36.295  -1.020 -10.509  0.00  0.00     0.275 C 
ENDROOT
BRANCH   1   2
HETATM    2  C           1     -37.023   0.136 -11.184  0.00  0.00     0.044 C 
BRANCH   2   3
HETATM    3  C           1     -38.073  -0.414 -12.140  0.00  0.00     0.023 C 
BRANCH   3   4
HETATM    4  C           1     -37.828   0.138 -13.537  0.00  0.00     0.138 C 
BRANCH   4   5
HETATM    5  N           1     -36.619  -0.478 -14.103  0.00  0.00    -0.227 N 
HETATM    6  C           1     -36.096  -0.001 -15.151  0.00  0.00     0.665 C 
HETATM    7  N           1     -35.054  -0.532 -15.638  0.00  0.00    -0.235 N 
HETATM    8  N           1     -36.628   1.035 -15.729  0.00  0.00    -0.235 N 
HETATM    9  H           1     -34.621  -0.135 -16.509  0.00  0.00     0.174 HD
HETATM   10  H           1     -34.625  -1.368 -15.172  0.00  0.00     0.174 HD
HETATM   11  H           1     -36.195   1.430 -16.595  0.00  0.00     0.174 HD
HETATM   12  H           1     -37.487   1.475 -15.327  0.00  0.00     0.174 HD
HETATM   13  H           1     -36.189  -1.315 -13.636  0.00  0.00     0.177 HD
ENDBRANCH   4   5
ENDBRANCH   3   4
ENDBRANCH   2   3
ENDBRANCH   1   2
BRANCH   1  14
HETATM   14  C           1     -35.150  -1.472 -11.381  0.00  0.00     0.251 C 
HETATM   15  N           1     -34.870  -2.806 -11.506  0.00  0.00    -0.336 N 
HETATM   16  C           1     -33.809  -3.422 -12.298  0.00  0.00     0.188 C 
HETATM   17  C           1     -35.566  -3.924 -10.874  0.00  0.00     0.127 C 
HETATM   18  C           1     -33.288  -4.534 -11.404  0.00  0.00     0.038 C 
HETATM   19  C           1     -34.445  -4.867 -10.471  0.00  0.00     0.022 C 
HETATM   20  O           1     -34.480  -0.657 -11.970  0.00  0.00    -0.271 OA
BRANCH  16  21
HETATM   21  C           1     -34.359  -3.982 -13.587  0.00  0.00     0.196 C 
HETATM   22  O           1     -34.356  -3.282 -14.623  0.00  0.00    -0.646 OA
HETATM   23  O           1     -34.816  -5.144 -13.619  0.00  0.00    -0.646 OA
ENDBRANCH  16  21
ENDBRANCH   1  14
BRANCH   1  24
HETATM   24  N           1     -35.764  -0.569  -9.181  0.00  0.00    -0.067 N 
HETATM   25  H           1     -36.049  -1.250  -8.441  0.00  0.00     0.275 HD
HETATM   26  H           1     -34.722  -0.518  -9.223  0.00  0.00     0.275 HD
HETATM   27  H           1     -36.152   0.375  -8.954  0.00  0.00     0.275 HD
ENDBRANCH   1  24
TORSDOF 7
ENDMDL
MODEL 4
REMARK VINA RESULT:      -7.1     13.026     14.797
REMARK  7 active torsions:
REMARK  status: ('A' for Active; 'I' for Inactive)
REMARK    1  A    between atoms: C_1  and  C_2 
REMARK    2  A    between atoms: C_1  and  C_6 
REMARK    3  A    between atoms: C_2  and  C_3 
REMARK    4  A    between atoms: C_2  and  N_12 
REMARK       I    between atoms: C_3  and  N_4 
REMARK    5  A    between atoms: C_5  and  C_24 
REMARK    6  A    between atoms: C_6  and  C_7 
REMARK    7  A    between atoms: C_7  and  N_8 
REMARK       I    between atoms: N_8  and  C_9 
REMARK       I    between atoms: C_9  and  N_10 
ROOT
HETATM    1  C           1     -20.272  -5.111  -7.533  0.00  0.00     0.275 C 
ENDROOT
BRANCH   1   2
HETATM    2  C           1     -20.590  -5.380  -6.068  0.00  0.00     0.044 C 
BRANCH   2   3
HETATM    3  C           1     -20.546  -6.879  -5.805  0.00  0.00     0.023 C 
BRANCH   3   4
HETATM    4  C           1     -21.797  -7.299  -5.045  0.00  0.00     0.138 C 
BRANCH   4   5
HETATM    5  N           1     -22.117  -6.286  -4.029  0.00  0.00    -0.227 N 
HETATM    6  C           1     -21.959  -6.548  -2.802  0.00  0.00     0.665 C 
HETATM    7  N           1     -22.235  -5.674  -1.927  0.00  0.00    -0.235 N 
HETATM    8  N           1     -21.511  -7.713  -2.438  0.00  0.00    -0.235 N 
HETATM    9  H           1     -22.103  -5.892  -0.908  0.00  0.00     0.174 HD
HETATM   10  H           1     -22.596  -4.734  -2.220  0.00  0.00     0.174 HD
HETATM   11  H           1     -21.380  -7.929  -1.424  0.00  0.00     0.174 HD
HETATM   12  H           1     -21.283  -8.433  -3.160  0.00  0.00     0.174 HD
HETATM   13  H           1     -22.478  -5.344  -4.324  0.00  0.00     0.177 HD
ENDBRANCH   4   5
ENDBRANCH   3   4
ENDBRANCH   2   3
ENDBRANCH   1   2
BRANCH   1  14
HETATM   14  C           1     -21.414  -4.354  -8.166  0.00  0.00     0.251 C 
HETATM   15  N           1     -21.479  -4.226  -9.527  0.00  0.00    -0.336 N 
HETATM   16  C           1     -22.502  -3.534 -10.307  0.00  0.00     0.188 C 
HETATM   17  C           1     -20.542  -4.751 -10.515  0.00  0.00     0.127 C 
HETATM   18  C           1     -21.711  -2.827 -11.394  0.00  0.00     0.038 C 
HETATM   19  C           1     -20.424  -3.630 -11.535  0.00  0.00     0.022 C 
HETATM   20  O           1     -22.271  -3.861  -7.471  0.00  0.00    -0.271 OA
BRANCH  16  21
HETATM   21  C           1     -23.477  -4.518 -10.906  0.00  0.00     0.196 C 
HETATM   22  O           1     -23.633  -4.568 -12.145  0.00  0.00    -0.646 OA
HETATM   23  O           1     -24.128  -5.282 -10.162  0.00  0.00    -0.646 OA
ENDBRANCH  16  21
ENDBRANCH   1  14
BRANCH   1  24
HETATM   24  N           1     -19.017  -4.294  -7.630  0.00  0.00    -0.067 N 
HETATM   25  H           1     -18.227  -4.904  -7.942  0.00  0.00     0.275 HD
HETATM   26  H           1     -19.156  -3.524  -8.321  0.00  0.00     0.275 HD
HETATM   27  H           1     -18.794  -3.888  -6.694  0.00  0.00     0.275 HD
ENDBRANCH   1  24
TORSDOF 7
ENDMDL
MODEL 5
REMARK VINA RESULT:      -6.8     13.765     16.429
REMARK  7 active torsions:
REMARK  status: ('A' for Active; 'I' for Inactive)
REMARK    1  A    between atoms: C_1  and  C_2 
REMARK    2  A    between atoms: C_1  and  C_6 
REMARK    3  A    between atoms: C_2  and  C_3 
REMARK    4  A    between atoms: C_2  and  N_12 
REMARK       I    between atoms: C_3  and  N_4 
REMARK    5  A    between atoms: C_5  and  C_24 
REMARK    6  A    between atoms: C_6  and  C_7 
REMARK    7  A    between atoms: C_7  and  N_8 
REMARK       I    between atoms: N_8  and  C_9 
REMARK       I    between atoms: C_9  and  N_10 
ROOT
HETATM    1  C           1     -21.528  -5.100  -7.317  0.00  0.00     0.275 C 
ENDROOT
BRANCH   1   2
HETATM    2  C           1     -21.413  -5.242  -8.829  0.00  0.00     0.044 C 
BRANCH   2   3
HETATM    3  C           1     -20.533  -4.127  -9.379  0.00  0.00     0.023 C 
BRANCH   3   4
HETATM    4  C           1     -20.837  -3.921 -10.856  0.00  0.00     0.138 C 
BRANCH   4   5
HETATM    5  N           1     -22.141  -3.258 -11.001  0.00  0.00    -0.227 N 
HETATM    6  C           1     -22.636  -3.080 -12.152  0.00  0.00     0.665 C 
HETATM    7  N           1     -23.760  -2.509 -12.276  0.00  0.00    -0.235 N 
HETATM    8  N           1     -21.992  -3.483 -13.206  0.00  0.00    -0.235 N 
HETATM    9  H           1     -24.170  -2.361 -13.232  0.00  0.00     0.174 HD
HETATM   10  H           1     -24.280  -2.183 -11.425  0.00  0.00     0.174 HD
HETATM   11  H           1     -22.401  -3.336 -14.157  0.00  0.00     0.174 HD
HETATM   12  H           1     -21.065  -3.955 -13.104  0.00  0.00     0.174 HD
HETATM   13  H           1     -22.662  -2.933 -10.149  0.00  0.00     0.177 HD
ENDBRANCH   4   5
ENDBRANCH   3   4
ENDBRANCH   2   3
ENDBRANCH   1   2
BRANCH   1  14
HETATM   14  C           1     -20.717  -6.182  -6.646  0.00  0.00     0.251 C 
HETATM   15  N           1     -21.169  -6.758  -5.490  0.00  0.00    -0.336 N 
HETATM   16  C           1     -20.524  -7.810  -4.709  0.00  0.00     0.188 C 
HETATM   17  C           1     -22.402  -6.455  -4.768  0.00  0.00     0.127 C 
HETATM   18  C           1     -20.747  -7.381  -3.269  0.00  0.00     0.038 C 
HETATM   19  C           1     -21.985  -6.493  -3.307  0.00  0.00     0.022 C 
HETATM   20  O           1     -19.669  -6.540  -7.130  0.00  0.00    -0.271 OA
BRANCH  16  21
HETATM   21  C           1     -21.167  -9.149  -4.976  0.00  0.00     0.196 C 
HETATM   22  O           1     -21.722  -9.772  -4.046  0.00  0.00    -0.646 OA
HETATM   23  O           1     -21.144  -9.633  -6.128  0.00  0.00    -0.646 OA
ENDBRANCH  16  21
ENDBRANCH   1  14
BRANCH   1  24
HETATM   24  N           1     -21.008  -3.756  -6.900  0.00  0.00    -0.067 N 
HETATM   25  H           1     -21.020  -3.108  -7.719  0.00  0.00     0.275 HD
HETATM   26  H           1     -21.613  -3.369  -6.142  0.00  0.00     0.275 HD
HETATM   27  H           1     -20.028  -3.856  -6.549  0.00  0.00     0.275 HD
ENDBRANCH   1  24
TORSDOF 7
ENDMDL
MODEL 6
REMARK VINA RESULT:      -6.7     12.882     14.480
REMARK  7 active torsions:
REMARK  status: ('A' for Active; 'I' for Inactive)
REMARK    1  A    between atoms: C_1  and  C_2 
REMARK    2  A    between atoms: C_1  and  C_6 
REMARK    3  A    between atoms: C_2  and  C_3 
REMARK    4  A    between atoms: C_2  and  N_12 
REMARK       I    between atoms: C_3  and  N_4 
REMARK    5  A    between atoms: C_5  and  C_24 
REMARK    6  A    between atoms: C_6  and  C_7 
REMARK    7  A    between atoms: C_7  and  N_8 
REMARK       I    between atoms: N_8  and  C_9 
REMARK       I    between atoms: C_9  and  N_10 
ROOT
HETATM    1  C           1     -21.495  -4.240  -7.047  0.00  0.00     0.275 C 
ENDROOT
BRANCH   1   2
HETATM    2  C           1     -20.498  -5.001  -6.183  0.00  0.00     0.044 C 
BRANCH   2   3
HETATM    3  C           1     -20.893  -6.471  -6.126  0.00  0.00     0.023 C 
BRANCH   3   4
HETATM    4  C           1     -20.746  -6.982  -4.699  0.00  0.00     0.138 C 
BRANCH   4   5
HETATM    5  N           1     -21.571  -6.165  -3.797  0.00  0.00    -0.227 N 
HETATM    6  C           1     -21.615  -6.434  -2.562  0.00  0.00     0.665 C 
HETATM    7  N           1     -22.326  -5.730  -1.786  0.00  0.00    -0.235 N 
HETATM    8  N           1     -20.929  -7.431  -2.089  0.00  0.00    -0.235 N 
HETATM    9  H           1     -22.362  -5.954  -0.760  0.00  0.00     0.174 HD
HETATM   10  H           1     -22.880  -4.925  -2.167  0.00  0.00     0.174 HD
HETATM   11  H           1     -20.964  -7.653  -1.068  0.00  0.00     0.174 HD
HETATM   12  H           1     -20.341  -8.012  -2.729  0.00  0.00     0.174 HD
HETATM   13  H           1     -22.126  -5.359  -4.180  0.00  0.00     0.177 HD
ENDBRANCH   4   5
ENDBRANCH   3   4
ENDBRANCH   2   3
ENDBRANCH   1   2
BRANCH   1  14
HETATM   14  C           1     -21.231  -4.539  -8.503  0.00  0.00     0.251 C 
HETATM   15  N           1     -22.163  -4.210  -9.449  0.00  0.00    -0.336 N 
HETATM   16  C           1     -22.080  -4.422 -10.892  0.00  0.00     0.188 C 
HETATM   17  C           1     -23.458  -3.570  -9.237  0.00  0.00     0.127 C 
HETATM   18  C           1     -23.480  -4.872 -11.273  0.00  0.00     0.038 C 
HETATM   19  C           1     -24.387  -4.307 -10.187  0.00  0.00     0.022 C 
HETATM   20  O           1     -20.196  -5.069  -8.833  0.00  0.00    -0.271 OA
BRANCH  16  21
HETATM   21  C           1     -21.714  -3.142 -11.602  0.00  0.00     0.196 C 
HETATM   22  O           1     -20.623  -2.583 -11.360  0.00  0.00    -0.646 OA
HETATM   23  O           1     -22.502  -2.642 -12.433  0.00  0.00    -0.646 OA
ENDBRANCH  16  21
ENDBRANCH   1  14
BRANCH   1  24
HETATM   24  N           1     -22.889  -4.666  -6.696  0.00  0.00    -0.067 N 
HETATM   25  H           1     -22.867  -5.626  -6.283  0.00  0.00     0.275 HD
HETATM   26  H           1     -23.292  -3.998  -6.001  0.00  0.00     0.275 HD
HETATM   27  H           1     -23.479  -4.672  -7.559  0.00  0.00     0.275 HD
ENDBRANCH   1  24
TORSDOF 7
ENDMDL
MODEL 7
REMARK VINA RESULT:      -6.5     13.692     16.559
REMARK  7 active torsions:
REMARK  status: ('A' for Active; 'I' for Inactive)
REMARK    1  A    between atoms: C_1  and  C_2 
REMARK    2  A    between atoms: C_1  and  C_6 
REMARK    3  A    between atoms: C_2  and  C_3 
REMARK    4  A    between atoms: C_2  and  N_12 
REMARK       I    between atoms: C_3  and  N_4 
REMARK    5  A    between atoms: C_5  and  C_24 
REMARK    6  A    between atoms: C_6  and  C_7 
REMARK    7  A    between atoms: C_7  and  N_8 
REMARK       I    between atoms: N_8  and  C_9 
REMARK       I    between atoms: C_9  and  N_10 
ROOT
HETATM    1  C           1     -20.499  -5.435  -6.368  0.00  0.00     0.275 C 
ENDROOT
BRANCH   1   2
HETATM    2  C           1     -21.172  -4.128  -6.770  0.00  0.00     0.044 C 
BRANCH   2   3
HETATM    3  C           1     -21.446  -4.138  -8.268  0.00  0.00     0.023 C 
BRANCH   3   4
HETATM    4  C           1     -22.945  -4.034  -8.511  0.00  0.00     0.138 C 
BRANCH   4   5
HETATM    5  N           1     -23.192  -3.703  -9.922  0.00  0.00    -0.227 N 
HETATM    6  C           1     -24.378  -3.577 -10.344  0.00  0.00     0.665 C 
HETATM    7  N           1     -24.590  -3.291 -11.559  0.00  0.00    -0.235 N 
HETATM    8  N           1     -25.378  -3.740  -9.531  0.00  0.00    -0.235 N 
HETATM    9  H           1     -25.575  -3.187 -11.910  0.00  0.00     0.174 HD
HETATM   10  H           1     -23.782  -3.160 -12.217  0.00  0.00     0.174 HD
HETATM   11  H           1     -26.358  -3.636  -9.880  0.00  0.00     0.174 HD
HETATM   12  H           1     -25.204  -3.975  -8.528  0.00  0.00     0.174 HD
HETATM   13  H           1     -22.383  -3.571 -10.579  0.00  0.00     0.177 HD
ENDBRANCH   4   5
ENDBRANCH   3   4
ENDBRANCH   2   3
ENDBRANCH   1   2
BRANCH   1  14
HETATM   14  C           1     -21.434  -6.233  -5.493  0.00  0.00     0.251 C 
HETATM   15  N           1     -20.997  -7.388  -4.900  0.00  0.00    -0.336 N 
HETATM   16  C           1     -21.755  -8.282  -4.028  0.00  0.00     0.188 C 
HETATM   17  C           1     -19.673  -7.993  -5.001  0.00  0.00     0.127 C 
HETATM   18  C           1     -21.334  -9.670  -4.479  0.00  0.00     0.038 C 
HETATM   19  C           1     -19.962  -9.481  -5.115  0.00  0.00     0.022 C 
HETATM   20  O           1     -22.567  -5.854  -5.314  0.00  0.00    -0.271 OA
BRANCH  16  21
HETATM   21  C           1     -21.394  -8.054  -2.581  0.00  0.00     0.196 C 
HETATM   22  O           1     -21.362  -6.892  -2.120  0.00  0.00    -0.646 OA
HETATM   23  O           1     -21.127  -9.027  -1.843  0.00  0.00    -0.646 OA
ENDBRANCH  16  21
ENDBRANCH   1  14
BRANCH   1  24
HETATM   24  N           1     -20.170  -6.227  -7.598  0.00  0.00    -0.067 N 
HETATM   25  H           1     -19.218  -5.962  -7.939  0.00  0.00     0.275 HD
HETATM   26  H           1     -20.186  -7.246  -7.371  0.00  0.00     0.275 HD
HETATM   27  H           1     -20.875  -6.023  -8.342  0.00  0.00     0.275 HD
ENDBRANCH   1  24
TORSDOF 7
ENDMDL
MODEL 8
REMARK VINA RESULT:      -6.4     14.435     17.278
REMARK  7 active torsions:
REMARK  status: ('A' for Active; 'I' for Inactive)
REMARK    1  A    between atoms: C_1  and  C_2 
REMARK    2  A    between atoms: C_1  and  C_6 
REMARK    3  A    between atoms: C_2  and  C_3 
REMARK    4  A    between atoms: C_2  and  N_12 
REMARK       I    between atoms: C_3  and  N_4 
REMARK    5  A    between atoms: C_5  and  C_24 
REMARK    6  A    between atoms: C_6  and  C_7 
REMARK    7  A    between atoms: C_7  and  N_8 
REMARK       I    between atoms: N_8  and  C_9 
REMARK       I    between atoms: C_9  and  N_10 
ROOT
HETATM    1  C           1     -20.404  -6.406  -5.379  0.00  0.00     0.275 C 
ENDROOT
BRANCH   1   2
HETATM    2  C           1     -20.347  -4.885  -5.441  0.00  0.00     0.044 C 
BRANCH   2   3
HETATM    3  C           1     -20.116  -4.443  -6.880  0.00  0.00     0.023 C 
BRANCH   3   4
HETATM    4  C           1     -21.275  -3.567  -7.335  0.00  0.00     0.138 C 
BRANCH   4   5
HETATM    5  N           1     -21.739  -4.015  -8.656  0.00  0.00    -0.227 N 
HETATM    6  C           1     -22.965  -4.260  -8.847  0.00  0.00     0.665 C 
HETATM    7  N           1     -23.364  -4.646  -9.985  0.00  0.00    -0.235 N 
HETATM    8  N           1     -23.816  -4.115  -7.875  0.00  0.00    -0.235 N 
HETATM    9  H           1     -24.383  -4.849 -10.143  0.00  0.00     0.174 HD
HETATM   10  H           1     -22.678  -4.763 -10.770  0.00  0.00     0.174 HD
HETATM   11  H           1     -24.829  -4.317  -8.033  0.00  0.00     0.174 HD
HETATM   12  H           1     -23.487  -3.796  -6.936  0.00  0.00     0.174 HD
HETATM   13  H           1     -21.051  -4.132  -9.442  0.00  0.00     0.177 HD
ENDBRANCH   4   5
ENDBRANCH   3   4
ENDBRANCH   2   3
ENDBRANCH   1   2
BRANCH   1  14
HETATM   14  C           1     -21.501  -6.830  -4.433  0.00  0.00     0.251 C 
HETATM   15  N           1     -21.218  -7.672  -3.391  0.00  0.00    -0.336 N 
HETATM   16  C           1     -22.144  -8.184  -2.384  0.00  0.00     0.188 C 
HETATM   17  C           1     -19.924  -8.253  -3.044  0.00  0.00     0.127 C 
HETATM   18  C           1     -21.726  -9.634  -2.212  0.00  0.00     0.038 C 
HETATM   19  C           1     -20.264  -9.679  -2.641  0.00  0.00     0.022 C 
HETATM   20  O           1     -22.628  -6.427  -4.595  0.00  0.00    -0.271 OA
BRANCH  16  21
HETATM   21  C           1     -22.001  -7.425  -1.088  0.00  0.00     0.196 C 
HETATM   22  O           1     -22.349  -6.226  -1.024  0.00  0.00    -0.646 OA
HETATM   23  O           1     -21.534  -7.996  -0.079  0.00  0.00    -0.646 OA
ENDBRANCH  16  21
ENDBRANCH   1  14
BRANCH   1  24
HETATM   24  N           1     -20.687  -6.952  -6.747  0.00  0.00    -0.067 N 
HETATM   25  H           1     -20.431  -7.965  -6.778  0.00  0.00     0.275 HD
HETATM   26  H           1     -21.702  -6.843  -6.962  0.00  0.00     0.275 HD
HETATM   27  H           1     -20.121  -6.428  -7.453  0.00  0.00     0.275 HD
ENDBRANCH   1  24
TORSDOF 7
ENDMDL
MODEL 9
REMARK VINA RESULT:      -6.4      2.914      6.522
REMARK  7 active torsions:
REMARK  status: ('A' for Active; 'I' for Inactive)
REMARK    1  A    between atoms: C_1  and  C_2 
REMARK    2  A    between atoms: C_1  and  C_6 
REMARK    3  A    between atoms: C_2  and  C_3 
REMARK    4  A    between atoms: C_2  and  N_12 
REMARK       I    between atoms: C_3  and  N_4 
REMARK    5  A    between atoms: C_5  and  C_24 
REMARK    6  A    between atoms: C_6  and  C_7 
REMARK    7  A    between atoms: C_7  and  N_8 
REMARK       I    between atoms: N_8  and  C_9 
REMARK       I    between atoms: C_9  and  N_10 
ROOT
HETATM    1  C           1     -36.100  -0.592 -13.014  0.00  0.00     0.275 C 
ENDROOT
BRANCH   1   2
HETATM    2  C           1     -35.209   0.570 -12.596  0.00  0.00     0.044 C 
BRANCH   2   3
HETATM    3  C           1     -34.529   1.157 -13.826  0.00  0.00     0.023 C 
BRANCH   3   4
HETATM    4  C           1     -35.568   1.403 -14.912  0.00  0.00     0.138 C 
BRANCH   4   5
HETATM    5  N           1     -35.428   0.387 -15.965  0.00  0.00    -0.227 N 
HETATM    6  C           1     -36.457  -0.140 -16.477  0.00  0.00     0.665 C 
HETATM    7  N           1     -36.336  -1.015 -17.384  0.00  0.00    -0.235 N 
HETATM    8  N           1     -37.640   0.217 -16.073  0.00  0.00    -0.235 N 
HETATM    9  H           1     -37.191  -1.453 -17.810  0.00  0.00     0.174 HD
HETATM   10  H           1     -35.381  -1.304 -17.711  0.00  0.00     0.174 HD
HETATM   11  H           1     -38.490  -0.218 -16.497  0.00  0.00     0.174 HD
HETATM   12  H           1     -37.740   0.940 -15.325  0.00  0.00     0.174 HD
HETATM   13  H           1     -34.472   0.098 -16.291  0.00  0.00     0.177 HD
ENDBRANCH   4   5
ENDBRANCH   3   4
ENDBRANCH   2   3
ENDBRANCH   1   2
BRANCH   1  14
HETATM   14  C           1     -35.245  -1.794 -13.332  0.00  0.00     0.251 C 
HETATM   15  N           1     -34.679  -2.519 -12.318  0.00  0.00    -0.336 N 
HETATM   16  C           1     -33.829  -3.701 -12.436  0.00  0.00     0.188 C 
HETATM   17  C           1     -34.793  -2.279 -10.882  0.00  0.00     0.127 C 
HETATM   18  C           1     -32.757  -3.483 -11.381  0.00  0.00     0.038 C 
HETATM   19  C           1     -33.393  -2.552 -10.357  0.00  0.00     0.022 C 
HETATM   20  O           1     -35.059  -2.117 -14.482  0.00  0.00    -0.271 OA
BRANCH  16  21
HETATM   21  C           1     -34.615  -4.957 -12.153  0.00  0.00     0.196 C 
HETATM   22  O           1     -34.555  -5.491 -11.025  0.00  0.00    -0.646 OA
HETATM   23  O           1     -35.326  -5.464 -13.048  0.00  0.00    -0.646 OA
ENDBRANCH  16  21
ENDBRANCH   1  14
BRANCH   1  24
HETATM   24  N           1     -37.038  -0.931 -11.894  0.00  0.00    -0.067 N 
HETATM   25  H           1     -37.772  -1.590 -12.240  0.00  0.00     0.275 HD
HETATM   26  H           1     -36.505  -1.380 -11.117  0.00  0.00     0.275 HD
HETATM   27  H           1     -37.493  -0.056 -11.545  0.00  0.00     0.275 HD
ENDBRANCH   1  24
TORSDOF 7
ENDMDL
