MODEL 1
REMARK VINA RESULT:      -5.6      0.000      0.000
REMARK  10 active torsions:
REMARK  status: ('A' for Active; 'I' for Inactive)
REMARK    1  A    between atoms: C_1  and  C_2 
REMARK    2  A    between atoms: C_1  and  S_20 
REMARK    3  A    between atoms: C_2  and  C_3 
REMARK    4  A    between atoms: C_2  and  N_19 
REMARK       I    between atoms: C_3  and  N_22 
REMARK    5  A    between atoms: C_8  and  C_9 
REMARK    6  A    between atoms: C_8  and  C_11 
REMARK    7  A    between atoms: C_8  and  N_22 
REMARK    8  A    between atoms: C_9  and  C_13 
REMARK    9  A    between atoms: C_13  and  C_14 
REMARK   10  A    between atoms: C_14  and  N_15 
ROOT
HETATM    1  C           1     -34.280  -2.557 -12.189  0.00  0.00     0.249 C 
HETATM    2  O           1     -33.790  -2.208 -11.141  0.00  0.00    -0.271 OA
HETATM    3  N           1     -34.923  -1.644 -12.981  0.00  0.00    -0.345 N 
HETATM    4  H           1     -35.335  -1.937 -13.858  0.00  0.00     0.163 HD
ENDROOT
BRANCH   3   5
HETATM    5  C           1     -35.017  -0.259 -12.562  0.00  0.00     0.185 C 
BRANCH   5   6
HETATM    6  C           1     -35.008   0.643 -13.788  0.00  0.00     0.038 C 
BRANCH   6   7
HETATM    7  C           1     -35.349  -0.178 -15.026  0.00  0.00     0.030 C 
BRANCH   7   8
HETATM    8  C           1     -36.636   0.348 -15.646  0.00  0.00     0.230 C 
BRANCH   8   9
HETATM    9  N           1     -36.478   1.803 -15.973  0.00  0.00    -0.079 N 
HETATM   10  H           1     -35.510   1.977 -16.327  0.00  0.00     0.274 HD
HETATM   11  H           1     -36.641   2.374 -15.112  0.00  0.00     0.274 HD
HETATM   12  H           1     -37.172   2.073 -16.705  0.00  0.00     0.274 HD
ENDBRANCH   8   9
ENDBRANCH   7   8
ENDBRANCH   6   7
ENDBRANCH   5   6
BRANCH   5  13
HETATM   13  C           1     -36.299  -0.052 -11.793  0.00  0.00     0.196 C 
HETATM   14  O           1     -36.279   0.535 -10.690  0.00  0.00    -0.646 OA
HETATM   15  O           1     -37.382  -0.469 -12.260  0.00  0.00    -0.646 OA
ENDBRANCH   5  13
ENDBRANCH   3   5
BRANCH   1  16
HETATM   16  C           1     -34.183  -3.998 -12.624  0.00  0.00     0.283 C 
BRANCH  16  17
HETATM   17  C           1     -33.220  -4.742 -11.709  0.00  0.00     0.113 C 
BRANCH  17  18
HETATM   18  S           1     -34.125  -6.016 -10.783  0.00  0.00    -0.180 SA
HETATM   19  H           1     -34.393  -5.247  -9.712  0.00  0.00     0.101 HD
ENDBRANCH  17  18
ENDBRANCH  16  17
BRANCH  16  20
HETATM   20  N           1     -33.679  -4.060 -14.036  0.00  0.00    -0.066 N 
HETATM   21  H           1     -33.663  -5.054 -14.357  0.00  0.00     0.275 HD
HETATM   22  H           1     -32.712  -3.664 -14.078  0.00  0.00     0.275 HD
HETATM   23  H           1     -34.309  -3.503 -14.657  0.00  0.00     0.275 HD
ENDBRANCH  16  20
ENDBRANCH   1  16
TORSDOF 10
ENDMDL
MODEL 2
REMARK VINA RESULT:      -5.6     12.014     13.794
REMARK  10 active torsions:
REMARK  status: ('A' for Active; 'I' for Inactive)
REMARK    1  A    between atoms: C_1  and  C_2 
REMARK    2  A    between atoms: C_1  and  S_20 
REMARK    3  A    between atoms: C_2  and  C_3 
REMARK    4  A    between atoms: C_2  and  N_19 
REMARK       I    between atoms: C_3  and  N_22 
REMARK    5  A    between atoms: C_8  and  C_9 
REMARK    6  A    between atoms: C_8  and  C_11 
REMARK    7  A    between atoms: C_8  and  N_22 
REMARK    8  A    between atoms: C_9  and  C_13 
REMARK    9  A    between atoms: C_13  and  C_14 
REMARK   10  A    between atoms: C_14  and  N_15 
ROOT
HETATM    1  C           1     -21.587  -4.549  -7.577  0.00  0.00     0.249 C 
HETATM    2  O           1     -21.510  -3.419  -7.158  0.00  0.00    -0.271 OA
HETATM    3  N           1     -22.141  -4.788  -8.805  0.00  0.00    -0.345 N 
HETATM    4  H           1     -22.206  -5.735  -9.156  0.00  0.00     0.163 HD
ENDROOT
BRANCH   3   5
HETATM    5  C           1     -22.638  -3.683  -9.603  0.00  0.00     0.185 C 
BRANCH   5   6
HETATM    6  C           1     -21.968  -3.704 -10.970  0.00  0.00     0.038 C 
BRANCH   6   7
HETATM    7  C           1     -22.530  -2.578 -11.829  0.00  0.00     0.030 C 
BRANCH   7   8
HETATM    8  C           1     -22.759  -3.086 -13.246  0.00  0.00     0.230 C 
BRANCH   8   9
HETATM    9  N           1     -23.913  -4.044 -13.255  0.00  0.00    -0.079 N 
HETATM   10  H           1     -24.714  -3.630 -12.726  0.00  0.00     0.274 HD
HETATM   11  H           1     -23.625  -4.942 -12.803  0.00  0.00     0.274 HD
HETATM   12  H           1     -24.205  -4.229 -14.241  0.00  0.00     0.274 HD
ENDBRANCH   8   9
ENDBRANCH   7   8
ENDBRANCH   6   7
ENDBRANCH   5   6
BRANCH   5  13
HETATM   13  C           1     -24.132  -3.818  -9.772  0.00  0.00     0.196 C 
HETATM   14  O           1     -24.883  -2.866  -9.469  0.00  0.00    -0.646 OA
HETATM   15  O           1     -24.618  -4.881 -10.214  0.00  0.00    -0.646 OA
ENDBRANCH   5  13
ENDBRANCH   3   5
BRANCH   1  16
HETATM   16  C           1     -21.070  -5.698  -6.746  0.00  0.00     0.283 C 
BRANCH  16  17
HETATM   17  C           1     -20.699  -5.196  -5.358  0.00  0.00     0.113 C 
BRANCH  17  18
HETATM   18  S           1     -21.422  -6.292  -4.104  0.00  0.00    -0.180 SA
HETATM   19  H           1     -20.427  -7.197  -4.118  0.00  0.00     0.101 HD
ENDBRANCH  17  18
ENDBRANCH  16  17
BRANCH  16  20
HETATM   20  N           1     -19.856  -6.284  -7.406  0.00  0.00    -0.066 N 
HETATM   21  H           1     -19.987  -7.313  -7.525  0.00  0.00     0.275 HD
HETATM   22  H           1     -19.016  -6.106  -6.810  0.00  0.00     0.275 HD
HETATM   23  H           1     -19.718  -5.840  -8.342  0.00  0.00     0.275 HD
ENDBRANCH  16  20
ENDBRANCH   1  16
TORSDOF 10
ENDMDL
MODEL 3
REMARK VINA RESULT:      -5.4      3.168      6.392
REMARK  10 active torsions:
REMARK  status: ('A' for Active; 'I' for Inactive)
REMARK    1  A    between atoms: C_1  and  C_2 
REMARK    2  A    between atoms: C_1  and  S_20 
REMARK    3  A    between atoms: C_2  and  C_3 
REMARK    4  A    between atoms: C_2  and  N_19 
REMARK       I    between atoms: C_3  and  N_22 
REMARK    5  A    between atoms: C_8  and  C_9 
REMARK    6  A    between atoms: C_8  and  C_11 
REMARK    7  A    between atoms: C_8  and  N_22 
REMARK    8  A    between atoms: C_9  and  C_13 
REMARK    9  A    between atoms: C_13  and  C_14 
REMARK   10  A    between atoms: C_14  and  N_15 
ROOT
HETATM    1  C           1     -35.323  -1.928 -10.948  0.00  0.00     0.249 C 
HETATM    2  O           1     -34.391  -1.641 -10.235  0.00  0.00    -0.271 OA
HETATM    3  N           1     -35.391  -3.171 -11.517  0.00  0.00    -0.345 N 
HETATM    4  H           1     -36.172  -3.412 -12.115  0.00  0.00     0.163 HD
ENDROOT
BRANCH   3   5
HETATM    5  C           1     -34.345  -4.143 -11.265  0.00  0.00     0.185 C 
BRANCH   5   6
HETATM    6  C           1     -34.952  -5.537 -11.202  0.00  0.00     0.038 C 
BRANCH   6   7
HETATM    7  C           1     -34.236  -6.357 -10.136  0.00  0.00     0.030 C 
BRANCH   7   8
HETATM    8  C           1     -34.753  -7.789 -10.164  0.00  0.00     0.230 C 
BRANCH   8   9
HETATM    9  N           1     -33.595  -8.738 -10.248  0.00  0.00    -0.079 N 
HETATM   10  H           1     -33.939  -9.684 -10.531  0.00  0.00     0.274 HD
HETATM   11  H           1     -33.128  -8.804  -9.314  0.00  0.00     0.274 HD
HETATM   12  H           1     -32.909  -8.390 -10.955  0.00  0.00     0.274 HD
ENDBRANCH   8   9
ENDBRANCH   7   8
ENDBRANCH   6   7
ENDBRANCH   5   6
BRANCH   5  13
HETATM   13  C           1     -33.327  -4.086 -12.378  0.00  0.00     0.196 C 
HETATM   14  O           1     -32.131  -4.367 -12.147  0.00  0.00    -0.646 OA
HETATM   15  O           1     -33.680  -3.757 -13.531  0.00  0.00    -0.646 OA
ENDBRANCH   5  13
ENDBRANCH   3   5
BRANCH   1  16
HETATM   16  C           1     -36.412  -0.917 -11.211  0.00  0.00     0.283 C 
BRANCH  16  17
HETATM   17  C           1     -36.454  -0.588 -12.697  0.00  0.00     0.113 C 
BRANCH  17  18
HETATM   18  S           1     -35.011   0.424 -13.134  0.00  0.00    -0.180 SA
HETATM   19  H           1     -35.381   0.654 -14.407  0.00  0.00     0.101 HD
ENDBRANCH  17  18
ENDBRANCH  16  17
BRANCH  16  20
HETATM   20  N           1     -36.130   0.334 -10.431  0.00  0.00    -0.066 N 
HETATM   21  H           1     -36.658   1.131 -10.849  0.00  0.00     0.275 HD
HETATM   22  H           1     -35.105   0.539 -10.461  0.00  0.00     0.275 HD
HETATM   23  H           1     -36.428   0.200  -9.437  0.00  0.00     0.275 HD
ENDBRANCH  16  20
ENDBRANCH   1  16
TORSDOF 10
ENDMDL
MODEL 4
REMARK VINA RESULT:      -5.2      2.326      3.287
REMARK  10 active torsions:
REMARK  status: ('A' for Active; 'I' for Inactive)
REMARK    1  A    between atoms: C_1  and  C_2 
REMARK    2  A    between atoms: C_1  and  S_20 
REMARK    3  A    between atoms: C_2  and  C_3 
REMARK    4  A    between atoms: C_2  and  N_19 
REMARK       I    between atoms: C_3  and  N_22 
REMARK    5  A    between atoms: C_8  and  C_9 
REMARK    6  A    between atoms: C_8  and  C_11 
REMARK    7  A    between atoms: C_8  and  N_22 
REMARK    8  A    between atoms: C_9  and  C_13 
REMARK    9  A    between atoms: C_13  and  C_14 
REMARK   10  A    between atoms: C_14  and  N_15 
ROOT
HETATM    1  C           1     -34.267  -2.548 -12.434  0.00  0.00     0.249 C 
HETATM    2  O           1     -34.506  -3.117 -13.473  0.00  0.00    -0.271 OA
HETATM    3  N           1     -34.882  -1.359 -12.148  0.00  0.00    -0.345 N 
HETATM    4  H           1     -34.681  -0.883 -11.278  0.00  0.00     0.163 HD
ENDROOT
BRANCH   3   5
HETATM    5  C           1     -35.819  -0.782 -13.091  0.00  0.00     0.185 C 
BRANCH   5   6
HETATM    6  C           1     -36.911  -0.040 -12.332  0.00  0.00     0.038 C 
BRANCH   6   7
HETATM    7  C           1     -37.109  -0.686 -10.966  0.00  0.00     0.030 C 
BRANCH   7   8
HETATM    8  C           1     -37.611   0.358  -9.978  0.00  0.00     0.230 C 
BRANCH   8   9
HETATM    9  N           1     -36.463   1.207  -9.520  0.00  0.00    -0.079 N 
HETATM   10  H           1     -36.761   1.782  -8.699  0.00  0.00     0.274 HD
HETATM   11  H           1     -36.164   1.839 -10.297  0.00  0.00     0.274 HD
HETATM   12  H           1     -35.664   0.593  -9.244  0.00  0.00     0.274 HD
ENDBRANCH   8   9
ENDBRANCH   7   8
ENDBRANCH   6   7
ENDBRANCH   5   6
BRANCH   5  13
HETATM   13  C           1     -35.092   0.182 -13.997  0.00  0.00     0.196 C 
HETATM   14  O           1     -34.726   1.294 -13.561  0.00  0.00    -0.646 OA
HETATM   15  O           1     -34.856  -0.133 -15.184  0.00  0.00    -0.646 OA
ENDBRANCH   5  13
ENDBRANCH   3   5
BRANCH   1  16
HETATM   16  C           1     -33.291  -3.149 -11.453  0.00  0.00     0.283 C 
BRANCH  16  17
HETATM   17  C           1     -32.911  -4.552 -11.907  0.00  0.00     0.113 C 
BRANCH  17  18
HETATM   18  S           1     -33.913  -5.772 -11.010  0.00  0.00    -0.180 SA
HETATM   19  H           1     -33.354  -5.554  -9.806  0.00  0.00     0.101 HD
ENDBRANCH  17  18
ENDBRANCH  16  17
BRANCH  16  20
HETATM   20  N           1     -33.927  -3.219 -10.096  0.00  0.00    -0.066 N 
HETATM   21  H           1     -33.567  -2.439  -9.502  0.00  0.00     0.275 HD
HETATM   22  H           1     -33.693  -4.135  -9.649  0.00  0.00     0.275 HD
HETATM   23  H           1     -34.965  -3.134 -10.192  0.00  0.00     0.275 HD
ENDBRANCH  16  20
ENDBRANCH   1  16
TORSDOF 10
ENDMDL
MODEL 5
REMARK VINA RESULT:      -5.0     13.012     15.782
REMARK  10 active torsions:
REMARK  status: ('A' for Active; 'I' for Inactive)
REMARK    1  A    between atoms: C_1  and  C_2 
REMARK    2  A    between atoms: C_1  and  S_20 
REMARK    3  A    between atoms: C_2  and  C_3 
REMARK    4  A    between atoms: C_2  and  N_19 
REMARK       I    between atoms: C_3  and  N_22 
REMARK    5  A    between atoms: C_8  and  C_9 
REMARK    6  A    between atoms: C_8  and  C_11 
REMARK    7  A    between atoms: C_8  and  N_22 
REMARK    8  A    between atoms: C_9  and  C_13 
REMARK    9  A    between atoms: C_13  and  C_14 
REMARK   10  A    between atoms: C_14  and  N_15 
ROOT
HETATM    1  C           1     -22.412  -4.192  -8.220  0.00  0.00     0.249 C 
HETATM    2  O           1     -21.666  -3.290  -8.520  0.00  0.00    -0.271 OA
HETATM    3  N           1     -22.122  -4.993  -7.149  0.00  0.00    -0.345 N 
HETATM    4  H           1     -22.747  -5.749  -6.899  0.00  0.00     0.163 HD
ENDROOT
BRANCH   3   5
HETATM    5  C           1     -20.919  -4.760  -6.374  0.00  0.00     0.185 C 
BRANCH   5   6
HETATM    6  C           1     -21.033  -5.475  -5.034  0.00  0.00     0.038 C 
BRANCH   6   7
HETATM    7  C           1     -22.218  -6.432  -5.067  0.00  0.00     0.030 C 
BRANCH   7   8
HETATM    8  C           1     -21.751  -7.832  -4.692  0.00  0.00     0.230 C 
BRANCH   8   9
HETATM    9  N           1     -21.140  -8.495  -5.891  0.00  0.00    -0.079 N 
HETATM   10  H           1     -20.311  -9.057  -5.593  0.00  0.00     0.274 HD
HETATM   11  H           1     -20.838  -7.765  -6.577  0.00  0.00     0.274 HD
HETATM   12  H           1     -21.846  -9.122  -6.339  0.00  0.00     0.274 HD
ENDBRANCH   8   9
ENDBRANCH   7   8
ENDBRANCH   6   7
ENDBRANCH   5   6
BRANCH   5  13
HETATM   13  C           1     -19.724  -5.292  -7.128  0.00  0.00     0.196 C 
HETATM   14  O           1     -18.766  -4.535  -7.394  0.00  0.00    -0.646 OA
HETATM   15  O           1     -19.694  -6.488  -7.489  0.00  0.00    -0.646 OA
ENDBRANCH   5  13
ENDBRANCH   3   5
BRANCH   1  16
HETATM   16  C           1     -23.664  -4.434  -9.027  0.00  0.00     0.283 C 
BRANCH  16  17
HETATM   17  C           1     -23.293  -4.651 -10.488  0.00  0.00     0.113 C 
BRANCH  17  18
HETATM   18  S           1     -23.959  -3.291 -11.491  0.00  0.00    -0.180 SA
HETATM   19  H           1     -22.889  -2.486 -11.363  0.00  0.00     0.101 HD
ENDBRANCH  17  18
ENDBRANCH  16  17
BRANCH  16  20
HETATM   20  N           1     -24.569  -3.242  -8.914  0.00  0.00    -0.066 N 
HETATM   21  H           1     -24.719  -3.014  -7.906  0.00  0.00     0.275 HD
HETATM   22  H           1     -25.487  -3.460  -9.364  0.00  0.00     0.275 HD
HETATM   23  H           1     -24.131  -2.424  -9.395  0.00  0.00     0.275 HD
ENDBRANCH  16  20
ENDBRANCH   1  16
TORSDOF 10
ENDMDL
MODEL 6
REMARK VINA RESULT:      -4.8     13.772     15.415
REMARK  10 active torsions:
REMARK  status: ('A' for Active; 'I' for Inactive)
REMARK    1  A    between atoms: C_1  and  C_2 
REMARK    2  A    between atoms: C_1  and  S_20 
REMARK    3  A    between atoms: C_2  and  C_3 
REMARK    4  A    between atoms: C_2  and  N_19 
REMARK       I    between atoms: C_3  and  N_22 
REMARK    5  A    between atoms: C_8  and  C_9 
REMARK    6  A    between atoms: C_8  and  C_11 
REMARK    7  A    between atoms: C_8  and  N_22 
REMARK    8  A    between atoms: C_9  and  C_13 
REMARK    9  A    between atoms: C_13  and  C_14 
REMARK   10  A    between atoms: C_14  and  N_15 
ROOT
HETATM    1  C           1     -21.265  -6.121  -6.224  0.00  0.00     0.249 C 
HETATM    2  O           1     -21.002  -7.100  -6.880  0.00  0.00    -0.271 OA
HETATM    3  N           1     -21.628  -4.957  -6.846  0.00  0.00    -0.345 N 
HETATM    4  H           1     -21.847  -4.136  -6.296  0.00  0.00     0.163 HD
ENDROOT
BRANCH   3   5
HETATM    5  C           1     -21.696  -4.899  -8.293  0.00  0.00     0.185 C 
BRANCH   5   6
HETATM    6  C           1     -22.790  -3.926  -8.711  0.00  0.00     0.038 C 
BRANCH   6   7
HETATM    7  C           1     -23.589  -4.522  -9.863  0.00  0.00     0.030 C 
BRANCH   7   8
HETATM    8  C           1     -23.290  -3.751 -11.141  0.00  0.00     0.230 C 
BRANCH   8   9
HETATM    9  N           1     -22.314  -4.525 -11.977  0.00  0.00    -0.079 N 
HETATM   10  H           1     -22.617  -4.501 -12.977  0.00  0.00     0.274 HD
HETATM   11  H           1     -22.281  -5.517 -11.647  0.00  0.00     0.274 HD
HETATM   12  H           1     -21.365  -4.098 -11.889  0.00  0.00     0.274 HD
ENDBRANCH   8   9
ENDBRANCH   7   8
ENDBRANCH   6   7
ENDBRANCH   5   6
BRANCH   5  13
HETATM   13  C           1     -20.369  -4.432  -8.841  0.00  0.00     0.196 C 
HETATM   14  O           1     -20.021  -4.755  -9.996  0.00  0.00    -0.646 OA
HETATM   15  O           1     -19.618  -3.722  -8.137  0.00  0.00    -0.646 OA
ENDBRANCH   5  13
ENDBRANCH   3   5
BRANCH   1  16
HETATM   16  C           1     -21.194  -6.181  -4.718  0.00  0.00     0.283 C 
BRANCH  16  17
HETATM   17  C           1     -20.516  -7.477  -4.292  0.00  0.00     0.113 C 
BRANCH  17  18
HETATM   18  S           1     -20.951  -7.850  -2.568  0.00  0.00    -0.180 SA
HETATM   19  H           1     -22.283  -7.820  -2.750  0.00  0.00     0.101 HD
ENDBRANCH  17  18
ENDBRANCH  16  17
BRANCH  16  20
HETATM   20  N           1     -22.582  -6.134  -4.150  0.00  0.00    -0.066 N 
HETATM   21  H           1     -23.203  -5.593  -4.793  0.00  0.00     0.275 HD
HETATM   22  H           1     -22.559  -5.670  -3.213  0.00  0.00     0.275 HD
HETATM   23  H           1     -22.950  -7.107  -4.046  0.00  0.00     0.275 HD
ENDBRANCH  16  20
ENDBRANCH   1  16
TORSDOF 10
ENDMDL
MODEL 7
REMARK VINA RESULT:      -4.7     12.085     14.575
REMARK  10 active torsions:
REMARK  status: ('A' for Active; 'I' for Inactive)
REMARK    1  A    between atoms: C_1  and  C_2 
REMARK    2  A    between atoms: C_1  and  S_20 
REMARK    3  A    between atoms: C_2  and  C_3 
REMARK    4  A    between atoms: C_2  and  N_19 
REMARK       I    between atoms: C_3  and  N_22 
REMARK    5  A    between atoms: C_8  and  C_9 
REMARK    6  A    between atoms: C_8  and  C_11 
REMARK    7  A    between atoms: C_8  and  N_22 
REMARK    8  A    between atoms: C_9  and  C_13 
REMARK    9  A    between atoms: C_13  and  C_14 
REMARK   10  A    between atoms: C_14  and  N_15 
ROOT
HETATM    1  C           1     -23.315  -4.612 -11.015  0.00  0.00     0.249 C 
HETATM    2  O           1     -23.906  -5.582 -10.602  0.00  0.00    -0.271 OA
HETATM    3  N           1     -22.253  -4.109 -10.313  0.00  0.00    -0.345 N 
HETATM    4  H           1     -21.758  -3.296 -10.658  0.00  0.00     0.163 HD
ENDROOT
BRANCH   3   5
HETATM    5  C           1     -21.838  -4.738  -9.074  0.00  0.00     0.185 C 
BRANCH   5   6
HETATM    6  C           1     -20.320  -4.703  -8.971  0.00  0.00     0.038 C 
BRANCH   6   7
HETATM    7  C           1     -19.864  -5.630  -7.851  0.00  0.00     0.030 C 
BRANCH   7   8
HETATM    8  C           1     -19.095  -4.829  -6.809  0.00  0.00     0.230 C 
BRANCH   8   9
HETATM    9  N           1     -19.940  -4.661  -5.582  0.00  0.00    -0.079 N 
HETATM   10  H           1     -20.550  -5.501  -5.461  0.00  0.00     0.274 HD
HETATM   11  H           1     -20.538  -3.809  -5.683  0.00  0.00     0.274 HD
HETATM   12  H           1     -19.323  -4.555  -4.746  0.00  0.00     0.274 HD
ENDBRANCH   8   9
ENDBRANCH   7   8
ENDBRANCH   6   7
ENDBRANCH   5   6
BRANCH   5  13
HETATM   13  C           1     -22.440  -3.995  -7.906  0.00  0.00     0.196 C 
HETATM   14  O           1     -23.525  -4.375  -7.416  0.00  0.00    -0.646 OA
HETATM   15  O           1     -21.854  -2.998  -7.431  0.00  0.00    -0.646 OA
ENDBRANCH   5  13
ENDBRANCH   3   5
BRANCH   1  16
HETATM   16  C           1     -23.747  -3.957 -12.303  0.00  0.00     0.283 C 
BRANCH  16  17
HETATM   17  C           1     -22.618  -3.084 -12.834  0.00  0.00     0.113 C 
BRANCH  17  18
HETATM   18  S           1     -22.993  -2.578 -14.537  0.00  0.00    -0.180 SA
HETATM   19  H           1     -21.723  -2.613 -14.977  0.00  0.00     0.101 HD
ENDBRANCH  17  18
ENDBRANCH  16  17
BRANCH  16  20
HETATM   20  N           1     -24.958  -3.108 -12.050  0.00  0.00    -0.066 N 
HETATM   21  H           1     -25.279  -2.684 -12.948  0.00  0.00     0.275 HD
HETATM   22  H           1     -24.715  -2.350 -11.372  0.00  0.00     0.275 HD
HETATM   23  H           1     -25.722  -3.700 -11.651  0.00  0.00     0.275 HD
ENDBRANCH  16  20
ENDBRANCH   1  16
TORSDOF 10
ENDMDL
MODEL 8
REMARK VINA RESULT:      -4.6     15.407     17.562
REMARK  10 active torsions:
REMARK  status: ('A' for Active; 'I' for Inactive)
REMARK    1  A    between atoms: C_1  and  C_2 
REMARK    2  A    between atoms: C_1  and  S_20 
REMARK    3  A    between atoms: C_2  and  C_3 
REMARK    4  A    between atoms: C_2  and  N_19 
REMARK       I    between atoms: C_3  and  N_22 
REMARK    5  A    between atoms: C_8  and  C_9 
REMARK    6  A    between atoms: C_8  and  C_11 
REMARK    7  A    between atoms: C_8  and  N_22 
REMARK    8  A    between atoms: C_9  and  C_13 
REMARK    9  A    between atoms: C_13  and  C_14 
REMARK   10  A    between atoms: C_14  and  N_15 
ROOT
HETATM    1  C           1     -20.935  -5.222  -6.539  0.00  0.00     0.249 C 
HETATM    2  O           1     -20.333  -4.448  -5.833  0.00  0.00    -0.271 OA
HETATM    3  N           1     -21.220  -6.482  -6.085  0.00  0.00    -0.345 N 
HETATM    4  H           1     -21.723  -7.130  -6.677  0.00  0.00     0.163 HD
ENDROOT
BRANCH   3   5
HETATM    5  C           1     -20.799  -6.887  -4.758  0.00  0.00     0.185 C 
BRANCH   5   6
HETATM    6  C           1     -21.991  -6.843  -3.812  0.00  0.00     0.038 C 
BRANCH   6   7
HETATM    7  C           1     -21.606  -6.095  -2.542  0.00  0.00     0.030 C 
BRANCH   7   8
HETATM    8  C           1     -22.097  -6.871  -1.327  0.00  0.00     0.230 C 
BRANCH   8   9
HETATM    9  N           1     -21.348  -8.166  -1.223  0.00  0.00    -0.079 N 
HETATM   10  H           1     -21.677  -8.819  -1.971  0.00  0.00     0.274 HD
HETATM   11  H           1     -21.522  -8.595  -0.285  0.00  0.00     0.274 HD
HETATM   12  H           1     -20.326  -7.988  -1.340  0.00  0.00     0.274 HD
ENDBRANCH   8   9
ENDBRANCH   7   8
ENDBRANCH   6   7
ENDBRANCH   5   6
BRANCH   5  13
HETATM   13  C           1     -20.251  -8.292  -4.813  0.00  0.00     0.196 C 
HETATM   14  O           1     -20.726  -9.178  -4.069  0.00  0.00    -0.646 OA
HETATM   15  O           1     -19.321  -8.571  -5.601  0.00  0.00    -0.646 OA
ENDBRANCH   5  13
ENDBRANCH   3   5
BRANCH   1  16
HETATM   16  C           1     -21.372  -4.799  -7.919  0.00  0.00     0.283 C 
BRANCH  16  17
HETATM   17  C           1     -20.156  -4.375  -8.731  0.00  0.00     0.113 C 
BRANCH  17  18
HETATM   18  S           1     -20.635  -4.153 -10.469  0.00  0.00    -0.180 SA
HETATM   19  H           1     -21.484  -5.195 -10.515  0.00  0.00     0.101 HD
ENDBRANCH  17  18
ENDBRANCH  16  17
BRANCH  16  20
HETATM   20  N           1     -22.326  -3.646  -7.809  0.00  0.00    -0.066 N 
HETATM   21  H           1     -22.731  -3.438  -8.749  0.00  0.00     0.275 HD
HETATM   22  H           1     -21.816  -2.805  -7.455  0.00  0.00     0.275 HD
HETATM   23  H           1     -23.095  -3.891  -7.145  0.00  0.00     0.275 HD
ENDBRANCH  16  20
ENDBRANCH   1  16
TORSDOF 10
ENDMDL
MODEL 9
REMARK VINA RESULT:      -4.5     12.231     14.258
REMARK  10 active torsions:
REMARK  status: ('A' for Active; 'I' for Inactive)
REMARK    1  A    between atoms: C_1  and  C_2 
REMARK    2  A    between atoms: C_1  and  S_20 
REMARK    3  A    between atoms: C_2  and  C_3 
REMARK    4  A    between atoms: C_2  and  N_19 
REMARK       I    between atoms: C_3  and  N_22 
REMARK    5  A    between atoms: C_8  and  C_9 
REMARK    6  A    between atoms: C_8  and  C_11 
REMARK    7  A    between atoms: C_8  and  N_22 
REMARK    8  A    between atoms: C_9  and  C_13 
REMARK    9  A    between atoms: C_13  and  C_14 
REMARK   10  A    between atoms: C_14  and  N_15 
ROOT
HETATM    1  C           1     -20.871  -4.721  -8.544  0.00  0.00     0.249 C 
HETATM    2  O           1     -19.854  -5.175  -9.012  0.00  0.00    -0.271 OA
HETATM    3  N           1     -21.873  -4.293  -9.372  0.00  0.00    -0.345 N 
HETATM    4  H           1     -22.725  -3.911  -8.980  0.00  0.00     0.163 HD
ENDROOT
BRANCH   3   5
HETATM    5  C           1     -21.714  -4.384 -10.810  0.00  0.00     0.185 C 
BRANCH   5   6
HETATM    6  C           1     -23.029  -4.824 -11.439  0.00  0.00     0.038 C 
BRANCH   6   7
HETATM    7  C           1     -24.113  -4.875 -10.369  0.00  0.00     0.030 C 
BRANCH   7   8
HETATM    8  C           1     -24.892  -3.567 -10.373  0.00  0.00     0.230 C 
BRANCH   8   9
HETATM    9  N           1     -24.923  -2.997  -8.985  0.00  0.00    -0.079 N 
HETATM   10  H           1     -25.507  -3.609  -8.371  0.00  0.00     0.274 HD
HETATM   11  H           1     -25.335  -2.036  -9.012  0.00  0.00     0.274 HD
HETATM   12  H           1     -23.951  -2.949  -8.607  0.00  0.00     0.274 HD
ENDBRANCH   8   9
ENDBRANCH   7   8
ENDBRANCH   6   7
ENDBRANCH   5   6
BRANCH   5  13
HETATM   13  C           1     -21.321  -3.034 -11.359  0.00  0.00     0.196 C 
HETATM   14  O           1     -20.153  -2.615 -11.210  0.00  0.00    -0.646 OA
HETATM   15  O           1     -22.164  -2.334 -11.961  0.00  0.00    -0.646 OA
ENDBRANCH   5  13
ENDBRANCH   3   5
BRANCH   1  16
HETATM   16  C           1     -21.035  -4.626  -7.047  0.00  0.00     0.283 C 
BRANCH  16  17
HETATM   17  C           1     -20.428  -5.857  -6.389  0.00  0.00     0.113 C 
BRANCH  17  18
HETATM   18  S           1     -21.116  -6.054  -4.720  0.00  0.00    -0.180 SA
HETATM   19  H           1     -20.174  -5.326  -4.094  0.00  0.00     0.101 HD
ENDBRANCH  17  18
ENDBRANCH  16  17
BRANCH  16  20
HETATM   20  N           1     -22.496  -4.549  -6.710  0.00  0.00    -0.066 N 
HETATM   21  H           1     -22.889  -3.650  -7.067  0.00  0.00     0.275 HD
HETATM   22  H           1     -22.616  -4.595  -5.672  0.00  0.00     0.275 HD
HETATM   23  H           1     -22.999  -5.350  -7.153  0.00  0.00     0.275 HD
ENDBRANCH  16  20
ENDBRANCH   1  16
TORSDOF 10
ENDMDL
