MODEL 1
REMARK VINA RESULT:      -5.3      0.000      0.000
REMARK  9 active torsions:
REMARK  status: ('A' for Active; 'I' for Inactive)
REMARK    1  A    between atoms: N_1  and  C_8 
REMARK       I    between atoms: N_1  and  C_3 
REMARK    2  A    between atoms: C_2  and  C_13 
REMARK    3  A    between atoms: C_2  and  C_8 
REMARK    4  A    between atoms: C_3  and  C_7 
REMARK    5  A    between atoms: O_4  and  C_11 
REMARK    6  A    between atoms: C_7  and  C_11 
REMARK    7  A    between atoms: C_7  and  N_18 
REMARK    8  A    between atoms: C_8  and  C_20 
REMARK    9  A    between atoms: C_13  and  Se_14 
ROOT
HETATM    1  N           1     -36.722  -0.349 -13.006  0.00  0.00    -0.345 N 
HETATM    2  C           1     -36.067   0.370 -13.971  0.00  0.00     0.251 C 
HETATM    3  H           1     -37.554  -0.873 -13.243  0.00  0.00     0.163 HD
HETATM    4  O           1     -35.073   0.995 -13.688  0.00  0.00    -0.271 OA
ENDROOT
BRANCH   1   5
HETATM    5  C           1     -36.222  -0.358 -11.645  0.00  0.00     0.185 C 
BRANCH   5   6
HETATM    6  C           1     -37.393  -0.453 -10.676  0.00  0.00     0.036 C 
BRANCH   6   7
HETATM    7  C           1     -36.903  -0.185  -9.259  0.00  0.00     0.003 C 
BRANCH   7   8
HETATM    8 Se           1     -37.695   1.469  -8.599  0.00  0.00     0.000 Se
HETATM    9  C           1     -37.219   1.145  -6.737  0.00  0.00     0.000 C 
ENDBRANCH   7   8
ENDBRANCH   6   7
ENDBRANCH   5   6
BRANCH   5  10
HETATM   10  C           1     -35.311  -1.546 -11.453  0.00  0.00     0.196 C 
HETATM   11  O           1     -34.096  -1.371 -11.216  0.00  0.00    -0.646 OA
HETATM   12  O           1     -35.772  -2.705 -11.532  0.00  0.00    -0.646 OA
ENDBRANCH   5  10
ENDBRANCH   1   5
BRANCH   2  13
HETATM   13  C           1     -36.587   0.380 -15.388  0.00  0.00     0.297 C 
BRANCH  13  14
HETATM   14  C           1     -35.923  -0.737 -16.181  0.00  0.00     0.206 C 
BRANCH  14  15
HETATM   15  O           1     -35.195  -1.561 -15.311  0.00  0.00    -0.398 OA
HETATM   16  H           1     -35.694  -2.352 -15.199  0.00  0.00     0.209 HD
ENDBRANCH  14  15
ENDBRANCH  13  14
BRANCH  13  17
HETATM   17  N           1     -36.271   1.701 -16.025  0.00  0.00    -0.064 N 
HETATM   18  H           1     -35.963   2.377 -15.290  0.00  0.00     0.275 HD
HETATM   19  H           1     -35.505   1.576 -16.724  0.00  0.00     0.275 HD
HETATM   20  H           1     -37.124   2.070 -16.503  0.00  0.00     0.275 HD
ENDBRANCH  13  17
ENDBRANCH   2  13
TORSDOF 9
ENDMDL
MODEL 2
REMARK VINA RESULT:      -5.3     12.827     13.692
REMARK  9 active torsions:
REMARK  status: ('A' for Active; 'I' for Inactive)
REMARK    1  A    between atoms: N_1  and  C_8 
REMARK       I    between atoms: N_1  and  C_3 
REMARK    2  A    between atoms: C_2  and  C_13 
REMARK    3  A    between atoms: C_2  and  C_8 
REMARK    4  A    between atoms: C_3  and  C_7 
REMARK    5  A    between atoms: O_4  and  C_11 
REMARK    6  A    between atoms: C_7  and  C_11 
REMARK    7  A    between atoms: C_7  and  N_18 
REMARK    8  A    between atoms: C_8  and  C_20 
REMARK    9  A    between atoms: C_13  and  Se_14 
ROOT
HETATM    1  N           1     -23.122  -3.210 -11.811  0.00  0.00    -0.345 N 
HETATM    2  C           1     -23.603  -3.159 -13.093  0.00  0.00     0.251 C 
HETATM    3  H           1     -22.394  -2.571 -11.518  0.00  0.00     0.163 HD
HETATM    4  O           1     -24.472  -3.922 -13.442  0.00  0.00    -0.271 OA
ENDROOT
BRANCH   1   5
HETATM    5  C           1     -23.656  -4.179 -10.874  0.00  0.00     0.185 C 
BRANCH   5   6
HETATM    6  C           1     -22.515  -4.796 -10.077  0.00  0.00     0.036 C 
BRANCH   6   7
HETATM    7  C           1     -21.263  -3.943 -10.238  0.00  0.00     0.003 C 
BRANCH   7   8
HETATM    8 Se           1     -20.003  -4.360  -8.811  0.00  0.00     0.000 Se
HETATM    9  C           1     -21.190  -3.791  -7.374  0.00  0.00     0.000 C 
ENDBRANCH   7   8
ENDBRANCH   6   7
ENDBRANCH   5   6
BRANCH   5  10
HETATM   10  C           1     -24.615  -3.492  -9.932  0.00  0.00     0.196 C 
HETATM   11  O           1     -24.257  -3.219  -8.765  0.00  0.00    -0.646 OA
HETATM   12  O           1     -25.765  -3.196 -10.319  0.00  0.00    -0.646 OA
ENDBRANCH   5  10
ENDBRANCH   1   5
BRANCH   2  13
HETATM   13  C           1     -23.047  -2.150 -14.068  0.00  0.00     0.297 C 
BRANCH  13  14
HETATM   14  C           1     -24.183  -1.304 -14.626  0.00  0.00     0.206 C 
BRANCH  14  15
HETATM   15  O           1     -23.661  -0.328 -15.487  0.00  0.00    -0.398 OA
HETATM   16  H           1     -24.389   0.186 -15.792  0.00  0.00     0.209 HD
ENDBRANCH  14  15
ENDBRANCH  13  14
BRANCH  13  17
HETATM   17  N           1     -22.361  -2.870 -15.192  0.00  0.00    -0.064 N 
HETATM   18  H           1     -22.960  -2.830 -16.047  0.00  0.00     0.275 HD
HETATM   19  H           1     -21.443  -2.412 -15.389  0.00  0.00     0.275 HD
HETATM   20  H           1     -22.204  -3.867 -14.922  0.00  0.00     0.275 HD
ENDBRANCH  13  17
ENDBRANCH   2  13
TORSDOF 9
ENDMDL
MODEL 3
REMARK VINA RESULT:      -5.1      3.118      5.576
REMARK  9 active torsions:
REMARK  status: ('A' for Active; 'I' for Inactive)
REMARK    1  A    between atoms: N_1  and  C_8 
REMARK       I    between atoms: N_1  and  C_3 
REMARK    2  A    between atoms: C_2  and  C_13 
REMARK    3  A    between atoms: C_2  and  C_8 
REMARK    4  A    between atoms: C_3  and  C_7 
REMARK    5  A    between atoms: O_4  and  C_11 
REMARK    6  A    between atoms: C_7  and  C_11 
REMARK    7  A    between atoms: C_7  and  N_18 
REMARK    8  A    between atoms: C_8  and  C_20 
REMARK    9  A    between atoms: C_13  and  Se_14 
ROOT
HETATM    1  N           1     -35.780  -0.623 -11.079  0.00  0.00    -0.345 N 
HETATM    2  C           1     -37.041  -0.546 -10.552  0.00  0.00     0.251 C 
HETATM    3  H           1     -34.980  -0.363 -10.516  0.00  0.00     0.163 HD
HETATM    4  O           1     -37.996  -0.857 -11.223  0.00  0.00    -0.271 OA
ENDROOT
BRANCH   1   5
HETATM    5  C           1     -35.590  -1.075 -12.443  0.00  0.00     0.185 C 
BRANCH   5   6
HETATM    6  C           1     -35.051   0.071 -13.288  0.00  0.00     0.036 C 
BRANCH   6   7
HETATM    7  C           1     -36.107   0.497 -14.299  0.00  0.00     0.003 C 
BRANCH   7   8
HETATM    8 Se           1     -35.920  -0.565 -15.922  0.00  0.00     0.000 Se
HETATM    9  C           1     -37.836  -0.693 -16.255  0.00  0.00     0.000 C 
ENDBRANCH   7   8
ENDBRANCH   6   7
ENDBRANCH   5   6
BRANCH   5  10
HETATM   10  C           1     -34.605  -2.219 -12.460  0.00  0.00     0.196 C 
HETATM   11  O           1     -33.862  -2.420 -11.475  0.00  0.00    -0.646 OA
HETATM   12  O           1     -34.533  -2.965 -13.460  0.00  0.00    -0.646 OA
ENDBRANCH   5  10
ENDBRANCH   1   5
BRANCH   2  13
HETATM   13  C           1     -37.239  -0.075  -9.132  0.00  0.00     0.297 C 
BRANCH  13  14
HETATM   14  C           1     -37.977   1.256  -9.136  0.00  0.00     0.206 C 
BRANCH  14  15
HETATM   15  O           1     -37.362   2.136  -8.233  0.00  0.00    -0.398 OA
HETATM   16  H           1     -36.463   1.868  -8.158  0.00  0.00     0.209 HD
ENDBRANCH  14  15
ENDBRANCH  13  14
BRANCH  13  17
HETATM   17  N           1     -35.902   0.097  -8.473  0.00  0.00    -0.064 N 
HETATM   18  H           1     -36.035   0.223  -7.444  0.00  0.00     0.275 HD
HETATM   19  H           1     -35.318  -0.752  -8.646  0.00  0.00     0.275 HD
HETATM   20  H           1     -35.425   0.937  -8.869  0.00  0.00     0.275 HD
ENDBRANCH  13  17
ENDBRANCH   2  13
TORSDOF 9
ENDMDL
MODEL 4
REMARK VINA RESULT:      -4.6     13.909     14.841
REMARK  9 active torsions:
REMARK  status: ('A' for Active; 'I' for Inactive)
REMARK    1  A    between atoms: N_1  and  C_8 
REMARK       I    between atoms: N_1  and  C_3 
REMARK    2  A    between atoms: C_2  and  C_13 
REMARK    3  A    between atoms: C_2  and  C_8 
REMARK    4  A    between atoms: C_3  and  C_7 
REMARK    5  A    between atoms: O_4  and  C_11 
REMARK    6  A    between atoms: C_7  and  C_11 
REMARK    7  A    between atoms: C_7  and  N_18 
REMARK    8  A    between atoms: C_8  and  C_20 
REMARK    9  A    between atoms: C_13  and  Se_14 
ROOT
HETATM    1  N           1     -22.570  -4.196 -10.820  0.00  0.00    -0.345 N 
HETATM    2  C           1     -22.819  -3.250 -11.778  0.00  0.00     0.251 C 
HETATM    3  H           1     -23.057  -5.083 -10.846  0.00  0.00     0.163 HD
HETATM    4  O           1     -22.237  -2.193 -11.749  0.00  0.00    -0.271 OA
ENDROOT
BRANCH   1   5
HETATM    5  C           1     -21.607  -3.928  -9.769  0.00  0.00     0.185 C 
BRANCH   5   6
HETATM    6  C           1     -22.090  -4.554  -8.468  0.00  0.00     0.036 C 
BRANCH   6   7
HETATM    7  C           1     -21.684  -3.669  -7.297  0.00  0.00     0.003 C 
BRANCH   7   8
HETATM    8 Se           1     -20.535  -4.676  -6.087  0.00  0.00     0.000 Se
HETATM    9  C           1     -21.903  -5.980  -5.611  0.00  0.00     0.000 C 
ENDBRANCH   7   8
ENDBRANCH   6   7
ENDBRANCH   5   6
BRANCH   5  10
HETATM   10  C           1     -20.272  -4.520 -10.148  0.00  0.00     0.196 C 
HETATM   11  O           1     -19.694  -5.309  -9.369  0.00  0.00    -0.646 OA
HETATM   12  O           1     -19.744  -4.221 -11.240  0.00  0.00    -0.646 OA
ENDBRANCH   5  10
ENDBRANCH   1   5
BRANCH   2  13
HETATM   13  C           1     -23.820  -3.530 -12.872  0.00  0.00     0.297 C 
BRANCH  13  14
HETATM   14  C           1     -23.453  -2.729 -14.114  0.00  0.00     0.206 C 
BRANCH  14  15
HETATM   15  O           1     -24.155  -1.514 -14.113  0.00  0.00    -0.398 OA
HETATM   16  H           1     -23.775  -0.978 -14.787  0.00  0.00     0.209 HD
ENDBRANCH  14  15
ENDBRANCH  13  14
BRANCH  13  17
HETATM   17  N           1     -25.190  -3.131 -12.408  0.00  0.00    -0.064 N 
HETATM   18  H           1     -25.106  -2.480 -11.594  0.00  0.00     0.275 HD
HETATM   19  H           1     -25.695  -2.650 -13.185  0.00  0.00     0.275 HD
HETATM   20  H           1     -25.721  -3.983 -12.119  0.00  0.00     0.275 HD
ENDBRANCH  13  17
ENDBRANCH   2  13
TORSDOF 9
ENDMDL
MODEL 5
REMARK VINA RESULT:      -4.6     15.321     16.454
REMARK  9 active torsions:
REMARK  status: ('A' for Active; 'I' for Inactive)
REMARK    1  A    between atoms: N_1  and  C_8 
REMARK       I    between atoms: N_1  and  C_3 
REMARK    2  A    between atoms: C_2  and  C_13 
REMARK    3  A    between atoms: C_2  and  C_8 
REMARK    4  A    between atoms: C_3  and  C_7 
REMARK    5  A    between atoms: O_4  and  C_11 
REMARK    6  A    between atoms: C_7  and  C_11 
REMARK    7  A    between atoms: C_7  and  N_18 
REMARK    8  A    between atoms: C_8  and  C_20 
REMARK    9  A    between atoms: C_13  and  Se_14 
ROOT
HETATM    1  N           1     -22.174  -5.404  -7.428  0.00  0.00    -0.345 N 
HETATM    2  C           1     -22.491  -4.230  -8.058  0.00  0.00     0.251 C 
HETATM    3  H           1     -22.570  -6.276  -7.754  0.00  0.00     0.163 HD
HETATM    4  O           1     -22.017  -3.189  -7.669  0.00  0.00    -0.271 OA
ENDROOT
BRANCH   1   5
HETATM    5  C           1     -21.269  -5.398  -6.295  0.00  0.00     0.185 C 
BRANCH   5   6
HETATM    6  C           1     -21.735  -6.422  -5.269  0.00  0.00     0.036 C 
BRANCH   6   7
HETATM    7  C           1     -21.253  -6.010  -3.884  0.00  0.00     0.003 C 
BRANCH   7   8
HETATM    8 Se           1     -21.229  -7.567  -2.713  0.00  0.00     0.000 Se
HETATM    9  C           1     -22.280  -6.727  -1.303  0.00  0.00     0.000 C 
ENDBRANCH   7   8
ENDBRANCH   6   7
ENDBRANCH   5   6
BRANCH   5  10
HETATM   10  C           1     -19.877  -5.749  -6.761  0.00  0.00     0.196 C 
HETATM   11  O           1     -19.521  -6.946  -6.819  0.00  0.00    -0.646 OA
HETATM   12  O           1     -19.082  -4.843  -7.087  0.00  0.00    -0.646 OA
ENDBRANCH   5  10
ENDBRANCH   1   5
BRANCH   2  13
HETATM   13  C           1     -23.432  -4.237  -9.237  0.00  0.00     0.297 C 
BRANCH  13  14
HETATM   14  C           1     -22.658  -3.913 -10.507  0.00  0.00     0.206 C 
BRANCH  14  15
HETATM   15  O           1     -21.306  -4.243 -10.329  0.00  0.00    -0.398 OA
HETATM   16  H           1     -20.805  -3.634 -10.843  0.00  0.00     0.209 HD
ENDBRANCH  14  15
ENDBRANCH  13  14
BRANCH  13  17
HETATM   17  N           1     -24.501  -3.205  -9.028  0.00  0.00    -0.064 N 
HETATM   18  H           1     -25.115  -3.496  -8.234  0.00  0.00     0.275 HD
HETATM   19  H           1     -24.058  -2.285  -8.804  0.00  0.00     0.275 HD
HETATM   20  H           1     -25.073  -3.115  -9.897  0.00  0.00     0.275 HD
ENDBRANCH  13  17
ENDBRANCH   2  13
TORSDOF 9
ENDMDL
MODEL 6
REMARK VINA RESULT:      -4.4     16.441     17.621
REMARK  9 active torsions:
REMARK  status: ('A' for Active; 'I' for Inactive)
REMARK    1  A    between atoms: N_1  and  C_8 
REMARK       I    between atoms: N_1  and  C_3 
REMARK    2  A    between atoms: C_2  and  C_13 
REMARK    3  A    between atoms: C_2  and  C_8 
REMARK    4  A    between atoms: C_3  and  C_7 
REMARK    5  A    between atoms: O_4  and  C_11 
REMARK    6  A    between atoms: C_7  and  C_11 
REMARK    7  A    between atoms: C_7  and  N_18 
REMARK    8  A    between atoms: C_8  and  C_20 
REMARK    9  A    between atoms: C_13  and  Se_14 
ROOT
HETATM    1  N           1     -21.499  -5.724  -5.907  0.00  0.00    -0.345 N 
HETATM    2  C           1     -20.712  -4.717  -6.399  0.00  0.00     0.251 C 
HETATM    3  H           1     -22.388  -5.930  -6.344  0.00  0.00     0.163 HD
HETATM    4  O           1     -19.651  -4.471  -5.878  0.00  0.00    -0.271 OA
ENDROOT
BRANCH   1   5
HETATM    5  C           1     -21.059  -6.495  -4.760  0.00  0.00     0.185 C 
BRANCH   5   6
HETATM    6  C           1     -22.222  -6.677  -3.795  0.00  0.00     0.036 C 
BRANCH   6   7
HETATM    7  C           1     -21.782  -6.290  -2.389  0.00  0.00     0.003 C 
BRANCH   7   8
HETATM    8 Se           1     -21.218  -7.885  -1.421  0.00  0.00     0.000 Se
HETATM    9  C           1     -22.573  -7.718  -0.030  0.00  0.00     0.000 C 
ENDBRANCH   7   8
ENDBRANCH   6   7
ENDBRANCH   5   6
BRANCH   5  10
HETATM   10  C           1     -20.570  -7.846  -5.221  0.00  0.00     0.196 C 
HETATM   11  O           1     -19.501  -8.312  -4.770  0.00  0.00    -0.646 OA
HETATM   12  O           1     -21.234  -8.499  -6.054  0.00  0.00    -0.646 OA
ENDBRANCH   5  10
ENDBRANCH   1   5
BRANCH   2  13
HETATM   13  C           1     -21.171  -3.915  -7.592  0.00  0.00     0.297 C 
BRANCH  13  14
HETATM   14  C           1     -22.453  -4.518  -8.148  0.00  0.00     0.206 C 
BRANCH  14  15
HETATM   15  O           1     -23.519  -4.232  -7.283  0.00  0.00    -0.398 OA
HETATM   16  H           1     -24.301  -4.562  -7.692  0.00  0.00     0.209 HD
ENDBRANCH  14  15
ENDBRANCH  13  14
BRANCH  13  17
HETATM   17  N           1     -20.106  -3.943  -8.649  0.00  0.00    -0.064 N 
HETATM   18  H           1     -19.201  -4.248  -8.224  0.00  0.00     0.275 HD
HETATM   19  H           1     -20.380  -4.615  -9.401  0.00  0.00     0.275 HD
HETATM   20  H           1     -19.996  -2.988  -9.057  0.00  0.00     0.275 HD
ENDBRANCH  13  17
ENDBRANCH   2  13
TORSDOF 9
ENDMDL
MODEL 7
REMARK VINA RESULT:      -4.3     26.020     27.225
REMARK  9 active torsions:
REMARK  status: ('A' for Active; 'I' for Inactive)
REMARK    1  A    between atoms: N_1  and  C_8 
REMARK       I    between atoms: N_1  and  C_3 
REMARK    2  A    between atoms: C_2  and  C_13 
REMARK    3  A    between atoms: C_2  and  C_8 
REMARK    4  A    between atoms: C_3  and  C_7 
REMARK    5  A    between atoms: O_4  and  C_11 
REMARK    6  A    between atoms: C_7  and  C_11 
REMARK    7  A    between atoms: C_7  and  N_18 
REMARK    8  A    between atoms: C_8  and  C_20 
REMARK    9  A    between atoms: C_13  and  Se_14 
ROOT
HETATM    1  N           1     -11.430   7.140 -20.969  0.00  0.00    -0.345 N 
HETATM    2  C           1     -12.333   7.982 -20.378  0.00  0.00     0.251 C 
HETATM    3  H           1     -10.950   7.425 -21.813  0.00  0.00     0.163 HD
HETATM    4  O           1     -12.905   7.643 -19.369  0.00  0.00    -0.271 OA
ENDROOT
BRANCH   1   5
HETATM    5  C           1     -11.159   5.841 -20.384  0.00  0.00     0.185 C 
BRANCH   5   6
HETATM    6  C           1     -11.033   4.803 -21.491  0.00  0.00     0.036 C 
BRANCH   6   7
HETATM    7  C           1     -12.097   5.059 -22.551  0.00  0.00     0.003 C 
BRANCH   7   8
HETATM    8 Se           1     -13.830   4.459 -21.893  0.00  0.00     0.000 Se
HETATM    9  C           1     -13.198   2.696 -21.354  0.00  0.00     0.000 C 
ENDBRANCH   7   8
ENDBRANCH   6   7
ENDBRANCH   5   6
BRANCH   5  10
HETATM   10  C           1      -9.871   5.901 -19.601  0.00  0.00     0.196 C 
HETATM   11  O           1      -8.794   6.153 -20.185  0.00  0.00    -0.646 OA
HETATM   12  O           1      -9.880   5.697 -18.368  0.00  0.00    -0.646 OA
ENDBRANCH   5  10
ENDBRANCH   1   5
BRANCH   2  13
HETATM   13  C           1     -12.615   9.335 -20.986  0.00  0.00     0.297 C 
BRANCH  13  14
HETATM   14  C           1     -11.379   9.826 -21.727  0.00  0.00     0.206 C 
BRANCH  14  15
HETATM   15  O           1     -10.288   9.862 -20.846  0.00  0.00    -0.398 OA
HETATM   16  H           1     -10.465  10.542 -20.218  0.00  0.00     0.209 HD
ENDBRANCH  14  15
ENDBRANCH  13  14
BRANCH  13  17
HETATM   17  N           1     -12.964  10.307 -19.898  0.00  0.00    -0.064 N 
HETATM   18  H           1     -12.268  10.227 -19.122  0.00  0.00     0.275 HD
HETATM   19  H           1     -12.947  11.279 -20.281  0.00  0.00     0.275 HD
HETATM   20  H           1     -13.919  10.091 -19.532  0.00  0.00     0.275 HD
ENDBRANCH  13  17
ENDBRANCH   2  13
TORSDOF 9
ENDMDL
MODEL 8
REMARK VINA RESULT:      -4.3     15.546     17.408
REMARK  9 active torsions:
REMARK  status: ('A' for Active; 'I' for Inactive)
REMARK    1  A    between atoms: N_1  and  C_8 
REMARK       I    between atoms: N_1  and  C_3 
REMARK    2  A    between atoms: C_2  and  C_13 
REMARK    3  A    between atoms: C_2  and  C_8 
REMARK    4  A    between atoms: C_3  and  C_7 
REMARK    5  A    between atoms: O_4  and  C_11 
REMARK    6  A    between atoms: C_7  and  C_11 
REMARK    7  A    between atoms: C_7  and  N_18 
REMARK    8  A    between atoms: C_8  and  C_20 
REMARK    9  A    between atoms: C_13  and  Se_14 
ROOT
HETATM    1  N           1     -21.665  -5.643  -5.776  0.00  0.00    -0.345 N 
HETATM    2  C           1     -21.540  -6.944  -5.368  0.00  0.00     0.251 C 
HETATM    3  H           1     -21.870  -4.918  -5.100  0.00  0.00     0.163 HD
HETATM    4  O           1     -21.295  -7.810  -6.174  0.00  0.00    -0.271 OA
ENDROOT
BRANCH   1   5
HETATM    5  C           1     -21.504  -5.304  -7.177  0.00  0.00     0.185 C 
BRANCH   5   6
HETATM    6  C           1     -22.611  -4.347  -7.597  0.00  0.00     0.036 C 
BRANCH   6   7
HETATM    7  C           1     -22.955  -4.580  -9.063  0.00  0.00     0.003 C 
BRANCH   7   8
HETATM    8 Se           1     -24.496  -3.492  -9.551  0.00  0.00     0.000 Se
HETATM    9  C           1     -23.900  -3.175 -11.379  0.00  0.00     0.000 C 
ENDBRANCH   7   8
ENDBRANCH   6   7
ENDBRANCH   5   6
BRANCH   5  10
HETATM   10  C           1     -20.162  -4.644  -7.383  0.00  0.00     0.196 C 
HETATM   11  O           1     -19.113  -5.251  -7.076  0.00  0.00    -0.646 OA
HETATM   12  O           1     -20.101  -3.491  -7.858  0.00  0.00    -0.646 OA
ENDBRANCH   5  10
ENDBRANCH   1   5
BRANCH   2  13
HETATM   13  C           1     -21.708  -7.297  -3.910  0.00  0.00     0.297 C 
BRANCH  13  14
HETATM   14  C           1     -21.486  -6.056  -3.058  0.00  0.00     0.206 C 
BRANCH  14  15
HETATM   15  O           1     -22.600  -5.850  -2.230  0.00  0.00    -0.398 OA
HETATM   16  H           1     -23.082  -5.127  -2.593  0.00  0.00     0.209 HD
ENDBRANCH  14  15
ENDBRANCH  13  14
BRANCH  13  17
HETATM   17  N           1     -20.704  -8.347  -3.533  0.00  0.00    -0.064 N 
HETATM   18  H           1     -19.817  -7.887  -3.227  0.00  0.00     0.275 HD
HETATM   19  H           1     -21.083  -8.926  -2.751  0.00  0.00     0.275 HD
HETATM   20  H           1     -20.513  -8.958  -4.359  0.00  0.00     0.275 HD
ENDBRANCH  13  17
ENDBRANCH   2  13
TORSDOF 9
ENDMDL
MODEL 9
REMARK VINA RESULT:      -4.3     18.983     20.844
REMARK  9 active torsions:
REMARK  status: ('A' for Active; 'I' for Inactive)
REMARK    1  A    between atoms: N_1  and  C_8 
REMARK       I    between atoms: N_1  and  C_3 
REMARK    2  A    between atoms: C_2  and  C_13 
REMARK    3  A    between atoms: C_2  and  C_8 
REMARK    4  A    between atoms: C_3  and  C_7 
REMARK    5  A    between atoms: O_4  and  C_11 
REMARK    6  A    between atoms: C_7  and  C_11 
REMARK    7  A    between atoms: C_7  and  N_18 
REMARK    8  A    between atoms: C_8  and  C_20 
REMARK    9  A    between atoms: C_13  and  Se_14 
ROOT
HETATM    1  N           1     -21.763  -9.495  -1.047  0.00  0.00    -0.345 N 
HETATM    2  C           1     -21.641 -10.372  -0.002  0.00  0.00     0.251 C 
HETATM    3  H           1     -22.210  -9.790  -1.905  0.00  0.00     0.163 HD
HETATM    4  O           1     -21.109 -10.020   1.023  0.00  0.00    -0.271 OA
ENDROOT
BRANCH   1   5
HETATM    5  C           1     -21.252  -8.143  -0.922  0.00  0.00     0.185 C 
BRANCH   5   6
HETATM    6  C           1     -20.473  -7.778  -2.179  0.00  0.00     0.036 C 
BRANCH   6   7
HETATM    7  C           1     -20.889  -8.698  -3.319  0.00  0.00     0.003 C 
BRANCH   7   8
HETATM    8 Se           1     -20.571  -7.807  -5.023  0.00  0.00     0.000 Se
HETATM    9  C           1     -22.166  -6.691  -4.923  0.00  0.00     0.000 C 
ENDBRANCH   7   8
ENDBRANCH   6   7
ENDBRANCH   5   6
BRANCH   5  10
HETATM   10  C           1     -22.404  -7.185  -0.747  0.00  0.00     0.196 C 
HETATM   11  O           1     -23.317  -7.446   0.067  0.00  0.00    -0.646 OA
HETATM   12  O           1     -22.446  -6.130  -1.415  0.00  0.00    -0.646 OA
ENDBRANCH   5  10
ENDBRANCH   1   5
BRANCH   2  13
HETATM   13  C           1     -22.173 -11.778  -0.132  0.00  0.00     0.297 C 
BRANCH  13  14
HETATM   14  C           1     -23.687 -11.766   0.032  0.00  0.00     0.206 C 
BRANCH  14  15
HETATM   15  O           1     -24.141 -10.441   0.100  0.00  0.00    -0.398 OA
HETATM   16  H           1     -23.740  -9.976  -0.615  0.00  0.00     0.209 HD
ENDBRANCH  14  15
ENDBRANCH  13  14
BRANCH  13  17
HETATM   17  N           1     -21.563 -12.642   0.933  0.00  0.00    -0.064 N 
HETATM   18  H           1     -22.012 -12.430   1.853  0.00  0.00     0.275 HD
HETATM   19  H           1     -21.716 -13.647   0.695  0.00  0.00     0.275 HD
HETATM   20  H           1     -20.538 -12.448   0.993  0.00  0.00     0.275 HD
ENDBRANCH  13  17
ENDBRANCH   2  13
TORSDOF 9
ENDMDL
