MODEL 1
REMARK VINA RESULT:      -8.5      0.000      0.000
REMARK  7 active torsions:
REMARK  status: ('A' for Active; 'I' for Inactive)
REMARK       I    between atoms: C_6  and  N_11 
REMARK    1  A    between atoms: C_6  and  C_7 
REMARK    2  A    between atoms: C_7  and  C_20 
REMARK    3  A    between atoms: C_7  and  N_24 
REMARK    4  A    between atoms: N_11  and  C_21 
REMARK    5  A    between atoms: C_14  and  C_21 
REMARK    6  A    between atoms: C_15  and  C_21 
REMARK    7  A    between atoms: C_18  and  C_20 
ROOT
HETATM    1  C           1     -21.032  -5.414  -6.549  0.00  0.00     0.278 C 
ENDROOT
BRANCH   1   2
HETATM    2  C           1     -21.556  -4.379  -7.515  0.00  0.00     0.249 C 
HETATM    3  O           1     -21.531  -3.209  -7.218  0.00  0.00    -0.271 OA
HETATM    4  N           1     -22.059  -4.767  -8.727  0.00  0.00    -0.344 N 
HETATM    5  H           1     -22.081  -5.748  -8.976  0.00  0.00     0.163 HD
BRANCH   4   6
HETATM    6  C           1     -22.562  -3.773  -9.655  0.00  0.00     0.189 C 
BRANCH   6   7
HETATM    7  C           1     -21.982  -4.032 -11.040  0.00  0.00     0.010 C 
HETATM    8  C           1     -20.465  -4.135 -10.944  0.00  0.00     0.012 C 
HETATM    9  C           1     -22.354  -2.884 -11.968  0.00  0.00     0.012 C 
ENDBRANCH   6   7
BRANCH   6  10
HETATM   10  C           1     -24.066  -3.859  -9.717  0.00  0.00     0.197 C 
HETATM   11  O           1     -24.763  -2.870  -9.403  0.00  0.00    -0.646 OA
HETATM   12  O           1     -24.617  -4.920 -10.083  0.00  0.00    -0.646 OA
ENDBRANCH   6  10
ENDBRANCH   4   6
ENDBRANCH   1   2
BRANCH   1  13
HETATM   13  C           1     -22.171  -5.908  -5.665  0.00  0.00     0.083 C 
BRANCH  13  14
HETATM   14  C           1     -21.686  -7.034  -4.808  0.00  0.00    -0.028 A 
HETATM   15  C           1     -21.755  -7.098  -3.389  0.00  0.00    -0.002 A 
HETATM   16  C           1     -21.193  -8.315  -3.004  0.00  0.00     0.042 A 
HETATM   17  C           1     -22.244  -6.231  -2.392  0.00  0.00     0.014 A 
HETATM   18  N           1     -20.799  -8.960  -4.155  0.00  0.00    -0.365 N 
HETATM   19  C           1     -21.094  -8.712  -1.665  0.00  0.00     0.030 A 
HETATM   20  C           1     -21.093  -8.195  -5.252  0.00  0.00     0.096 A 
HETATM   21  H           1     -20.340  -9.904  -4.187  0.00  0.00     0.165 HD
HETATM   22  C           1     -21.587  -7.835  -0.693  0.00  0.00     0.002 A 
HETATM   23  C           1     -22.154  -6.613  -1.048  0.00  0.00     0.001 A 
ENDBRANCH  13  14
ENDBRANCH   1  13
BRANCH   1  24
HETATM   24  N           1     -19.965  -4.802  -5.692  0.00  0.00    -0.066 N 
HETATM   25  H           1     -19.321  -5.550  -5.348  0.00  0.00     0.275 HD
HETATM   26  H           1     -20.407  -4.320  -4.877  0.00  0.00     0.275 HD
HETATM   27  H           1     -19.422  -4.107  -6.253  0.00  0.00     0.275 HD
ENDBRANCH   1  24
TORSDOF 7
ENDMDL
MODEL 2
REMARK VINA RESULT:      -7.9      2.388      8.039
REMARK  7 active torsions:
REMARK  status: ('A' for Active; 'I' for Inactive)
REMARK       I    between atoms: C_6  and  N_11 
REMARK    1  A    between atoms: C_6  and  C_7 
REMARK    2  A    between atoms: C_7  and  C_20 
REMARK    3  A    between atoms: C_7  and  N_24 
REMARK    4  A    between atoms: N_11  and  C_21 
REMARK    5  A    between atoms: C_14  and  C_21 
REMARK    6  A    between atoms: C_15  and  C_21 
REMARK    7  A    between atoms: C_18  and  C_20 
ROOT
HETATM    1  C           1     -21.952  -4.409  -7.053  0.00  0.00     0.278 C 
ENDROOT
BRANCH   1   2
HETATM    2  C           1     -21.049  -5.237  -6.172  0.00  0.00     0.249 C 
HETATM    3  O           1     -19.882  -4.948  -6.062  0.00  0.00    -0.271 OA
HETATM    4  N           1     -21.553  -6.316  -5.497  0.00  0.00    -0.344 N 
HETATM    5  H           1     -22.532  -6.559  -5.589  0.00  0.00     0.163 HD
BRANCH   4   6
HETATM    6  C           1     -20.687  -7.112  -4.650  0.00  0.00     0.189 C 
BRANCH   6   7
HETATM    7  C           1     -21.421  -7.467  -3.363  0.00  0.00     0.010 C 
HETATM    8  C           1     -21.895  -6.191  -2.679  0.00  0.00     0.012 C 
HETATM    9  C           1     -20.480  -8.221  -2.434  0.00  0.00     0.012 C 
ENDBRANCH   6   7
BRANCH   6  10
HETATM   10  C           1     -20.301  -8.377  -5.373  0.00  0.00     0.197 C 
HETATM   11  O           1     -21.178  -9.208  -5.694  0.00  0.00    -0.646 OA
HETATM   12  O           1     -19.102  -8.597  -5.652  0.00  0.00    -0.646 OA
ENDBRANCH   6  10
ENDBRANCH   4   6
ENDBRANCH   1   2
BRANCH   1  13
HETATM   13  C           1     -21.844  -4.897  -8.493  0.00  0.00     0.083 C 
BRANCH  13  14
HETATM   14  C           1     -22.995  -4.365  -9.287  0.00  0.00    -0.028 A 
HETATM   15  C           1     -22.945  -3.910 -10.634  0.00  0.00    -0.002 A 
HETATM   16  C           1     -24.234  -3.503 -10.979  0.00  0.00     0.042 A 
HETATM   17  C           1     -21.920  -3.804 -11.595  0.00  0.00     0.014 A 
HETATM   18  N           1     -25.031  -3.708  -9.876  0.00  0.00    -0.365 N 
HETATM   19  C           1     -24.552  -2.993 -12.244  0.00  0.00     0.030 A 
HETATM   20  C           1     -24.292  -4.229  -8.847  0.00  0.00     0.096 A 
HETATM   21  H           1     -26.058  -3.495  -9.829  0.00  0.00     0.165 HD
HETATM   22  C           1     -23.519  -2.898 -13.181  0.00  0.00     0.002 A 
HETATM   23  C           1     -22.222  -3.297 -12.864  0.00  0.00     0.001 A 
ENDBRANCH  13  14
ENDBRANCH   1  13
BRANCH   1  24
HETATM   24  N           1     -21.536  -2.970  -6.982  0.00  0.00    -0.066 N 
HETATM   25  H           1     -21.422  -2.689  -5.982  0.00  0.00     0.275 HD
HETATM   26  H           1     -22.267  -2.374  -7.431  0.00  0.00     0.275 HD
HETATM   27  H           1     -20.629  -2.844  -7.485  0.00  0.00     0.275 HD
ENDBRANCH   1  24
TORSDOF 7
ENDMDL
MODEL 3
REMARK VINA RESULT:      -7.9      2.485      7.795
REMARK  7 active torsions:
REMARK  status: ('A' for Active; 'I' for Inactive)
REMARK       I    between atoms: C_6  and  N_11 
REMARK    1  A    between atoms: C_6  and  C_7 
REMARK    2  A    between atoms: C_7  and  C_20 
REMARK    3  A    between atoms: C_7  and  N_24 
REMARK    4  A    between atoms: N_11  and  C_21 
REMARK    5  A    between atoms: C_14  and  C_21 
REMARK    6  A    between atoms: C_15  and  C_21 
REMARK    7  A    between atoms: C_18  and  C_20 
ROOT
HETATM    1  C           1     -21.152  -4.853  -6.325  0.00  0.00     0.278 C 
ENDROOT
BRANCH   1   2
HETATM    2  C           1     -21.764  -5.857  -5.378  0.00  0.00     0.249 C 
HETATM    3  O           1     -22.963  -5.993  -5.335  0.00  0.00    -0.271 OA
HETATM    4  N           1     -20.960  -6.613  -4.569  0.00  0.00    -0.344 N 
HETATM    5  H           1     -19.955  -6.499  -4.605  0.00  0.00     0.163 HD
BRANCH   4   6
HETATM    6  C           1     -21.547  -7.577  -3.660  0.00  0.00     0.189 C 
BRANCH   6   7
HETATM    7  C           1     -20.706  -8.848  -3.654  0.00  0.00     0.010 C 
HETATM    8  C           1     -19.501  -8.664  -4.568  0.00  0.00     0.012 C 
HETATM    9  C           1     -21.548 -10.014  -4.153  0.00  0.00     0.012 C 
ENDBRANCH   6   7
BRANCH   6  10
HETATM   10  C           1     -21.588  -6.996  -2.268  0.00  0.00     0.197 C 
HETATM   11  O           1     -22.294  -5.993  -2.029  0.00  0.00    -0.646 OA
HETATM   12  O           1     -20.914  -7.518  -1.353  0.00  0.00    -0.646 OA
ENDBRANCH   6  10
ENDBRANCH   4   6
ENDBRANCH   1   2
BRANCH   1  13
HETATM   13  C           1     -21.242  -5.381  -7.752  0.00  0.00     0.083 C 
BRANCH  13  14
HETATM   14  C           1     -22.292  -4.621  -8.500  0.00  0.00    -0.028 A 
HETATM   15  C           1     -22.213  -4.192  -9.854  0.00  0.00    -0.002 A 
HETATM   16  C           1     -23.403  -3.524 -10.143  0.00  0.00     0.042 A 
HETATM   17  C           1     -21.238  -4.310 -10.863  0.00  0.00     0.014 A 
HETATM   18  N           1     -24.170  -3.550  -9.001  0.00  0.00    -0.365 N 
HETATM   19  C           1     -23.668  -2.964 -11.399  0.00  0.00     0.030 A 
HETATM   20  C           1     -23.508  -4.212  -8.001  0.00  0.00     0.096 A 
HETATM   21  H           1     -25.126  -3.126  -8.909  0.00  0.00     0.165 HD
HETATM   22  C           1     -22.685  -3.094 -12.386  0.00  0.00     0.002 A 
HETATM   23  C           1     -21.488  -3.756 -12.124  0.00  0.00     0.001 A 
ENDBRANCH  13  14
ENDBRANCH   1  13
BRANCH   1  24
HETATM   24  N           1     -19.713  -4.638  -5.962  0.00  0.00    -0.066 N 
HETATM   25  H           1     -19.166  -4.414  -6.824  0.00  0.00     0.275 HD
HETATM   26  H           1     -19.332  -5.505  -5.521  0.00  0.00     0.275 HD
HETATM   27  H           1     -19.639  -3.843  -5.287  0.00  0.00     0.275 HD
ENDBRANCH   1  24
TORSDOF 7
ENDMDL
MODEL 4
REMARK VINA RESULT:      -7.6      3.178      7.836
REMARK  7 active torsions:
REMARK  status: ('A' for Active; 'I' for Inactive)
REMARK       I    between atoms: C_6  and  N_11 
REMARK    1  A    between atoms: C_6  and  C_7 
REMARK    2  A    between atoms: C_7  and  C_20 
REMARK    3  A    between atoms: C_7  and  N_24 
REMARK    4  A    between atoms: N_11  and  C_21 
REMARK    5  A    between atoms: C_14  and  C_21 
REMARK    6  A    between atoms: C_15  and  C_21 
REMARK    7  A    between atoms: C_18  and  C_20 
ROOT
HETATM    1  C           1     -21.479  -6.336  -5.577  0.00  0.00     0.278 C 
ENDROOT
BRANCH   1   2
HETATM    2  C           1     -20.433  -7.423  -5.564  0.00  0.00     0.249 C 
HETATM    3  O           1     -19.533  -7.405  -6.370  0.00  0.00    -0.271 OA
HETATM    4  N           1     -20.503  -8.430  -4.639  0.00  0.00    -0.344 N 
HETATM    5  H           1     -21.257  -8.445  -3.963  0.00  0.00     0.163 HD
BRANCH   4   6
HETATM    6  C           1     -19.498  -9.474  -4.626  0.00  0.00     0.189 C 
BRANCH   6   7
HETATM    7  C           1     -19.018  -9.700  -3.198  0.00  0.00     0.010 C 
HETATM    8  C           1     -19.747  -8.746  -2.260  0.00  0.00     0.012 C 
HETATM    9  C           1     -17.519  -9.440  -3.120  0.00  0.00     0.012 C 
ENDBRANCH   6   7
BRANCH   6  10
HETATM   10  C           1     -20.094 -10.752  -5.162  0.00  0.00     0.197 C 
HETATM   11  O           1     -20.346 -10.861  -6.382  0.00  0.00    -0.646 OA
HETATM   12  O           1     -20.336 -11.702  -4.387  0.00  0.00    -0.646 OA
ENDBRANCH   6  10
ENDBRANCH   4   6
ENDBRANCH   1   2
BRANCH   1  13
HETATM   13  C           1     -20.922  -5.102  -6.277  0.00  0.00     0.083 C 
BRANCH  13  14
HETATM   14  C           1     -21.884  -4.649  -7.330  0.00  0.00    -0.028 A 
HETATM   15  C           1     -21.566  -4.354  -8.685  0.00  0.00    -0.002 A 
HETATM   16  C           1     -22.752  -3.971  -9.311  0.00  0.00     0.042 A 
HETATM   17  C           1     -20.377  -4.377  -9.439  0.00  0.00     0.014 A 
HETATM   18  N           1     -23.748  -4.034  -8.363  0.00  0.00    -0.365 N 
HETATM   19  C           1     -22.809  -3.607 -10.662  0.00  0.00     0.030 A 
HETATM   20  C           1     -23.234  -4.443  -7.162  0.00  0.00     0.096 A 
HETATM   21  H           1     -24.757  -3.802  -8.537  0.00  0.00     0.165 HD
HETATM   22  C           1     -21.616  -3.638 -11.391  0.00  0.00     0.002 A 
HETATM   23  C           1     -20.417  -4.016 -10.791  0.00  0.00     0.001 A 
ENDBRANCH  13  14
ENDBRANCH   1  13
BRANCH   1  24
HETATM   24  N           1     -21.851  -5.984  -4.167  0.00  0.00    -0.066 N 
HETATM   25  H           1     -21.461  -6.700  -3.514  0.00  0.00     0.275 HD
HETATM   26  H           1     -22.891  -5.959  -4.078  0.00  0.00     0.275 HD
HETATM   27  H           1     -21.460  -5.045  -3.927  0.00  0.00     0.275 HD
ENDBRANCH   1  24
TORSDOF 7
ENDMDL
MODEL 5
REMARK VINA RESULT:      -7.2      2.553      7.576
REMARK  7 active torsions:
REMARK  status: ('A' for Active; 'I' for Inactive)
REMARK       I    between atoms: C_6  and  N_11 
REMARK    1  A    between atoms: C_6  and  C_7 
REMARK    2  A    between atoms: C_7  and  C_20 
REMARK    3  A    between atoms: C_7  and  N_24 
REMARK    4  A    between atoms: N_11  and  C_21 
REMARK    5  A    between atoms: C_14  and  C_21 
REMARK    6  A    between atoms: C_15  and  C_21 
REMARK    7  A    between atoms: C_18  and  C_20 
ROOT
HETATM    1  C           1     -20.485  -5.678  -5.894  0.00  0.00     0.278 C 
ENDROOT
BRANCH   1   2
HETATM    2  C           1     -21.461  -6.293  -4.922  0.00  0.00     0.249 C 
HETATM    3  O           1     -22.650  -6.191  -5.114  0.00  0.00    -0.271 OA
HETATM    4  N           1     -21.001  -6.965  -3.822  0.00  0.00    -0.344 N 
HETATM    5  H           1     -20.005  -7.050  -3.660  0.00  0.00     0.163 HD
BRANCH   4   6
HETATM    6  C           1     -21.939  -7.556  -2.888  0.00  0.00     0.189 C 
BRANCH   6   7
HETATM    7  C           1     -21.388  -8.885  -2.387  0.00  0.00     0.010 C 
HETATM    8  C           1     -19.866  -8.830  -2.370  0.00  0.00     0.012 C 
HETATM    9  C           1     -21.844 -10.004  -3.314  0.00  0.00     0.012 C 
ENDBRANCH   6   7
BRANCH   6  10
HETATM   10  C           1     -22.139  -6.624  -1.719  0.00  0.00     0.197 C 
HETATM   11  O           1     -21.993  -5.391  -1.870  0.00  0.00    -0.646 OA
HETATM   12  O           1     -22.451  -7.084  -0.599  0.00  0.00    -0.646 OA
ENDBRANCH   6  10
ENDBRANCH   4   6
ENDBRANCH   1   2
BRANCH   1  13
HETATM   13  C           1     -20.977  -4.295  -6.304  0.00  0.00     0.083 C 
BRANCH  13  14
HETATM   14  C           1     -20.936  -4.173  -7.795  0.00  0.00    -0.028 A 
HETATM   15  C           1     -22.061  -4.142  -8.664  0.00  0.00    -0.002 A 
HETATM   16  C           1     -21.572  -4.019  -9.965  0.00  0.00     0.042 A 
HETATM   17  C           1     -23.454  -4.208  -8.467  0.00  0.00     0.014 A 
HETATM   18  N           1     -20.199  -3.976  -9.879  0.00  0.00    -0.365 N 
HETATM   19  C           1     -22.410  -3.957 -11.085  0.00  0.00     0.030 A 
HETATM   20  C           1     -19.803  -4.069  -8.571  0.00  0.00     0.096 A 
HETATM   21  H           1     -19.548  -3.886 -10.697  0.00  0.00     0.165 HD
HETATM   22  C           1     -23.790  -4.024 -10.864  0.00  0.00     0.002 A 
HETATM   23  C           1     -24.306  -4.148  -9.576  0.00  0.00     0.001 A 
ENDBRANCH  13  14
ENDBRANCH   1  13
BRANCH   1  24
HETATM   24  N           1     -20.376  -6.549  -7.110  0.00  0.00    -0.066 N 
HETATM   25  H           1     -21.181  -7.215  -7.136  0.00  0.00     0.275 HD
HETATM   26  H           1     -19.480  -7.085  -7.075  0.00  0.00     0.275 HD
HETATM   27  H           1     -20.390  -5.953  -7.969  0.00  0.00     0.275 HD
ENDBRANCH   1  24
TORSDOF 7
ENDMDL
MODEL 6
REMARK VINA RESULT:      -7.0      3.610      7.942
REMARK  7 active torsions:
REMARK  status: ('A' for Active; 'I' for Inactive)
REMARK       I    between atoms: C_6  and  N_11 
REMARK    1  A    between atoms: C_6  and  C_7 
REMARK    2  A    between atoms: C_7  and  C_20 
REMARK    3  A    between atoms: C_7  and  N_24 
REMARK    4  A    between atoms: N_11  and  C_21 
REMARK    5  A    between atoms: C_14  and  C_21 
REMARK    6  A    between atoms: C_15  and  C_21 
REMARK    7  A    between atoms: C_18  and  C_20 
ROOT
HETATM    1  C           1     -20.336  -7.596  -5.078  0.00  0.00     0.278 C 
ENDROOT
BRANCH   1   2
HETATM    2  C           1     -20.321  -8.222  -3.705  0.00  0.00     0.249 C 
HETATM    3  O           1     -19.292  -8.665  -3.254  0.00  0.00    -0.271 OA
HETATM    4  N           1     -21.474  -8.287  -2.969  0.00  0.00    -0.344 N 
HETATM    5  H           1     -22.337  -7.916  -3.347  0.00  0.00     0.163 HD
BRANCH   4   6
HETATM    6  C           1     -21.460  -8.888  -1.650  0.00  0.00     0.189 C 
BRANCH   6   7
HETATM    7  C           1     -22.315  -8.056  -0.704  0.00  0.00     0.010 C 
HETATM    8  C           1     -22.310  -6.602  -1.159  0.00  0.00     0.012 C 
HETATM    9  C           1     -21.748  -8.147   0.706  0.00  0.00     0.012 C 
ENDBRANCH   6   7
BRANCH   6  10
HETATM   10  C           1     -22.016 -10.288  -1.729  0.00  0.00     0.197 C 
HETATM   11  O           1     -23.206 -10.507  -1.416  0.00  0.00    -0.646 OA
HETATM   12  O           1     -21.286 -11.230  -2.108  0.00  0.00    -0.646 OA
ENDBRANCH   6  10
ENDBRANCH   4   6
ENDBRANCH   1   2
BRANCH   1  13
HETATM   13  C           1     -20.803  -6.150  -4.972  0.00  0.00     0.083 C 
BRANCH  13  14
HETATM   14  C           1     -20.511  -5.436  -6.255  0.00  0.00    -0.028 A 
HETATM   15  C           1     -21.474  -4.885  -7.145  0.00  0.00    -0.002 A 
HETATM   16  C           1     -20.772  -4.316  -8.208  0.00  0.00     0.042 A 
HETATM   17  C           1     -22.881  -4.817  -7.147  0.00  0.00     0.014 A 
HETATM   18  N           1     -19.433  -4.519  -7.964  0.00  0.00    -0.365 N 
HETATM   19  C           1     -21.410  -3.678  -9.279  0.00  0.00     0.030 A 
HETATM   20  C           1     -19.263  -5.196  -6.785  0.00  0.00     0.096 A 
HETATM   21  H           1     -18.653  -4.201  -8.590  0.00  0.00     0.165 HD
HETATM   22  C           1     -22.807  -3.622  -9.259  0.00  0.00     0.002 A 
HETATM   23  C           1     -23.534  -4.182  -8.210  0.00  0.00     0.001 A 
ENDBRANCH  13  14
ENDBRANCH   1  13
BRANCH   1  24
HETATM   24  N           1     -21.275  -8.360  -5.964  0.00  0.00    -0.066 N 
HETATM   25  H           1     -20.844  -9.276  -6.221  0.00  0.00     0.275 HD
HETATM   26  H           1     -21.462  -7.807  -6.830  0.00  0.00     0.275 HD
HETATM   27  H           1     -22.174  -8.527  -5.458  0.00  0.00     0.275 HD
ENDBRANCH   1  24
TORSDOF 7
ENDMDL
MODEL 7
REMARK VINA RESULT:      -7.0      4.269      7.938
REMARK  7 active torsions:
REMARK  status: ('A' for Active; 'I' for Inactive)
REMARK       I    between atoms: C_6  and  N_11 
REMARK    1  A    between atoms: C_6  and  C_7 
REMARK    2  A    between atoms: C_7  and  C_20 
REMARK    3  A    between atoms: C_7  and  N_24 
REMARK    4  A    between atoms: N_11  and  C_21 
REMARK    5  A    between atoms: C_14  and  C_21 
REMARK    6  A    between atoms: C_15  and  C_21 
REMARK    7  A    between atoms: C_18  and  C_20 
ROOT
HETATM    1  C           1     -19.668  -8.382  -4.429  0.00  0.00     0.278 C 
ENDROOT
BRANCH   1   2
HETATM    2  C           1     -19.967  -8.825  -3.017  0.00  0.00     0.249 C 
HETATM    3  O           1     -19.077  -9.242  -2.314  0.00  0.00    -0.271 OA
HETATM    4  N           1     -21.245  -8.755  -2.533  0.00  0.00    -0.344 N 
HETATM    5  H           1     -21.991  -8.406  -3.122  0.00  0.00     0.163 HD
BRANCH   4   6
HETATM    6  C           1     -21.532  -9.180  -1.178  0.00  0.00     0.189 C 
BRANCH   6   7
HETATM    7  C           1     -22.415  -8.142  -0.496  0.00  0.00     0.010 C 
HETATM    8  C           1     -22.260  -6.801  -1.201  0.00  0.00     0.012 C 
HETATM    9  C           1     -21.998  -8.000   0.961  0.00  0.00     0.012 C 
ENDBRANCH   6   7
BRANCH   6  10
HETATM   10  C           1     -22.249 -10.507  -1.208  0.00  0.00     0.197 C 
HETATM   11  O           1     -21.606 -11.561  -1.406  0.00  0.00    -0.646 OA
HETATM   12  O           1     -23.486 -10.553  -1.035  0.00  0.00    -0.646 OA
ENDBRANCH   6  10
ENDBRANCH   4   6
ENDBRANCH   1   2
BRANCH   1  13
HETATM   13  C           1     -20.917  -8.542  -5.286  0.00  0.00     0.083 C 
BRANCH  13  14
HETATM   14  C           1     -21.493  -7.193  -5.585  0.00  0.00    -0.028 A 
HETATM   15  C           1     -20.892  -6.184  -6.388  0.00  0.00    -0.002 A 
HETATM   16  C           1     -21.763  -5.095  -6.400  0.00  0.00     0.042 A 
HETATM   17  C           1     -19.684  -6.094  -7.106  0.00  0.00     0.014 A 
HETATM   18  N           1     -22.852  -5.439  -5.631  0.00  0.00    -0.365 N 
HETATM   19  C           1     -21.487  -3.914  -7.100  0.00  0.00     0.030 A 
HETATM   20  C           1     -22.699  -6.706  -5.133  0.00  0.00     0.096 A 
HETATM   21  H           1     -23.680  -4.820  -5.452  0.00  0.00     0.165 HD
HETATM   22  C           1     -20.282  -3.848  -7.806  0.00  0.00     0.002 A 
HETATM   23  C           1     -19.392  -4.920  -7.811  0.00  0.00     0.001 A 
ENDBRANCH  13  14
ENDBRANCH   1  13
BRANCH   1  24
HETATM   24  N           1     -18.564  -9.225  -4.993  0.00  0.00    -0.066 N 
HETATM   25  H           1     -18.057  -9.703  -4.215  0.00  0.00     0.275 HD
HETATM   26  H           1     -17.899  -8.617  -5.523  0.00  0.00     0.275 HD
HETATM   27  H           1     -18.967  -9.942  -5.638  0.00  0.00     0.275 HD
ENDBRANCH   1  24
TORSDOF 7
ENDMDL
MODEL 8
REMARK VINA RESULT:      -6.9      3.892      8.394
REMARK  7 active torsions:
REMARK  status: ('A' for Active; 'I' for Inactive)
REMARK       I    between atoms: C_6  and  N_11 
REMARK    1  A    between atoms: C_6  and  C_7 
REMARK    2  A    between atoms: C_7  and  C_20 
REMARK    3  A    between atoms: C_7  and  N_24 
REMARK    4  A    between atoms: N_11  and  C_21 
REMARK    5  A    between atoms: C_14  and  C_21 
REMARK    6  A    between atoms: C_15  and  C_21 
REMARK    7  A    between atoms: C_18  and  C_20 
ROOT
HETATM    1  C           1     -20.438  -7.848  -3.638  0.00  0.00     0.278 C 
ENDROOT
BRANCH   1   2
HETATM    2  C           1     -21.315  -8.062  -2.429  0.00  0.00     0.249 C 
HETATM    3  O           1     -21.919  -7.132  -1.949  0.00  0.00    -0.271 OA
HETATM    4  N           1     -21.425  -9.309  -1.875  0.00  0.00    -0.344 N 
HETATM    5  H           1     -20.918 -10.088  -2.276  0.00  0.00     0.163 HD
BRANCH   4   6
HETATM    6  C           1     -22.267  -9.514  -0.713  0.00  0.00     0.189 C 
BRANCH   6   7
HETATM    7  C           1     -22.898 -10.899  -0.782  0.00  0.00     0.010 C 
HETATM    8  C           1     -23.184 -11.256  -2.235  0.00  0.00     0.012 C 
HETATM    9  C           1     -24.201 -10.903   0.007  0.00  0.00     0.012 C 
ENDBRANCH   6   7
BRANCH   6  10
HETATM   10  C           1     -21.433  -9.405   0.539  0.00  0.00     0.197 C 
HETATM   11  O           1     -20.683 -10.346   0.875  0.00  0.00    -0.646 OA
HETATM   12  O           1     -21.492  -8.372   1.240  0.00  0.00    -0.646 OA
ENDBRANCH   6  10
ENDBRANCH   4   6
ENDBRANCH   1   2
BRANCH   1  13
HETATM   13  C           1     -21.232  -8.155  -4.902  0.00  0.00     0.083 C 
BRANCH  13  14
HETATM   14  C           1     -21.750  -6.878  -5.487  0.00  0.00    -0.028 A 
HETATM   15  C           1     -21.028  -5.987  -6.328  0.00  0.00    -0.002 A 
HETATM   16  C           1     -21.884  -4.932  -6.641  0.00  0.00     0.042 A 
HETATM   17  C           1     -19.721  -5.979  -6.853  0.00  0.00     0.014 A 
HETATM   18  N           1     -23.082  -5.181  -6.009  0.00  0.00    -0.365 N 
HETATM   19  C           1     -21.498  -3.862  -7.458  0.00  0.00     0.030 A 
HETATM   20  C           1     -23.012  -6.356  -5.309  0.00  0.00     0.096 A 
HETATM   21  H           1     -23.927  -4.561  -6.057  0.00  0.00     0.165 HD
HETATM   22  C           1     -20.196  -3.876  -7.968  0.00  0.00     0.002 A 
HETATM   23  C           1     -19.319  -4.917  -7.672  0.00  0.00     0.001 A 
ENDBRANCH  13  14
ENDBRANCH   1  13
BRANCH   1  24
HETATM   24  N           1     -19.251  -8.761  -3.562  0.00  0.00    -0.066 N 
HETATM   25  H           1     -19.511  -9.704  -3.929  0.00  0.00     0.275 HD
HETATM   26  H           1     -18.941  -8.846  -2.567  0.00  0.00     0.275 HD
HETATM   27  H           1     -18.471  -8.368  -4.135  0.00  0.00     0.275 HD
ENDBRANCH   1  24
TORSDOF 7
ENDMDL
MODEL 9
REMARK VINA RESULT:      -6.8      5.123      7.444
REMARK  7 active torsions:
REMARK  status: ('A' for Active; 'I' for Inactive)
REMARK       I    between atoms: C_6  and  N_11 
REMARK    1  A    between atoms: C_6  and  C_7 
REMARK    2  A    between atoms: C_7  and  C_20 
REMARK    3  A    between atoms: C_7  and  N_24 
REMARK    4  A    between atoms: N_11  and  C_21 
REMARK    5  A    between atoms: C_14  and  C_21 
REMARK    6  A    between atoms: C_15  and  C_21 
REMARK    7  A    between atoms: C_18  and  C_20 
ROOT
HETATM    1  C           1     -19.837  -7.985  -5.000  0.00  0.00     0.278 C 
ENDROOT
BRANCH   1   2
HETATM    2  C           1     -19.007  -9.242  -5.094  0.00  0.00     0.249 C 
HETATM    3  O           1     -18.921  -9.832  -6.145  0.00  0.00    -0.271 OA
HETATM    4  N           1     -18.351  -9.713  -3.989  0.00  0.00    -0.344 N 
HETATM    5  H           1     -18.423  -9.220  -3.108  0.00  0.00     0.163 HD
BRANCH   4   6
HETATM    6  C           1     -17.553 -10.920  -4.079  0.00  0.00     0.189 C 
BRANCH   6   7
HETATM    7  C           1     -16.086 -10.578  -3.846  0.00  0.00     0.010 C 
HETATM    8  C           1     -15.981  -9.483  -2.793  0.00  0.00     0.012 C 
HETATM    9  C           1     -15.467 -10.091  -5.149  0.00  0.00     0.012 C 
ENDBRANCH   6   7
BRANCH   6  10
HETATM   10  C           1     -18.011 -11.905  -3.032  0.00  0.00     0.197 C 
HETATM   11  O           1     -17.462 -13.025  -2.944  0.00  0.00    -0.646 OA
HETATM   12  O           1     -18.939 -11.601  -2.252  0.00  0.00    -0.646 OA
ENDBRANCH   6  10
ENDBRANCH   4   6
ENDBRANCH   1   2
BRANCH   1  13
HETATM   13  C           1     -21.262  -8.347  -4.600  0.00  0.00     0.083 C 
BRANCH  13  14
HETATM   14  C           1     -21.649  -7.572  -3.379  0.00  0.00    -0.028 A 
HETATM   15  C           1     -21.831  -8.102  -2.072  0.00  0.00    -0.002 A 
HETATM   16  C           1     -22.186  -7.038  -1.242  0.00  0.00     0.042 A 
HETATM   17  C           1     -21.728  -9.391  -1.515  0.00  0.00     0.014 A 
HETATM   18  N           1     -22.217  -5.907  -2.026  0.00  0.00    -0.365 N 
HETATM   19  C           1     -22.444  -7.199   0.125  0.00  0.00     0.030 A 
HETATM   20  C           1     -21.893  -6.218  -3.320  0.00  0.00     0.096 A 
HETATM   21  H           1     -22.453  -4.944  -1.682  0.00  0.00     0.165 HD
HETATM   22  C           1     -22.334  -8.489   0.655  0.00  0.00     0.002 A 
HETATM   23  C           1     -21.982  -9.570  -0.150  0.00  0.00     0.001 A 
ENDBRANCH  13  14
ENDBRANCH   1  13
BRANCH   1  24
HETATM   24  N           1     -19.852  -7.296  -6.331  0.00  0.00    -0.066 N 
HETATM   25  H           1     -20.146  -7.973  -7.072  0.00  0.00     0.275 HD
HETATM   26  H           1     -18.896  -6.935  -6.547  0.00  0.00     0.275 HD
HETATM   27  H           1     -20.526  -6.498  -6.303  0.00  0.00     0.275 HD
ENDBRANCH   1  24
TORSDOF 7
ENDMDL
