MODEL 1
REMARK VINA RESULT:      -5.4      0.000      0.000
REMARK  5 active torsions:
REMARK  status: ('A' for Active; 'I' for Inactive)
REMARK    1  A    between atoms: C_3  and  C_6 
REMARK    2  A    between atoms: C_3  and  C_17 
REMARK    3  A    between atoms: C_9  and  C_10 
REMARK       I    between atoms: C_10  and  N_15 
REMARK    4  A    between atoms: N_15  and  C_17 
REMARK    5  A    between atoms: C_16  and  C_17 
ROOT
HETATM    1  H           1     -20.711  -7.834  -6.818  0.00  0.00     0.162 HD
HETATM    2  C           1     -20.166  -5.882  -6.398  0.00  0.00     0.133 C 
HETATM    3  N           1     -20.370  -7.203  -6.104  0.00  0.00    -0.359 N 
HETATM    4  O           1     -19.759  -5.129  -5.545  0.00  0.00    -0.397 OA
ENDROOT
BRANCH   3   5
HETATM    5  C           1     -20.096  -7.699  -4.768  0.00  0.00     0.184 C 
BRANCH   5   6
HETATM    6  C           1     -21.407  -7.862  -4.009  0.00  0.00     0.040 C 
BRANCH   6   7
HETATM    7  C           1     -21.208  -7.444  -2.559  0.00  0.00    -0.018 C 
HETATM    8  C           1     -21.651  -8.573  -1.639  0.00  0.00     0.289 C 
HETATM    9  C           1     -22.038  -6.200  -2.271  0.00  0.00     0.009 C 
ENDBRANCH   6   7
ENDBRANCH   5   6
BRANCH   5  10
HETATM   10  C           1     -19.400  -9.035  -4.862  0.00  0.00     0.196 C 
HETATM   11  O           1     -19.721  -9.846  -5.757  0.00  0.00    -0.646 OA
HETATM   12  O           1     -18.502  -9.330  -4.044  0.00  0.00    -0.646 OA
ENDBRANCH   5  10
ENDBRANCH   3   5
BRANCH   2  13
HETATM   13  C           1     -20.450  -5.365  -7.787  0.00  0.00     0.292 C 
HETATM   14  C           1     -20.220  -3.866  -7.864  0.00  0.00     0.046 C 
HETATM   15  C           1     -21.591  -3.243  -7.628  0.00  0.00     0.033 C 
HETATM   16  C           1     -22.533  -4.418  -7.436  0.00  0.00     0.270 C 
HETATM   17  N           1     -21.862  -5.519  -8.121  0.00  0.00     0.095 N 
HETATM   18  H           1     -22.008  -5.433  -9.127  0.00  0.00     0.316 HD
ENDBRANCH   2  13
TORSDOF 5
ENDMDL
MODEL 2
REMARK VINA RESULT:      -5.4      2.175      3.106
REMARK  5 active torsions:
REMARK  status: ('A' for Active; 'I' for Inactive)
REMARK    1  A    between atoms: C_3  and  C_6 
REMARK    2  A    between atoms: C_3  and  C_17 
REMARK    3  A    between atoms: C_9  and  C_10 
REMARK       I    between atoms: C_10  and  N_15 
REMARK    4  A    between atoms: N_15  and  C_17 
REMARK    5  A    between atoms: C_16  and  C_17 
ROOT
HETATM    1  H           1     -19.753  -5.974  -4.629  0.00  0.00     0.162 HD
HETATM    2  C           1     -21.457  -5.383  -5.644  0.00  0.00     0.133 C 
HETATM    3  N           1     -20.738  -6.158  -4.775  0.00  0.00    -0.359 N 
HETATM    4  O           1     -22.632  -5.603  -5.818  0.00  0.00    -0.397 OA
ENDROOT
BRANCH   3   5
HETATM    5  C           1     -21.387  -7.242  -4.063  0.00  0.00     0.184 C 
BRANCH   5   6
HETATM    6  C           1     -20.500  -8.480  -4.106  0.00  0.00     0.040 C 
BRANCH   6   7
HETATM    7  C           1     -21.257  -9.624  -4.766  0.00  0.00    -0.018 C 
HETATM    8  C           1     -22.102 -10.343  -3.724  0.00  0.00     0.289 C 
HETATM    9  C           1     -20.264 -10.603  -5.378  0.00  0.00     0.009 C 
ENDBRANCH   6   7
ENDBRANCH   5   6
BRANCH   5  10
HETATM   10  C           1     -21.613  -6.836  -2.627  0.00  0.00     0.196 C 
HETATM   11  O           1     -22.443  -5.943  -2.354  0.00  0.00    -0.646 OA
HETATM   12  O           1     -20.969  -7.392  -1.711  0.00  0.00    -0.646 OA
ENDBRANCH   5  10
ENDBRANCH   3   5
BRANCH   2  13
HETATM   13  C           1     -20.783  -4.254  -6.385  0.00  0.00     0.292 C 
HETATM   14  C           1     -21.672  -3.733  -7.500  0.00  0.00     0.046 C 
HETATM   15  C           1     -21.222  -4.482  -8.749  0.00  0.00     0.033 C 
HETATM   16  C           1     -20.095  -5.387  -8.284  0.00  0.00     0.270 C 
HETATM   17  N           1     -19.591  -4.728  -7.082  0.00  0.00     0.095 N 
HETATM   18  H           1     -18.993  -3.947  -7.349  0.00  0.00     0.316 HD
ENDBRANCH   2  13
TORSDOF 5
ENDMDL
MODEL 3
REMARK VINA RESULT:      -5.4      2.290      3.258
REMARK  5 active torsions:
REMARK  status: ('A' for Active; 'I' for Inactive)
REMARK    1  A    between atoms: C_3  and  C_6 
REMARK    2  A    between atoms: C_3  and  C_17 
REMARK    3  A    between atoms: C_9  and  C_10 
REMARK       I    between atoms: C_10  and  N_15 
REMARK    4  A    between atoms: N_15  and  C_17 
REMARK    5  A    between atoms: C_16  and  C_17 
ROOT
HETATM    1  H           1     -20.927  -8.843  -3.988  0.00  0.00     0.162 HD
HETATM    2  C           1     -21.488  -6.900  -3.548  0.00  0.00     0.133 C 
HETATM    3  N           1     -20.967  -8.134  -3.266  0.00  0.00    -0.359 N 
HETATM    4  O           1     -21.535  -6.054  -2.686  0.00  0.00    -0.397 OA
ENDROOT
BRANCH   3   5
HETATM    5  C           1     -20.471  -8.425  -1.935  0.00  0.00     0.184 C 
BRANCH   5   6
HETATM    6  C           1     -21.604  -8.981  -1.081  0.00  0.00     0.040 C 
BRANCH   6   7
HETATM    7  C           1     -21.768  -8.123   0.166  0.00  0.00    -0.018 C 
HETATM    8  C           1     -21.010  -8.758   1.323  0.00  0.00     0.289 C 
HETATM    9  C           1     -23.245  -8.020   0.522  0.00  0.00     0.009 C 
ENDBRANCH   6   7
ENDBRANCH   5   6
BRANCH   5  10
HETATM   10  C           1     -19.363  -9.446  -2.024  0.00  0.00     0.196 C 
HETATM   11  O           1     -18.327  -9.187  -2.673  0.00  0.00    -0.646 OA
HETATM   12  O           1     -19.481 -10.549  -1.449  0.00  0.00    -0.646 OA
ENDBRANCH   5  10
ENDBRANCH   3   5
BRANCH   2  13
HETATM   13  C           1     -22.003  -6.596  -4.933  0.00  0.00     0.292 C 
HETATM   14  C           1     -21.247  -7.396  -5.978  0.00  0.00     0.046 C 
HETATM   15  C           1     -20.140  -6.469  -6.464  0.00  0.00     0.033 C 
HETATM   16  C           1     -20.324  -5.184  -5.675  0.00  0.00     0.270 C 
HETATM   17  N           1     -21.734  -5.208  -5.295  0.00  0.00     0.095 N 
HETATM   18  H           1     -22.305  -4.924  -6.091  0.00  0.00     0.316 HD
ENDBRANCH   2  13
TORSDOF 5
ENDMDL
MODEL 4
REMARK VINA RESULT:      -5.3      1.896      2.675
REMARK  5 active torsions:
REMARK  status: ('A' for Active; 'I' for Inactive)
REMARK    1  A    between atoms: C_3  and  C_6 
REMARK    2  A    between atoms: C_3  and  C_17 
REMARK    3  A    between atoms: C_9  and  C_10 
REMARK       I    between atoms: C_10  and  N_15 
REMARK    4  A    between atoms: N_15  and  C_17 
REMARK    5  A    between atoms: C_16  and  C_17 
ROOT
HETATM    1  H           1     -21.959  -7.358  -3.831  0.00  0.00     0.162 HD
HETATM    2  C           1     -20.499  -7.559  -5.284  0.00  0.00     0.133 C 
HETATM    3  N           1     -21.087  -7.812  -4.074  0.00  0.00    -0.359 N 
HETATM    4  O           1     -19.458  -8.100  -5.574  0.00  0.00    -0.397 OA
ENDROOT
BRANCH   3   5
HETATM    5  C           1     -20.462  -8.730  -3.142  0.00  0.00     0.184 C 
BRANCH   5   6
HETATM    6  C           1     -20.448  -8.110  -1.750  0.00  0.00     0.040 C 
BRANCH   6   7
HETATM    7  C           1     -21.878  -7.852  -1.295  0.00  0.00    -0.018 C 
HETATM    8  C           1     -22.177  -6.362  -1.376  0.00  0.00     0.289 C 
HETATM    9  C           1     -22.046  -8.327   0.142  0.00  0.00     0.009 C 
ENDBRANCH   6   7
ENDBRANCH   5   6
BRANCH   5  10
HETATM   10  C           1     -21.242 -10.022  -3.108  0.00  0.00     0.196 C 
HETATM   11  O           1     -20.862 -10.962  -2.379  0.00  0.00    -0.646 OA
HETATM   12  O           1     -22.268 -10.150  -3.811  0.00  0.00    -0.646 OA
ENDBRANCH   5  10
ENDBRANCH   3   5
BRANCH   2  13
HETATM   13  C           1     -21.149  -6.604  -6.255  0.00  0.00     0.292 C 
HETATM   14  C           1     -20.150  -6.127  -7.295  0.00  0.00     0.046 C 
HETATM   15  C           1     -19.614  -4.808  -6.752  0.00  0.00     0.033 C 
HETATM   16  C           1     -20.338  -4.597  -5.434  0.00  0.00     0.270 C 
HETATM   17  N           1     -21.563  -5.378  -5.581  0.00  0.00     0.095 N 
HETATM   18  H           1     -22.231  -4.859  -6.151  0.00  0.00     0.316 HD
ENDBRANCH   2  13
TORSDOF 5
ENDMDL
MODEL 5
REMARK VINA RESULT:      -5.3     20.305     22.111
REMARK  5 active torsions:
REMARK  status: ('A' for Active; 'I' for Inactive)
REMARK    1  A    between atoms: C_3  and  C_6 
REMARK    2  A    between atoms: C_3  and  C_17 
REMARK    3  A    between atoms: C_9  and  C_10 
REMARK       I    between atoms: C_10  and  N_15 
REMARK    4  A    between atoms: N_15  and  C_17 
REMARK    5  A    between atoms: C_16  and  C_17 
ROOT
HETATM    1  H           1     -12.158   5.765 -19.340  0.00  0.00     0.162 HD
HETATM    2  C           1     -12.246   7.301 -20.724  0.00  0.00     0.133 C 
HETATM    3  N           1     -12.516   6.049 -20.243  0.00  0.00    -0.359 N 
HETATM    4  O           1     -12.674   7.639 -21.802  0.00  0.00    -0.397 OA
ENDROOT
BRANCH   3   5
HETATM    5  C           1     -13.318   5.128 -21.027  0.00  0.00     0.184 C 
BRANCH   5   6
HETATM    6  C           1     -12.835   3.703 -20.787  0.00  0.00     0.040 C 
BRANCH   6   7
HETATM    7  C           1     -11.333   3.630 -21.023  0.00  0.00    -0.018 C 
HETATM    8  C           1     -11.030   3.945 -22.481  0.00  0.00     0.289 C 
HETATM    9  C           1     -10.834   2.230 -20.692  0.00  0.00     0.009 C 
ENDBRANCH   6   7
ENDBRANCH   5   6
BRANCH   5  10
HETATM   10  C           1     -14.765   5.244 -20.614  0.00  0.00     0.196 C 
HETATM   11  O           1     -15.068   5.273 -19.402  0.00  0.00    -0.646 OA
HETATM   12  O           1     -15.660   5.311 -21.484  0.00  0.00    -0.646 OA
ENDBRANCH   5  10
ENDBRANCH   3   5
BRANCH   2  13
HETATM   13  C           1     -11.413   8.259 -19.908  0.00  0.00     0.292 C 
HETATM   14  C           1     -11.000   9.460 -20.741  0.00  0.00     0.046 C 
HETATM   15  C           1      -9.616   9.113 -21.277  0.00  0.00     0.033 C 
HETATM   16  C           1      -9.308   7.736 -20.718  0.00  0.00     0.270 C 
HETATM   17  N           1     -10.144   7.649 -19.524  0.00  0.00     0.095 N 
HETATM   18  H           1      -9.707   8.170 -18.764  0.00  0.00     0.316 HD
ENDBRANCH   2  13
TORSDOF 5
ENDMDL
MODEL 6
REMARK VINA RESULT:      -5.3     20.227     22.437
REMARK  5 active torsions:
REMARK  status: ('A' for Active; 'I' for Inactive)
REMARK    1  A    between atoms: C_3  and  C_6 
REMARK    2  A    between atoms: C_3  and  C_17 
REMARK    3  A    between atoms: C_9  and  C_10 
REMARK       I    between atoms: C_10  and  N_15 
REMARK    4  A    between atoms: N_15  and  C_17 
REMARK    5  A    between atoms: C_16  and  C_17 
ROOT
HETATM    1  H           1     -13.733   7.131 -20.839  0.00  0.00     0.162 HD
HETATM    2  C           1     -12.804   5.540 -19.894  0.00  0.00     0.133 C 
HETATM    3  N           1     -12.948   6.850 -20.264  0.00  0.00    -0.359 N 
HETATM    4  O           1     -11.867   5.206 -19.209  0.00  0.00    -0.397 OA
ENDROOT
BRANCH   3   5
HETATM    5  C           1     -11.976   7.837 -19.833  0.00  0.00     0.184 C 
BRANCH   5   6
HETATM    6  C           1     -11.084   8.219 -21.007  0.00  0.00     0.040 C 
BRANCH   6   7
HETATM    7  C           1      -9.624   8.096 -20.597  0.00  0.00    -0.018 C 
HETATM    8  C           1      -8.786   9.086 -21.394  0.00  0.00     0.289 C 
HETATM    9  C           1      -9.136   6.680 -20.873  0.00  0.00     0.009 C 
ENDBRANCH   6   7
ENDBRANCH   5   6
BRANCH   5  10
HETATM   10  C           1     -12.696   9.064 -19.328  0.00  0.00     0.196 C 
HETATM   11  O           1     -12.463  10.179 -19.841  0.00  0.00    -0.646 OA
HETATM   12  O           1     -13.525   8.964 -18.398  0.00  0.00    -0.646 OA
ENDBRANCH   5  10
ENDBRANCH   3   5
BRANCH   2  13
HETATM   13  C           1     -13.815   4.514 -20.342  0.00  0.00     0.292 C 
HETATM   14  C           1     -13.124   3.293 -20.924  0.00  0.00     0.046 C 
HETATM   15  C           1     -13.086   3.538 -22.428  0.00  0.00     0.033 C 
HETATM   16  C           1     -13.763   4.883 -22.628  0.00  0.00     0.270 C 
HETATM   17  N           1     -14.616   5.022 -21.451  0.00  0.00     0.095 N 
HETATM   18  H           1     -15.460   4.462 -21.575  0.00  0.00     0.316 HD
ENDBRANCH   2  13
TORSDOF 5
ENDMDL
MODEL 7
REMARK VINA RESULT:      -5.3     20.285     22.263
REMARK  5 active torsions:
REMARK  status: ('A' for Active; 'I' for Inactive)
REMARK    1  A    between atoms: C_3  and  C_6 
REMARK    2  A    between atoms: C_3  and  C_17 
REMARK    3  A    between atoms: C_9  and  C_10 
REMARK       I    between atoms: C_10  and  N_15 
REMARK    4  A    between atoms: N_15  and  C_17 
REMARK    5  A    between atoms: C_16  and  C_17 
ROOT
HETATM    1  H           1     -11.836   6.390 -21.569  0.00  0.00     0.162 HD
HETATM    2  C           1     -11.530   4.399 -22.047  0.00  0.00     0.133 C 
HETATM    3  N           1     -11.228   5.590 -21.444  0.00  0.00    -0.359 N 
HETATM    4  O           1     -10.804   3.446 -21.897  0.00  0.00    -0.397 OA
ENDROOT
BRANCH   3   5
HETATM    5  C           1     -10.037   5.707 -20.624  0.00  0.00     0.184 C 
BRANCH   5   6
HETATM    6  C           1      -9.410   7.080 -20.831  0.00  0.00     0.040 C 
BRANCH   6   7
HETATM    7  C           1     -10.508   8.128 -20.941  0.00  0.00    -0.018 C 
HETATM    8  C           1     -10.349   8.897 -22.246  0.00  0.00     0.289 C 
HETATM    9  C           1     -10.408   9.093 -19.768  0.00  0.00     0.009 C 
ENDBRANCH   6   7
ENDBRANCH   5   6
BRANCH   5  10
HETATM   10  C           1     -10.409   5.539 -19.170  0.00  0.00     0.196 C 
HETATM   11  O           1      -9.551   5.723 -18.281  0.00  0.00    -0.646 OA
HETATM   12  O           1     -11.574   5.215 -18.857  0.00  0.00    -0.646 OA
ENDBRANCH   5  10
ENDBRANCH   3   5
BRANCH   2  13
HETATM   13  C           1     -12.770   4.277 -22.899  0.00  0.00     0.292 C 
HETATM   14  C           1     -13.717   5.437 -22.644  0.00  0.00     0.046 C 
HETATM   15  C           1     -14.697   4.924 -21.595  0.00  0.00     0.033 C 
HETATM   16  C           1     -14.263   3.497 -21.310  0.00  0.00     0.270 C 
HETATM   17  N           1     -13.548   3.102 -22.520  0.00  0.00     0.095 N 
HETATM   18  H           1     -14.220   2.862 -23.249  0.00  0.00     0.316 HD
ENDBRANCH   2  13
TORSDOF 5
ENDMDL
MODEL 8
REMARK VINA RESULT:      -5.2      3.710      5.535
REMARK  5 active torsions:
REMARK  status: ('A' for Active; 'I' for Inactive)
REMARK    1  A    between atoms: C_3  and  C_6 
REMARK    2  A    between atoms: C_3  and  C_17 
REMARK    3  A    between atoms: C_9  and  C_10 
REMARK       I    between atoms: C_10  and  N_15 
REMARK    4  A    between atoms: N_15  and  C_17 
REMARK    5  A    between atoms: C_16  and  C_17 
ROOT
HETATM    1  H           1     -22.563 -10.800  -2.361  0.00  0.00     0.162 HD
HETATM    2  C           1     -20.639 -10.038  -2.324  0.00  0.00     0.133 C 
HETATM    3  N           1     -21.828 -10.430  -1.771  0.00  0.00    -0.359 N 
HETATM    4  O           1     -19.762  -9.597  -1.619  0.00  0.00    -0.397 OA
ENDROOT
BRANCH   3   5
HETATM    5  C           1     -22.034 -10.318  -0.339  0.00  0.00     0.184 C 
BRANCH   5   6
HETATM    6  C           1     -23.205  -9.383  -0.067  0.00  0.00     0.040 C 
BRANCH   6   7
HETATM    7  C           1     -22.682  -8.055   0.462  0.00  0.00    -0.018 C 
HETATM    8  C           1     -22.398  -7.119  -0.705  0.00  0.00     0.289 C 
HETATM    9  C           1     -21.399  -8.291   1.247  0.00  0.00     0.009 C 
ENDBRANCH   6   7
ENDBRANCH   5   6
BRANCH   5  10
HETATM   10  C           1     -22.336 -11.682   0.233  0.00  0.00     0.196 C 
HETATM   11  O           1     -23.519 -12.077   0.313  0.00  0.00    -0.646 OA
HETATM   12  O           1     -21.404 -12.414   0.628  0.00  0.00    -0.646 OA
ENDBRANCH   5  10
ENDBRANCH   3   5
BRANCH   2  13
HETATM   13  C           1     -20.423 -10.156  -3.813  0.00  0.00     0.292 C 
HETATM   14  C           1     -19.366  -9.172  -4.285  0.00  0.00     0.046 C 
HETATM   15  C           1     -20.145  -7.948  -4.751  0.00  0.00     0.033 C 
HETATM   16  C           1     -21.606  -8.297  -4.528  0.00  0.00     0.270 C 
HETATM   17  N           1     -21.621  -9.757  -4.545  0.00  0.00     0.095 N 
HETATM   18  H           1     -21.582 -10.086  -5.509  0.00  0.00     0.316 HD
ENDBRANCH   2  13
TORSDOF 5
ENDMDL
MODEL 9
REMARK VINA RESULT:      -5.2      3.861      6.250
REMARK  5 active torsions:
REMARK  status: ('A' for Active; 'I' for Inactive)
REMARK    1  A    between atoms: C_3  and  C_6 
REMARK    2  A    between atoms: C_3  and  C_17 
REMARK    3  A    between atoms: C_9  and  C_10 
REMARK       I    between atoms: C_10  and  N_15 
REMARK    4  A    between atoms: N_15  and  C_17 
REMARK    5  A    between atoms: C_16  and  C_17 
ROOT
HETATM    1  H           1     -20.692 -10.466  -2.737  0.00  0.00     0.162 HD
HETATM    2  C           1     -21.020  -8.546  -2.037  0.00  0.00     0.133 C 
HETATM    3  N           1     -20.380  -9.504  -2.777  0.00  0.00    -0.359 N 
HETATM    4  O           1     -20.647  -7.398  -2.085  0.00  0.00    -0.397 OA
ENDROOT
BRANCH   3   5
HETATM    5  C           1     -19.256  -9.141  -3.618  0.00  0.00     0.184 C 
BRANCH   5   6
HETATM    6  C           1     -18.177 -10.212  -3.515  0.00  0.00     0.040 C 
BRANCH   6   7
HETATM    7  C           1     -16.830  -9.613  -3.894  0.00  0.00    -0.018 C 
HETATM    8  C           1     -16.219 -10.417  -5.034  0.00  0.00     0.289 C 
HETATM    9  C           1     -15.899  -9.653  -2.690  0.00  0.00     0.009 C 
ENDBRANCH   6   7
ENDBRANCH   5   6
BRANCH   5  10
HETATM   10  C           1     -19.716  -9.028  -5.051  0.00  0.00     0.196 C 
HETATM   11  O           1     -20.063 -10.052  -5.678  0.00  0.00    -0.646 OA
HETATM   12  O           1     -19.750  -7.911  -5.610  0.00  0.00    -0.646 OA
ENDBRANCH   5  10
ENDBRANCH   3   5
BRANCH   2  13
HETATM   13  C           1     -22.190  -8.924  -1.162  0.00  0.00     0.292 C 
HETATM   14  C           1     -22.504  -7.816  -0.173  0.00  0.00     0.046 C 
HETATM   15  C           1     -21.758  -8.197   1.100  0.00  0.00     0.033 C 
HETATM   16  C           1     -21.061  -9.507   0.773  0.00  0.00     0.270 C 
HETATM   17  N           1     -21.859 -10.064  -0.315  0.00  0.00     0.095 N 
HETATM   18  H           1     -22.704 -10.490   0.067  0.00  0.00     0.316 HD
ENDBRANCH   2  13
TORSDOF 5
ENDMDL
