MODEL 1
REMARK VINA RESULT:      -8.2      0.000      0.000
REMARK  8 active torsions:
REMARK  status: ('A' for Active; 'I' for Inactive)
REMARK    1  A    between atoms: C_3  and  C_23 
REMARK    2  A    between atoms: C_5  and  C_21 
REMARK    3  A    between atoms: C_5  and  C_12 
REMARK    4  A    between atoms: C_5  and  N_25 
REMARK       I    between atoms: C_6  and  N_25 
REMARK    5  A    between atoms: C_6  and  C_17 
REMARK    6  A    between atoms: C_9  and  C_12 
REMARK    7  A    between atoms: N_11  and  C_17 
REMARK    8  A    between atoms: C_17  and  C_23 
ROOT
HETATM    1  C           1     -21.860  -6.609  -5.640  0.00  0.00     0.190 C 
ENDROOT
BRANCH   1   2
HETATM    2  C           1     -20.864  -7.736  -5.512  0.00  0.00     0.197 C 
HETATM    3  O           1     -21.257  -8.923  -5.534  0.00  0.00    -0.646 OA
HETATM    4  O           1     -19.647  -7.483  -5.386  0.00  0.00    -0.646 OA
ENDBRANCH   1   2
BRANCH   1   5
HETATM    5  C           1     -21.162  -5.377  -6.201  0.00  0.00     0.077 C 
BRANCH   5   6
HETATM    6  C           1     -21.993  -4.790  -7.300  0.00  0.00    -0.028 A 
HETATM    7  C           1     -23.316  -4.421  -7.207  0.00  0.00     0.096 A 
HETATM    8  N           1     -23.700  -3.932  -8.429  0.00  0.00    -0.365 N 
HETATM    9  H           1     -24.660  -3.572  -8.657  0.00  0.00     0.165 HD
HETATM   10  C           1     -22.645  -3.977  -9.313  0.00  0.00     0.042 A 
HETATM   11  C           1     -21.557  -4.515  -8.626  0.00  0.00    -0.002 A 
HETATM   12  C           1     -22.573  -3.587 -10.655  0.00  0.00     0.030 A 
HETATM   13  C           1     -20.335  -4.673  -9.308  0.00  0.00     0.014 A 
HETATM   14  C           1     -20.246  -4.288 -10.651  0.00  0.00     0.001 A 
HETATM   15  C           1     -21.350  -3.754 -11.312  0.00  0.00     0.002 A 
ENDBRANCH   5   6
ENDBRANCH   1   5
BRANCH   1  16
HETATM   16  N           1     -22.409  -6.300  -4.333  0.00  0.00    -0.344 N 
HETATM   17  C           1     -21.631  -6.434  -3.215  0.00  0.00     0.249 C 
HETATM   18  O           1     -20.971  -5.501  -2.824  0.00  0.00    -0.271 OA
HETATM   19  H           1     -23.367  -5.985  -4.249  0.00  0.00     0.163 HD
BRANCH  17  20
HETATM   20  C           1     -21.598  -7.747  -2.472  0.00  0.00     0.275 C 
BRANCH  20  21
HETATM   21  N           1     -20.196  -8.279  -2.459  0.00  0.00    -0.066 N 
HETATM   22  H           1     -20.163  -9.190  -2.969  0.00  0.00     0.275 HD
HETATM   23  H           1     -19.560  -7.595  -2.928  0.00  0.00     0.275 HD
HETATM   24  H           1     -19.887  -8.421  -1.471  0.00  0.00     0.275 HD
ENDBRANCH  20  21
BRANCH  20  25
HETATM   25  C           1     -22.073  -7.533  -1.040  0.00  0.00     0.046 C 
BRANCH  25  26
HETATM   26  C           1     -21.810  -8.792  -0.225  0.00  0.00    -0.020 C 
HETATM   27  C           1     -23.075  -9.639  -0.178  0.00  0.00     0.009 C 
HETATM   28  C           1     -21.406  -8.405   1.191  0.00  0.00     0.009 C 
ENDBRANCH  25  26
ENDBRANCH  20  25
ENDBRANCH  17  20
ENDBRANCH   1  16
TORSDOF 8
ENDMDL
MODEL 2
REMARK VINA RESULT:      -7.9      1.673      2.092
REMARK  8 active torsions:
REMARK  status: ('A' for Active; 'I' for Inactive)
REMARK    1  A    between atoms: C_3  and  C_23 
REMARK    2  A    between atoms: C_5  and  C_21 
REMARK    3  A    between atoms: C_5  and  C_12 
REMARK    4  A    between atoms: C_5  and  N_25 
REMARK       I    between atoms: C_6  and  N_25 
REMARK    5  A    between atoms: C_6  and  C_17 
REMARK    6  A    between atoms: C_9  and  C_12 
REMARK    7  A    between atoms: N_11  and  C_17 
REMARK    8  A    between atoms: C_17  and  C_23 
ROOT
HETATM    1  C           1     -21.149  -6.159  -6.930  0.00  0.00     0.190 C 
ENDROOT
BRANCH   1   2
HETATM    2  C           1     -19.646  -6.241  -6.819  0.00  0.00     0.197 C 
HETATM    3  O           1     -19.096  -7.337  -6.575  0.00  0.00    -0.646 OA
HETATM    4  O           1     -18.952  -5.214  -6.971  0.00  0.00    -0.646 OA
ENDBRANCH   1   2
BRANCH   1   5
HETATM    5  C           1     -21.597  -4.720  -6.711  0.00  0.00     0.077 C 
BRANCH   5   6
HETATM    6  C           1     -22.457  -4.285  -7.858  0.00  0.00    -0.028 A 
HETATM    7  C           1     -23.821  -4.101  -7.824  0.00  0.00     0.096 A 
HETATM    8  N           1     -24.219  -3.704  -9.074  0.00  0.00    -0.365 N 
HETATM    9  H           1     -25.210  -3.488  -9.347  0.00  0.00     0.165 HD
HETATM   10  C           1     -23.134  -3.627  -9.918  0.00  0.00     0.042 A 
HETATM   11  C           1     -22.010  -3.989  -9.176  0.00  0.00    -0.002 A 
HETATM   12  C           1     -23.063  -3.268 -11.269  0.00  0.00     0.030 A 
HETATM   13  C           1     -20.752  -3.995  -9.808  0.00  0.00     0.014 A 
HETATM   14  C           1     -20.664  -3.639 -11.159  0.00  0.00     0.001 A 
HETATM   15  C           1     -21.804  -3.281 -11.877  0.00  0.00     0.002 A 
ENDBRANCH   5   6
ENDBRANCH   1   5
BRANCH   1  16
HETATM   16  N           1     -21.755  -7.011  -5.924  0.00  0.00    -0.344 N 
HETATM   17  C           1     -22.320  -6.457  -4.807  0.00  0.00     0.249 C 
HETATM   18  O           1     -23.488  -6.146  -4.813  0.00  0.00    -0.271 OA
HETATM   19  H           1     -21.759  -8.015  -6.049  0.00  0.00     0.163 HD
BRANCH  17  20
HETATM   20  C           1     -21.484  -6.233  -3.571  0.00  0.00     0.275 C 
BRANCH  20  21
HETATM   21  N           1     -22.380  -5.887  -2.419  0.00  0.00    -0.066 N 
HETATM   22  H           1     -22.349  -6.654  -1.710  0.00  0.00     0.275 HD
HETATM   23  H           1     -22.054  -4.996  -1.980  0.00  0.00     0.275 HD
HETATM   24  H           1     -23.359  -5.769  -2.763  0.00  0.00     0.275 HD
ENDBRANCH  20  21
BRANCH  20  25
HETATM   25  C           1     -20.707  -7.502  -3.246  0.00  0.00     0.046 C 
BRANCH  25  26
HETATM   26  C           1     -21.519  -8.364  -2.288  0.00  0.00    -0.020 C 
HETATM   27  C           1     -20.737  -8.559  -0.996  0.00  0.00     0.009 C 
HETATM   28  C           1     -21.788  -9.719  -2.928  0.00  0.00     0.009 C 
ENDBRANCH  25  26
ENDBRANCH  20  25
ENDBRANCH  17  20
ENDBRANCH   1  16
TORSDOF 8
ENDMDL
MODEL 3
REMARK VINA RESULT:      -7.8      1.764      7.594
REMARK  8 active torsions:
REMARK  status: ('A' for Active; 'I' for Inactive)
REMARK    1  A    between atoms: C_3  and  C_23 
REMARK    2  A    between atoms: C_5  and  C_21 
REMARK    3  A    between atoms: C_5  and  C_12 
REMARK    4  A    between atoms: C_5  and  N_25 
REMARK       I    between atoms: C_6  and  N_25 
REMARK    5  A    between atoms: C_6  and  C_17 
REMARK    6  A    between atoms: C_9  and  C_12 
REMARK    7  A    between atoms: N_11  and  C_17 
REMARK    8  A    between atoms: C_17  and  C_23 
ROOT
HETATM    1  C           1     -20.043  -7.406  -5.276  0.00  0.00     0.190 C 
ENDROOT
BRANCH   1   2
HETATM    2  C           1     -19.120  -8.594  -5.156  0.00  0.00     0.197 C 
HETATM    3  O           1     -18.697  -8.946  -4.034  0.00  0.00    -0.646 OA
HETATM    4  O           1     -18.780  -9.227  -6.178  0.00  0.00    -0.646 OA
ENDBRANCH   1   2
BRANCH   1   5
HETATM    5  C           1     -21.455  -7.817  -4.881  0.00  0.00     0.077 C 
BRANCH   5   6
HETATM    6  C           1     -21.763  -7.292  -3.512  0.00  0.00    -0.028 A 
HETATM    7  C           1     -22.054  -5.985  -3.192  0.00  0.00     0.096 A 
HETATM    8  N           1     -22.272  -5.925  -1.840  0.00  0.00    -0.365 N 
HETATM    9  H           1     -22.516  -5.052  -1.310  0.00  0.00     0.165 HD
HETATM   10  C           1     -22.128  -7.174  -1.278  0.00  0.00     0.042 A 
HETATM   11  C           1     -21.806  -8.054  -2.312  0.00  0.00    -0.002 A 
HETATM   12  C           1     -22.257  -7.587   0.053  0.00  0.00     0.030 A 
HETATM   13  C           1     -21.601  -9.413  -2.007  0.00  0.00     0.014 A 
HETATM   14  C           1     -21.726  -9.843  -0.680  0.00  0.00     0.001 A 
HETATM   15  C           1     -22.049  -8.941   0.332  0.00  0.00     0.002 A 
ENDBRANCH   5   6
ENDBRANCH   1   5
BRANCH   1  16
HETATM   16  N           1     -20.044  -6.933  -6.647  0.00  0.00    -0.344 N 
HETATM   17  C           1     -20.155  -5.594  -6.910  0.00  0.00     0.249 C 
HETATM   18  O           1     -19.162  -4.911  -6.994  0.00  0.00    -0.271 OA
HETATM   19  H           1     -19.962  -7.594  -7.410  0.00  0.00     0.163 HD
BRANCH  17  20
HETATM   20  C           1     -21.517  -4.972  -7.094  0.00  0.00     0.275 C 
BRANCH  20  21
HETATM   21  N           1     -21.433  -3.498  -6.832  0.00  0.00    -0.066 N 
HETATM   22  H           1     -20.589  -3.294  -6.251  0.00  0.00     0.275 HD
HETATM   23  H           1     -21.361  -2.987  -7.741  0.00  0.00     0.275 HD
HETATM   24  H           1     -22.290  -3.186  -6.322  0.00  0.00     0.275 HD
ENDBRANCH  20  21
BRANCH  20  25
HETATM   25  C           1     -21.996  -5.208  -8.520  0.00  0.00     0.046 C 
BRANCH  25  26
HETATM   26  C           1     -21.731  -3.962  -9.357  0.00  0.00    -0.020 C 
HETATM   27  C           1     -22.983  -3.607 -10.148  0.00  0.00     0.009 C 
HETATM   28  C           1     -20.582  -4.232 -10.319  0.00  0.00     0.009 C 
ENDBRANCH  25  26
ENDBRANCH  20  25
ENDBRANCH  17  20
ENDBRANCH   1  16
TORSDOF 8
ENDMDL
MODEL 4
REMARK VINA RESULT:      -7.7      3.228      7.237
REMARK  8 active torsions:
REMARK  status: ('A' for Active; 'I' for Inactive)
REMARK    1  A    between atoms: C_3  and  C_23 
REMARK    2  A    between atoms: C_5  and  C_21 
REMARK    3  A    between atoms: C_5  and  C_12 
REMARK    4  A    between atoms: C_5  and  N_25 
REMARK       I    between atoms: C_6  and  N_25 
REMARK    5  A    between atoms: C_6  and  C_17 
REMARK    6  A    between atoms: C_9  and  C_12 
REMARK    7  A    between atoms: N_11  and  C_17 
REMARK    8  A    between atoms: C_17  and  C_23 
ROOT
HETATM    1  C           1     -21.383  -7.815  -2.420  0.00  0.00     0.190 C 
ENDROOT
BRANCH   1   2
HETATM    2  C           1     -22.171  -7.794  -1.133  0.00  0.00     0.197 C 
HETATM    3  O           1     -22.261  -8.829  -0.438  0.00  0.00    -0.646 OA
HETATM    4  O           1     -22.734  -6.742  -0.762  0.00  0.00    -0.646 OA
ENDBRANCH   1   2
BRANCH   1   5
HETATM    5  C           1     -19.957  -8.266  -2.134  0.00  0.00     0.077 C 
BRANCH   5   6
HETATM    6  C           1     -19.515  -9.227  -3.195  0.00  0.00    -0.028 A 
HETATM    7  C           1     -20.328  -9.845  -4.118  0.00  0.00     0.096 A 
HETATM    8  N           1     -19.537 -10.643  -4.903  0.00  0.00    -0.365 N 
HETATM    9  H           1     -19.884 -11.237  -5.697  0.00  0.00     0.165 HD
HETATM   10  C           1     -18.222 -10.552  -4.503  0.00  0.00     0.042 A 
HETATM   11  C           1     -18.182  -9.666  -3.427  0.00  0.00    -0.002 A 
HETATM   12  C           1     -17.078 -11.181  -5.007  0.00  0.00     0.030 A 
HETATM   13  C           1     -16.941  -9.392  -2.820  0.00  0.00     0.014 A 
HETATM   14  C           1     -15.786 -10.013  -3.312  0.00  0.00     0.001 A 
HETATM   15  C           1     -15.857 -10.894  -4.389  0.00  0.00     0.002 A 
ENDBRANCH   5   6
ENDBRANCH   1   5
BRANCH   1  16
HETATM   16  N           1     -21.362  -6.483  -2.994  0.00  0.00    -0.344 N 
HETATM   17  C           1     -21.610  -6.309  -4.329  0.00  0.00     0.249 C 
HETATM   18  O           1     -22.741  -6.129  -4.714  0.00  0.00    -0.271 OA
HETATM   19  H           1     -21.163  -5.683  -2.407  0.00  0.00     0.163 HD
BRANCH  17  20
HETATM   20  C           1     -20.472  -6.343  -5.319  0.00  0.00     0.275 C 
BRANCH  20  21
HETATM   21  N           1     -20.883  -7.132  -6.526  0.00  0.00    -0.066 N 
HETATM   22  H           1     -21.526  -7.903  -6.237  0.00  0.00     0.275 HD
HETATM   23  H           1     -21.375  -6.504  -7.201  0.00  0.00     0.275 HD
HETATM   24  H           1     -20.035  -7.539  -6.981  0.00  0.00     0.275 HD
ENDBRANCH  20  21
BRANCH  20  25
HETATM   25  C           1     -20.120  -4.922  -5.738  0.00  0.00     0.046 C 
BRANCH  25  26
HETATM   26  C           1     -20.504  -4.713  -7.197  0.00  0.00    -0.020 C 
HETATM   27  C           1     -19.286  -4.237  -7.979  0.00  0.00     0.009 C 
HETATM   28  C           1     -21.606  -3.665  -7.287  0.00  0.00     0.009 C 
ENDBRANCH  25  26
ENDBRANCH  20  25
ENDBRANCH  17  20
ENDBRANCH   1  16
TORSDOF 8
ENDMDL
MODEL 5
REMARK VINA RESULT:      -7.6      1.787      8.041
REMARK  8 active torsions:
REMARK  status: ('A' for Active; 'I' for Inactive)
REMARK    1  A    between atoms: C_3  and  C_23 
REMARK    2  A    between atoms: C_5  and  C_21 
REMARK    3  A    between atoms: C_5  and  C_12 
REMARK    4  A    between atoms: C_5  and  N_25 
REMARK       I    between atoms: C_6  and  N_25 
REMARK    5  A    between atoms: C_6  and  C_17 
REMARK    6  A    between atoms: C_9  and  C_12 
REMARK    7  A    between atoms: N_11  and  C_17 
REMARK    8  A    between atoms: C_17  and  C_23 
ROOT
HETATM    1  C           1     -21.205  -7.373  -5.662  0.00  0.00     0.190 C 
ENDROOT
BRANCH   1   2
HETATM    2  C           1     -21.918  -6.257  -4.939  0.00  0.00     0.197 C 
HETATM    3  O           1     -21.333  -5.625  -4.034  0.00  0.00    -0.646 OA
HETATM    4  O           1     -23.093  -5.963  -5.247  0.00  0.00    -0.646 OA
ENDBRANCH   1   2
BRANCH   1   5
HETATM    5  C           1     -20.283  -8.100  -4.692  0.00  0.00     0.077 C 
BRANCH   5   6
HETATM    6  C           1     -21.089  -9.034  -3.842  0.00  0.00    -0.028 A 
HETATM    7  C           1     -21.660 -10.217  -4.255  0.00  0.00     0.096 A 
HETATM    8  N           1     -22.309 -10.765  -3.179  0.00  0.00    -0.365 N 
HETATM    9  H           1     -22.837 -11.673  -3.196  0.00  0.00     0.165 HD
HETATM   10  C           1     -22.167  -9.956  -2.074  0.00  0.00     0.042 A 
HETATM   11  C           1     -21.402  -8.857  -2.466  0.00  0.00    -0.002 A 
HETATM   12  C           1     -22.653 -10.111  -0.771  0.00  0.00     0.030 A 
HETATM   13  C           1     -21.107  -7.862  -1.514  0.00  0.00     0.014 A 
HETATM   14  C           1     -21.585  -8.002  -0.206  0.00  0.00     0.001 A 
HETATM   15  C           1     -22.347  -9.111   0.157  0.00  0.00     0.002 A 
ENDBRANCH   5   6
ENDBRANCH   1   5
BRANCH   1  16
HETATM   16  N           1     -20.421  -6.821  -6.750  0.00  0.00    -0.344 N 
HETATM   17  C           1     -20.466  -5.478  -7.014  0.00  0.00     0.249 C 
HETATM   18  O           1     -19.686  -4.730  -6.473  0.00  0.00    -0.271 OA
HETATM   19  H           1     -19.839  -7.428  -7.314  0.00  0.00     0.163 HD
BRANCH  17  20
HETATM   20  C           1     -21.491  -4.933  -7.979  0.00  0.00     0.275 C 
BRANCH  20  21
HETATM   21  N           1     -22.154  -3.731  -7.377  0.00  0.00    -0.066 N 
HETATM   22  H           1     -21.481  -3.240  -6.746  0.00  0.00     0.275 HD
HETATM   23  H           1     -22.454  -3.081  -8.139  0.00  0.00     0.275 HD
HETATM   24  H           1     -22.989  -4.033  -6.827  0.00  0.00     0.275 HD
ENDBRANCH  20  21
BRANCH  20  25
HETATM   25  C           1     -20.804  -4.536  -9.279  0.00  0.00     0.046 C 
BRANCH  25  26
HETATM   26  C           1     -21.780  -3.758 -10.151  0.00  0.00    -0.020 C 
HETATM   27  C           1     -22.900  -4.684 -10.610  0.00  0.00     0.009 C 
HETATM   28  C           1     -21.047  -3.207 -11.367  0.00  0.00     0.009 C 
ENDBRANCH  25  26
ENDBRANCH  20  25
ENDBRANCH  17  20
ENDBRANCH   1  16
TORSDOF 8
ENDMDL
MODEL 6
REMARK VINA RESULT:      -7.6      1.274      2.012
REMARK  8 active torsions:
REMARK  status: ('A' for Active; 'I' for Inactive)
REMARK    1  A    between atoms: C_3  and  C_23 
REMARK    2  A    between atoms: C_5  and  C_21 
REMARK    3  A    between atoms: C_5  and  C_12 
REMARK    4  A    between atoms: C_5  and  N_25 
REMARK       I    between atoms: C_6  and  N_25 
REMARK    5  A    between atoms: C_6  and  C_17 
REMARK    6  A    between atoms: C_9  and  C_12 
REMARK    7  A    between atoms: N_11  and  C_17 
REMARK    8  A    between atoms: C_17  and  C_23 
ROOT
HETATM    1  C           1     -21.715  -6.613  -5.216  0.00  0.00     0.190 C 
ENDROOT
BRANCH   1   2
HETATM    2  C           1     -20.865  -7.859  -5.267  0.00  0.00     0.197 C 
HETATM    3  O           1     -21.367  -8.943  -5.634  0.00  0.00    -0.646 OA
HETATM    4  O           1     -19.660  -7.806  -4.942  0.00  0.00    -0.646 OA
ENDBRANCH   1   2
BRANCH   1   5
HETATM    5  C           1     -20.815  -5.385  -5.178  0.00  0.00     0.077 C 
BRANCH   5   6
HETATM    6  C           1     -20.530  -4.932  -6.577  0.00  0.00    -0.028 A 
HETATM    7  C           1     -19.285  -4.808  -7.151  0.00  0.00     0.096 A 
HETATM    8  N           1     -19.460  -4.366  -8.436  0.00  0.00    -0.365 N 
HETATM    9  H           1     -18.683  -4.181  -9.119  0.00  0.00     0.165 HD
HETATM   10  C           1     -20.800  -4.200  -8.705  0.00  0.00     0.042 A 
HETATM   11  C           1     -21.496  -4.550  -7.548  0.00  0.00    -0.002 A 
HETATM   12  C           1     -21.442  -3.771  -9.872  0.00  0.00     0.030 A 
HETATM   13  C           1     -22.902  -4.468  -7.551  0.00  0.00     0.014 A 
HETATM   14  C           1     -23.560  -4.041  -8.711  0.00  0.00     0.001 A 
HETATM   15  C           1     -22.838  -3.698  -9.853  0.00  0.00     0.002 A 
ENDBRANCH   5   6
ENDBRANCH   1   5
BRANCH   1  16
HETATM   16  N           1     -22.543  -6.641  -4.025  0.00  0.00    -0.344 N 
HETATM   17  C           1     -21.965  -6.547  -2.788  0.00  0.00     0.249 C 
HETATM   18  O           1     -21.799  -5.463  -2.280  0.00  0.00    -0.271 OA
HETATM   19  H           1     -23.547  -6.730  -4.109  0.00  0.00     0.163 HD
BRANCH  17  20
HETATM   20  C           1     -21.535  -7.796  -2.059  0.00  0.00     0.275 C 
BRANCH  20  21
HETATM   21  N           1     -20.040  -7.814  -1.937  0.00  0.00    -0.066 N 
HETATM   22  H           1     -19.732  -7.045  -1.300  0.00  0.00     0.275 HD
HETATM   23  H           1     -19.734  -8.733  -1.545  0.00  0.00     0.275 HD
HETATM   24  H           1     -19.612  -7.676  -2.880  0.00  0.00     0.275 HD
ENDBRANCH  20  21
BRANCH  20  25
HETATM   25  C           1     -22.157  -7.814  -0.669  0.00  0.00     0.046 C 
BRANCH  25  26
HETATM   26  C           1     -22.466  -9.252  -0.270  0.00  0.00    -0.020 C 
HETATM   27  C           1     -21.354  -9.778   0.629  0.00  0.00     0.009 C 
HETATM   28  C           1     -22.561 -10.117  -1.519  0.00  0.00     0.009 C 
ENDBRANCH  25  26
ENDBRANCH  20  25
ENDBRANCH  17  20
ENDBRANCH   1  16
TORSDOF 8
ENDMDL
MODEL 7
REMARK VINA RESULT:      -7.6      2.252      3.261
REMARK  8 active torsions:
REMARK  status: ('A' for Active; 'I' for Inactive)
REMARK    1  A    between atoms: C_3  and  C_23 
REMARK    2  A    between atoms: C_5  and  C_21 
REMARK    3  A    between atoms: C_5  and  C_12 
REMARK    4  A    between atoms: C_5  and  N_25 
REMARK       I    between atoms: C_6  and  N_25 
REMARK    5  A    between atoms: C_6  and  C_17 
REMARK    6  A    between atoms: C_9  and  C_12 
REMARK    7  A    between atoms: N_11  and  C_17 
REMARK    8  A    between atoms: C_17  and  C_23 
ROOT
HETATM    1  C           1     -20.812  -9.260  -4.510  0.00  0.00     0.190 C 
ENDROOT
BRANCH   1   2
HETATM    2  C           1     -20.363 -10.149  -5.644  0.00  0.00     0.197 C 
HETATM    3  O           1     -21.200 -10.837  -6.268  0.00  0.00    -0.646 OA
HETATM    4  O           1     -19.155 -10.196  -5.961  0.00  0.00    -0.646 OA
ENDBRANCH   1   2
BRANCH   1   5
HETATM    5  C           1     -20.104  -7.915  -4.608  0.00  0.00     0.077 C 
BRANCH   5   6
HETATM    6  C           1     -21.033  -6.904  -5.205  0.00  0.00    -0.028 A 
HETATM    7  C           1     -22.367  -6.751  -4.903  0.00  0.00     0.096 A 
HETATM    8  N           1     -22.853  -5.721  -5.665  0.00  0.00    -0.365 N 
HETATM    9  H           1     -23.844  -5.375  -5.646  0.00  0.00     0.165 HD
HETATM   10  C           1     -21.853  -5.201  -6.456  0.00  0.00     0.042 A 
HETATM   11  C           1     -20.695  -5.931  -6.186  0.00  0.00    -0.002 A 
HETATM   12  C           1     -21.885  -4.152  -7.382  0.00  0.00     0.030 A 
HETATM   13  C           1     -19.510  -5.601  -6.870  0.00  0.00     0.014 A 
HETATM   14  C           1     -19.525  -4.554  -7.800  0.00  0.00     0.001 A 
HETATM   15  C           1     -20.697  -3.842  -8.050  0.00  0.00     0.002 A 
ENDBRANCH   5   6
ENDBRANCH   1   5
BRANCH   1  16
HETATM   16  N           1     -20.481  -9.889  -3.245  0.00  0.00    -0.344 N 
HETATM   17  C           1     -21.438 -10.583  -2.555  0.00  0.00     0.249 C 
HETATM   18  O           1     -21.590 -11.764  -2.757  0.00  0.00    -0.271 OA
HETATM   19  H           1     -19.543  -9.814  -2.874  0.00  0.00     0.163 HD
BRANCH  17  20
HETATM   20  C           1     -22.303  -9.872  -1.543  0.00  0.00     0.275 C 
BRANCH  20  21
HETATM   21  N           1     -23.338 -10.820  -1.016  0.00  0.00    -0.066 N 
HETATM   22  H           1     -23.758 -11.355  -1.810  0.00  0.00     0.275 HD
HETATM   23  H           1     -22.891 -11.487  -0.346  0.00  0.00     0.275 HD
HETATM   24  H           1     -24.087 -10.281  -0.526  0.00  0.00     0.275 HD
ENDBRANCH  20  21
BRANCH  20  25
HETATM   25  C           1     -21.436  -9.376  -0.392  0.00  0.00     0.046 C 
BRANCH  25  26
HETATM   26  C           1     -21.840  -7.953  -0.030  0.00  0.00    -0.020 C 
HETATM   27  C           1     -23.150  -7.980   0.747  0.00  0.00     0.009 C 
HETATM   28  C           1     -22.021  -7.137  -1.302  0.00  0.00     0.009 C 
ENDBRANCH  25  26
ENDBRANCH  20  25
ENDBRANCH  17  20
ENDBRANCH   1  16
TORSDOF 8
ENDMDL
MODEL 8
REMARK VINA RESULT:      -7.4      4.162      7.500
REMARK  8 active torsions:
REMARK  status: ('A' for Active; 'I' for Inactive)
REMARK    1  A    between atoms: C_3  and  C_23 
REMARK    2  A    between atoms: C_5  and  C_21 
REMARK    3  A    between atoms: C_5  and  C_12 
REMARK    4  A    between atoms: C_5  and  N_25 
REMARK       I    between atoms: C_6  and  N_25 
REMARK    5  A    between atoms: C_6  and  C_17 
REMARK    6  A    between atoms: C_9  and  C_12 
REMARK    7  A    between atoms: N_11  and  C_17 
REMARK    8  A    between atoms: C_17  and  C_23 
ROOT
HETATM    1  C           1     -21.156  -7.806  -3.551  0.00  0.00     0.190 C 
ENDROOT
BRANCH   1   2
HETATM    2  C           1     -21.598  -6.375  -3.737  0.00  0.00     0.197 C 
HETATM    3  O           1     -21.049  -5.658  -4.600  0.00  0.00    -0.646 OA
HETATM    4  O           1     -22.514  -5.908  -3.027  0.00  0.00    -0.646 OA
ENDBRANCH   1   2
BRANCH   1   5
HETATM    5  C           1     -20.552  -7.975  -2.163  0.00  0.00     0.077 C 
BRANCH   5   6
HETATM    6  C           1     -21.601  -8.480  -1.221  0.00  0.00    -0.028 A 
HETATM    7  C           1     -22.083  -7.818  -0.114  0.00  0.00     0.096 A 
HETATM    8  N           1     -23.026  -8.619   0.474  0.00  0.00    -0.365 N 
HETATM    9  H           1     -23.568  -8.373   1.340  0.00  0.00     0.165 HD
HETATM   10  C           1     -23.164  -9.792  -0.234  0.00  0.00     0.042 A 
HETATM   11  C           1     -22.275  -9.730  -1.307  0.00  0.00    -0.002 A 
HETATM   12  C           1     -23.998 -10.893  -0.008  0.00  0.00     0.030 A 
HETATM   13  C           1     -22.213 -10.816  -2.201  0.00  0.00     0.014 A 
HETATM   14  C           1     -23.041 -11.925  -1.989  0.00  0.00     0.001 A 
HETATM   15  C           1     -23.920 -11.960  -0.907  0.00  0.00     0.002 A 
ENDBRANCH   5   6
ENDBRANCH   1   5
BRANCH   1  16
HETATM   16  N           1     -20.161  -8.138  -4.553  0.00  0.00    -0.344 N 
HETATM   17  C           1     -20.075  -9.415  -5.037  0.00  0.00     0.249 C 
HETATM   18  O           1     -20.720  -9.738  -6.006  0.00  0.00    -0.271 OA
HETATM   19  H           1     -19.530  -7.423  -4.895  0.00  0.00     0.163 HD
BRANCH  17  20
HETATM   20  C           1     -19.176 -10.420  -4.359  0.00  0.00     0.275 C 
BRANCH  20  21
HETATM   21  N           1     -19.126 -11.676  -5.175  0.00  0.00    -0.066 N 
HETATM   22  H           1     -18.768 -12.462  -4.587  0.00  0.00     0.275 HD
HETATM   23  H           1     -20.086 -11.908  -5.517  0.00  0.00     0.275 HD
HETATM   24  H           1     -18.489 -11.535  -5.992  0.00  0.00     0.275 HD
ENDBRANCH  20  21
BRANCH  20  25
HETATM   25  C           1     -17.773  -9.841  -4.230  0.00  0.00     0.046 C 
BRANCH  25  26
HETATM   26  C           1     -17.386  -9.770  -2.758  0.00  0.00    -0.020 C 
HETATM   27  C           1     -15.891 -10.024  -2.615  0.00  0.00     0.009 C 
HETATM   28  C           1     -18.157 -10.827  -1.979  0.00  0.00     0.009 C 
ENDBRANCH  25  26
ENDBRANCH  20  25
ENDBRANCH  17  20
ENDBRANCH   1  16
TORSDOF 8
ENDMDL
MODEL 9
REMARK VINA RESULT:      -7.2      5.113      7.749
REMARK  8 active torsions:
REMARK  status: ('A' for Active; 'I' for Inactive)
REMARK    1  A    between atoms: C_3  and  C_23 
REMARK    2  A    between atoms: C_5  and  C_21 
REMARK    3  A    between atoms: C_5  and  C_12 
REMARK    4  A    between atoms: C_5  and  N_25 
REMARK       I    between atoms: C_6  and  N_25 
REMARK    5  A    between atoms: C_6  and  C_17 
REMARK    6  A    between atoms: C_9  and  C_12 
REMARK    7  A    between atoms: N_11  and  C_17 
REMARK    8  A    between atoms: C_17  and  C_23 
ROOT
HETATM    1  C           1     -19.403 -10.118  -4.822  0.00  0.00     0.190 C 
ENDROOT
BRANCH   1   2
HETATM    2  C           1     -20.815 -10.006  -5.342  0.00  0.00     0.197 C 
HETATM    3  O           1     -21.613 -10.956  -5.192  0.00  0.00    -0.646 OA
HETATM    4  O           1     -21.187  -8.964  -5.922  0.00  0.00    -0.646 OA
ENDBRANCH   1   2
BRANCH   1   5
HETATM    5  C           1     -19.135  -8.991  -3.833  0.00  0.00     0.077 C 
BRANCH   5   6
HETATM    6  C           1     -19.809  -9.299  -2.531  0.00  0.00    -0.028 A 
HETATM    7  C           1     -19.615 -10.427  -1.766  0.00  0.00     0.096 A 
HETATM    8  N           1     -20.417 -10.323  -0.659  0.00  0.00    -0.365 N 
HETATM    9  H           1     -20.478 -11.039   0.107  0.00  0.00     0.165 HD
HETATM   10  C           1     -21.128  -9.145  -0.694  0.00  0.00     0.042 A 
HETATM   11  C           1     -20.763  -8.481  -1.866  0.00  0.00    -0.002 A 
HETATM   12  C           1     -22.058  -8.622   0.211  0.00  0.00     0.030 A 
HETATM   13  C           1     -21.353  -7.234  -2.151  0.00  0.00     0.014 A 
HETATM   14  C           1     -22.285  -6.697  -1.255  0.00  0.00     0.001 A 
HETATM   15  C           1     -22.630  -7.383  -0.092  0.00  0.00     0.002 A 
ENDBRANCH   5   6
ENDBRANCH   1   5
BRANCH   1  16
HETATM   16  N           1     -18.471 -10.018  -5.930  0.00  0.00    -0.344 N 
HETATM   17  C           1     -17.860 -11.142  -6.414  0.00  0.00     0.249 C 
HETATM   18  O           1     -18.379 -11.777  -7.302  0.00  0.00    -0.271 OA
HETATM   19  H           1     -18.275  -9.116  -6.345  0.00  0.00     0.163 HD
BRANCH  17  20
HETATM   20  C           1     -16.539 -11.590  -5.838  0.00  0.00     0.275 C 
BRANCH  20  21
HETATM   21  N           1     -15.672 -12.129  -6.936  0.00  0.00    -0.066 N 
HETATM   22  H           1     -15.389 -13.109  -6.710  0.00  0.00     0.275 HD
HETATM   23  H           1     -16.204 -12.119  -7.836  0.00  0.00     0.275 HD
HETATM   24  H           1     -14.818 -11.533  -7.029  0.00  0.00     0.275 HD
ENDBRANCH  20  21
BRANCH  20  25
HETATM   25  C           1     -15.845 -10.406  -5.178  0.00  0.00     0.046 C 
BRANCH  25  26
HETATM   26  C           1     -15.546 -10.740  -3.721  0.00  0.00    -0.020 C 
HETATM   27  C           1     -16.363 -11.956  -3.303  0.00  0.00     0.009 C 
HETATM   28  C           1     -15.916  -9.553  -2.842  0.00  0.00     0.009 C 
ENDBRANCH  25  26
ENDBRANCH  20  25
ENDBRANCH  17  20
ENDBRANCH   1  16
TORSDOF 8
ENDMDL
