MODEL 1
REMARK VINA RESULT:      -6.5      0.000      0.000
REMARK  8 active torsions:
REMARK  status: ('A' for Active; 'I' for Inactive)
REMARK    1  A    between atoms: C_1  and  C_8 
REMARK    2  A    between atoms: C_1  and  C_2 
REMARK    3  A    between atoms: C_1  and  N_11 
REMARK    4  A    between atoms: C_2  and  C_18 
REMARK    5  A    between atoms: C_3  and  C_4 
REMARK    6  A    between atoms: C_4  and  C_5 
REMARK    7  A    between atoms: C_5  and  C_6 
REMARK    8  A    between atoms: C_5  and  N_13 
REMARK       I    between atoms: C_8  and  N_13 
ROOT
HETATM    1  C           1     -34.063  -2.572 -11.741  0.00  0.00     0.249 C 
HETATM    2  O           1     -33.451  -1.972 -10.891  0.00  0.00    -0.271 OA
HETATM    3  N           1     -34.975  -1.912 -12.521  0.00  0.00    -0.344 N 
HETATM    4  H           1     -35.488  -2.414 -13.235  0.00  0.00     0.163 HD
ENDROOT
BRANCH   1   5
HETATM    5  C           1     -33.825  -4.048 -11.944  0.00  0.00     0.278 C 
BRANCH   5   6
HETATM    6  C           1     -34.303  -4.813 -10.717  0.00  0.00     0.021 C 
HETATM    7  C           1     -35.811  -4.647 -10.571  0.00  0.00     0.012 C 
BRANCH   6   8
HETATM    8  C           1     -33.970  -6.290 -10.880  0.00  0.00     0.002 C 
HETATM    9  C           1     -34.790  -7.108  -9.890  0.00  0.00     0.005 C 
ENDBRANCH   6   8
ENDBRANCH   5   6
BRANCH   5  10
HETATM   10  N           1     -32.359  -4.294 -12.147  0.00  0.00    -0.066 N 
HETATM   11  H           1     -32.101  -5.219 -11.735  0.00  0.00     0.275 HD
HETATM   12  H           1     -32.145  -4.297 -13.170  0.00  0.00     0.275 HD
HETATM   13  H           1     -31.812  -3.538 -11.677  0.00  0.00     0.275 HD
ENDBRANCH   5  10
ENDBRANCH   1   5
BRANCH   3  14
HETATM   14  C           1     -35.203  -0.493 -12.328  0.00  0.00     0.189 C 
BRANCH  14  15
HETATM   15  C           1     -35.566   0.149 -13.660  0.00  0.00     0.014 C 
HETATM   16  C           1     -34.597   1.287 -13.954  0.00  0.00     0.012 C 
BRANCH  15  17
HETATM   17  C           1     -35.475  -0.894 -14.766  0.00  0.00     0.002 C 
HETATM   18  C           1     -36.084  -0.334 -16.045  0.00  0.00     0.005 C 
ENDBRANCH  15  17
ENDBRANCH  14  15
BRANCH  14  19
HETATM   19  C           1     -36.336  -0.297 -11.350  0.00  0.00     0.197 C 
HETATM   20  O           1     -36.271   0.610 -10.493  0.00  0.00    -0.646 OA
HETATM   21  O           1     -37.339  -1.042 -11.397  0.00  0.00    -0.646 OA
ENDBRANCH  14  19
ENDBRANCH   3  14
TORSDOF 8
ENDMDL
MODEL 2
REMARK VINA RESULT:      -6.1     12.295     13.818
REMARK  8 active torsions:
REMARK  status: ('A' for Active; 'I' for Inactive)
REMARK    1  A    between atoms: C_1  and  C_8 
REMARK    2  A    between atoms: C_1  and  C_2 
REMARK    3  A    between atoms: C_1  and  N_11 
REMARK    4  A    between atoms: C_2  and  C_18 
REMARK    5  A    between atoms: C_3  and  C_4 
REMARK    6  A    between atoms: C_4  and  C_5 
REMARK    7  A    between atoms: C_5  and  C_6 
REMARK    8  A    between atoms: C_5  and  N_13 
REMARK       I    between atoms: C_8  and  N_13 
ROOT
HETATM    1  C           1     -21.517  -4.586  -8.048  0.00  0.00     0.249 C 
HETATM    2  O           1     -21.470  -3.457  -7.621  0.00  0.00    -0.271 OA
HETATM    3  N           1     -22.206  -4.853  -9.201  0.00  0.00    -0.344 N 
HETATM    4  H           1     -22.246  -5.799  -9.559  0.00  0.00     0.163 HD
ENDROOT
BRANCH   1   5
HETATM    5  C           1     -20.817  -5.701  -7.312  0.00  0.00     0.278 C 
BRANCH   5   6
HETATM    6  C           1     -21.555  -5.996  -6.013  0.00  0.00     0.021 C 
HETATM    7  C           1     -21.639  -7.503  -5.807  0.00  0.00     0.012 C 
BRANCH   6   8
HETATM    8  C           1     -20.803  -5.366  -4.848  0.00  0.00     0.002 C 
HETATM    9  C           1     -21.213  -6.049  -3.550  0.00  0.00     0.005 C 
ENDBRANCH   6   8
ENDBRANCH   5   6
BRANCH   5  10
HETATM   10  N           1     -19.408  -5.289  -7.004  0.00  0.00    -0.066 N 
HETATM   11  H           1     -19.419  -4.467  -6.360  0.00  0.00     0.275 HD
HETATM   12  H           1     -18.905  -6.083  -6.547  0.00  0.00     0.275 HD
HETATM   13  H           1     -18.920  -5.031  -7.891  0.00  0.00     0.275 HD
ENDBRANCH   5  10
ENDBRANCH   1   5
BRANCH   3  14
HETATM   14  C           1     -22.878  -3.781  -9.909  0.00  0.00     0.189 C 
BRANCH  14  15
HETATM   15  C           1     -22.567  -3.882 -11.396  0.00  0.00     0.014 C 
HETATM   16  C           1     -22.967  -2.585 -12.086  0.00  0.00     0.012 C 
BRANCH  15  17
HETATM   17  C           1     -21.075  -4.120 -11.586  0.00  0.00     0.002 C 
HETATM   18  C           1     -20.311  -2.844 -11.262  0.00  0.00     0.005 C 
ENDBRANCH  15  17
ENDBRANCH  14  15
BRANCH  14  19
HETATM   19  C           1     -24.368  -3.897  -9.697  0.00  0.00     0.197 C 
HETATM   20  O           1     -25.042  -2.880  -9.430  0.00  0.00    -0.646 OA
HETATM   21  O           1     -24.928  -5.011  -9.791  0.00  0.00    -0.646 OA
ENDBRANCH  14  19
ENDBRANCH   3  14
TORSDOF 8
ENDMDL
MODEL 3
REMARK VINA RESULT:      -5.9     14.176     16.769
REMARK  8 active torsions:
REMARK  status: ('A' for Active; 'I' for Inactive)
REMARK    1  A    between atoms: C_1  and  C_8 
REMARK    2  A    between atoms: C_1  and  C_2 
REMARK    3  A    between atoms: C_1  and  N_11 
REMARK    4  A    between atoms: C_2  and  C_18 
REMARK    5  A    between atoms: C_3  and  C_4 
REMARK    6  A    between atoms: C_4  and  C_5 
REMARK    7  A    between atoms: C_5  and  C_6 
REMARK    8  A    between atoms: C_5  and  N_13 
REMARK       I    between atoms: C_8  and  N_13 
ROOT
HETATM    1  C           1     -20.964  -5.321  -6.252  0.00  0.00     0.249 C 
HETATM    2  O           1     -19.865  -4.898  -5.983  0.00  0.00    -0.271 OA
HETATM    3  N           1     -21.394  -6.500  -5.707  0.00  0.00    -0.344 N 
HETATM    4  H           1     -22.315  -6.855  -5.931  0.00  0.00     0.163 HD
ENDROOT
BRANCH   1   5
HETATM    5  C           1     -21.861  -4.550  -7.189  0.00  0.00     0.278 C 
BRANCH   5   6
HETATM    6  C           1     -21.652  -5.044  -8.614  0.00  0.00     0.021 C 
HETATM    7  C           1     -22.843  -4.636  -9.472  0.00  0.00     0.012 C 
BRANCH   6   8
HETATM    8  C           1     -20.382  -4.425  -9.184  0.00  0.00     0.002 C 
HETATM    9  C           1     -20.554  -4.199 -10.681  0.00  0.00     0.005 C 
ENDBRANCH   6   8
ENDBRANCH   5   6
BRANCH   5  10
HETATM   10  N           1     -21.527  -3.090  -7.111  0.00  0.00    -0.066 N 
HETATM   11  H           1     -21.058  -2.792  -7.996  0.00  0.00     0.275 HD
HETATM   12  H           1     -22.405  -2.539  -6.980  0.00  0.00     0.275 HD
HETATM   13  H           1     -20.886  -2.923  -6.303  0.00  0.00     0.275 HD
ENDBRANCH   5  10
ENDBRANCH   1   5
BRANCH   3  14
HETATM   14  C           1     -20.533  -7.241  -4.806  0.00  0.00     0.189 C 
BRANCH  14  15
HETATM   15  C           1     -21.271  -7.505  -3.500  0.00  0.00     0.014 C 
HETATM   16  C           1     -20.405  -8.372  -2.596  0.00  0.00     0.012 C 
BRANCH  15  17
HETATM   17  C           1     -21.563  -6.181  -2.807  0.00  0.00     0.002 C 
HETATM   18  C           1     -22.292  -6.443  -1.495  0.00  0.00     0.005 C 
ENDBRANCH  15  17
ENDBRANCH  14  15
BRANCH  14  19
HETATM   19  C           1     -20.152  -8.555  -5.443  0.00  0.00     0.197 C 
HETATM   20  O           1     -18.949  -8.821  -5.654  0.00  0.00    -0.646 OA
HETATM   21  O           1     -21.039  -9.377  -5.759  0.00  0.00    -0.646 OA
ENDBRANCH  14  19
ENDBRANCH   3  14
TORSDOF 8
ENDMDL
MODEL 4
REMARK VINA RESULT:      -5.8      1.720      6.007
REMARK  8 active torsions:
REMARK  status: ('A' for Active; 'I' for Inactive)
REMARK    1  A    between atoms: C_1  and  C_8 
REMARK    2  A    between atoms: C_1  and  C_2 
REMARK    3  A    between atoms: C_1  and  N_11 
REMARK    4  A    between atoms: C_2  and  C_18 
REMARK    5  A    between atoms: C_3  and  C_4 
REMARK    6  A    between atoms: C_4  and  C_5 
REMARK    7  A    between atoms: C_5  and  C_6 
REMARK    8  A    between atoms: C_5  and  N_13 
REMARK       I    between atoms: C_8  and  N_13 
ROOT
HETATM    1  C           1     -35.311  -1.777 -11.053  0.00  0.00     0.249 C 
HETATM    2  O           1     -34.515  -1.514 -10.184  0.00  0.00    -0.271 OA
HETATM    3  N           1     -35.290  -3.009 -11.650  0.00  0.00    -0.344 N 
HETATM    4  H           1     -35.957  -3.230 -12.378  0.00  0.00     0.163 HD
ENDROOT
BRANCH   1   5
HETATM    5  C           1     -36.328  -0.748 -11.481  0.00  0.00     0.278 C 
BRANCH   5   6
HETATM    6  C           1     -36.165  -0.460 -12.968  0.00  0.00     0.021 C 
HETATM    7  C           1     -37.509  -0.045 -13.555  0.00  0.00     0.012 C 
BRANCH   6   8
HETATM    8  C           1     -35.159   0.667 -13.159  0.00  0.00     0.002 C 
HETATM    9  C           1     -34.865   0.839 -14.643  0.00  0.00     0.005 C 
ENDBRANCH   6   8
ENDBRANCH   5   6
BRANCH   5  10
HETATM   10  N           1     -36.119   0.516 -10.701  0.00  0.00    -0.066 N 
HETATM   11  H           1     -35.566   1.192 -11.275  0.00  0.00     0.275 HD
HETATM   12  H           1     -37.046   0.936 -10.464  0.00  0.00     0.275 HD
HETATM   13  H           1     -35.598   0.299  -9.822  0.00  0.00     0.275 HD
ENDBRANCH   5  10
ENDBRANCH   1   5
BRANCH   3  14
HETATM   14  C           1     -34.313  -3.998 -11.238  0.00  0.00     0.189 C 
BRANCH  14  15
HETATM   15  C           1     -35.004  -5.340 -11.036  0.00  0.00     0.014 C 
HETATM   16  C           1     -35.104  -6.064 -12.372  0.00  0.00     0.012 C 
BRANCH  15  17
HETATM   17  C           1     -34.196  -6.184 -10.059  0.00  0.00     0.002 C 
HETATM   18  C           1     -34.714  -7.616 -10.075  0.00  0.00     0.005 C 
ENDBRANCH  15  17
ENDBRANCH  14  15
BRANCH  14  19
HETATM   19  C           1     -33.255  -4.133 -12.306  0.00  0.00     0.197 C 
HETATM   20  O           1     -32.123  -4.572 -12.011  0.00  0.00    -0.646 OA
HETATM   21  O           1     -33.512  -3.806 -13.485  0.00  0.00    -0.646 OA
ENDBRANCH  14  19
ENDBRANCH   3  14
TORSDOF 8
ENDMDL
MODEL 5
REMARK VINA RESULT:      -5.6     14.358     16.940
REMARK  8 active torsions:
REMARK  status: ('A' for Active; 'I' for Inactive)
REMARK    1  A    between atoms: C_1  and  C_8 
REMARK    2  A    between atoms: C_1  and  C_2 
REMARK    3  A    between atoms: C_1  and  N_11 
REMARK    4  A    between atoms: C_2  and  C_18 
REMARK    5  A    between atoms: C_3  and  C_4 
REMARK    6  A    between atoms: C_4  and  C_5 
REMARK    7  A    between atoms: C_5  and  C_6 
REMARK    8  A    between atoms: C_5  and  N_13 
REMARK       I    between atoms: C_8  and  N_13 
ROOT
HETATM    1  C           1     -21.659  -5.670  -5.597  0.00  0.00     0.249 C 
HETATM    2  O           1     -22.861  -5.787  -5.607  0.00  0.00    -0.271 OA
HETATM    3  N           1     -20.902  -6.457  -4.771  0.00  0.00    -0.344 N 
HETATM    4  H           1     -19.895  -6.359  -4.763  0.00  0.00     0.163 HD
ENDROOT
BRANCH   1   5
HETATM    5  C           1     -20.992  -4.657  -6.494  0.00  0.00     0.278 C 
BRANCH   5   6
HETATM    6  C           1     -21.368  -4.935  -7.943  0.00  0.00     0.021 C 
HETATM    7  C           1     -22.354  -3.877  -8.424  0.00  0.00     0.012 C 
BRANCH   6   8
HETATM    8  C           1     -20.116  -4.891  -8.810  0.00  0.00     0.002 C 
HETATM    9  C           1     -20.469  -4.335 -10.184  0.00  0.00     0.005 C 
ENDBRANCH   6   8
ENDBRANCH   5   6
BRANCH   5  10
HETATM   10  N           1     -19.503  -4.754  -6.337  0.00  0.00    -0.066 N 
HETATM   11  H           1     -19.274  -5.019  -5.352  0.00  0.00     0.275 HD
HETATM   12  H           1     -19.131  -5.480  -6.989  0.00  0.00     0.275 HD
HETATM   13  H           1     -19.070  -3.829  -6.558  0.00  0.00     0.275 HD
ENDBRANCH   5  10
ENDBRANCH   1   5
BRANCH   3  14
HETATM   14  C           1     -21.543  -7.431  -3.910  0.00  0.00     0.189 C 
BRANCH  14  15
HETATM   15  C           1     -20.730  -8.719  -3.908  0.00  0.00     0.014 C 
HETATM   16  C           1     -21.601  -9.867  -4.399  0.00  0.00     0.012 C 
BRANCH  15  17
HETATM   17  C           1     -19.529  -8.561  -4.830  0.00  0.00     0.002 C 
HETATM   18  C           1     -18.359  -9.371  -4.286  0.00  0.00     0.005 C 
ENDBRANCH  15  17
ENDBRANCH  14  15
BRANCH  14  19
HETATM   19  C           1     -21.621  -6.884  -2.505  0.00  0.00     0.197 C 
HETATM   20  O           1     -22.394  -5.936  -2.247  0.00  0.00    -0.646 OA
HETATM   21  O           1     -20.914  -7.378  -1.601  0.00  0.00    -0.646 OA
ENDBRANCH  14  19
ENDBRANCH   3  14
TORSDOF 8
ENDMDL
MODEL 6
REMARK VINA RESULT:      -5.6      2.424      5.344
REMARK  8 active torsions:
REMARK  status: ('A' for Active; 'I' for Inactive)
REMARK    1  A    between atoms: C_1  and  C_8 
REMARK    2  A    between atoms: C_1  and  C_2 
REMARK    3  A    between atoms: C_1  and  N_11 
REMARK    4  A    between atoms: C_2  and  C_18 
REMARK    5  A    between atoms: C_3  and  C_4 
REMARK    6  A    between atoms: C_4  and  C_5 
REMARK    7  A    between atoms: C_5  and  C_6 
REMARK    8  A    between atoms: C_5  and  N_13 
REMARK       I    between atoms: C_8  and  N_13 
ROOT
HETATM    1  C           1     -35.876  -0.343 -11.767  0.00  0.00     0.249 C 
HETATM    2  O           1     -34.995   0.438 -12.036  0.00  0.00    -0.271 OA
HETATM    3  N           1     -35.724  -1.672 -12.059  0.00  0.00    -0.344 N 
HETATM    4  H           1     -36.462  -2.327 -11.834  0.00  0.00     0.163 HD
ENDROOT
BRANCH   1   5
HETATM    5  C           1     -37.142   0.145 -11.109  0.00  0.00     0.278 C 
BRANCH   5   6
HETATM    6  C           1     -36.807   0.774  -9.764  0.00  0.00     0.021 C 
HETATM    7  C           1     -37.980   1.628  -9.296  0.00  0.00     0.012 C 
BRANCH   6   8
HETATM    8  C           1     -36.542  -0.325  -8.742  0.00  0.00     0.002 C 
HETATM    9  C           1     -37.339  -0.043  -7.475  0.00  0.00     0.005 C 
ENDBRANCH   6   8
ENDBRANCH   5   6
BRANCH   5  10
HETATM   10  N           1     -38.075  -1.012 -10.902  0.00  0.00    -0.066 N 
HETATM   11  H           1     -37.941  -1.399  -9.941  0.00  0.00     0.275 HD
HETATM   12  H           1     -39.062  -0.688 -11.013  0.00  0.00     0.275 HD
HETATM   13  H           1     -37.869  -1.755 -11.608  0.00  0.00     0.275 HD
ENDBRANCH   5  10
ENDBRANCH   1   5
BRANCH   3  14
HETATM   14  C           1     -34.506  -2.142 -12.691  0.00  0.00     0.189 C 
BRANCH  14  15
HETATM   15  C           1     -33.974  -3.349 -11.931  0.00  0.00     0.014 C 
HETATM   16  C           1     -32.855  -2.907 -10.997  0.00  0.00     0.012 C 
BRANCH  15  17
HETATM   17  C           1     -35.100  -3.972 -11.116  0.00  0.00     0.002 C 
HETATM   18  C           1     -34.667  -5.344 -10.615  0.00  0.00     0.005 C 
ENDBRANCH  15  17
ENDBRANCH  14  15
BRANCH  14  19
HETATM   19  C           1     -34.800  -2.535 -14.118  0.00  0.00     0.197 C 
HETATM   20  O           1     -34.536  -3.691 -14.514  0.00  0.00    -0.646 OA
HETATM   21  O           1     -35.308  -1.705 -14.903  0.00  0.00    -0.646 OA
ENDBRANCH  14  19
ENDBRANCH   3  14
TORSDOF 8
ENDMDL
MODEL 7
REMARK VINA RESULT:      -5.5     16.366     18.238
REMARK  8 active torsions:
REMARK  status: ('A' for Active; 'I' for Inactive)
REMARK    1  A    between atoms: C_1  and  C_8 
REMARK    2  A    between atoms: C_1  and  C_2 
REMARK    3  A    between atoms: C_1  and  N_11 
REMARK    4  A    between atoms: C_2  and  C_18 
REMARK    5  A    between atoms: C_3  and  C_4 
REMARK    6  A    between atoms: C_4  and  C_5 
REMARK    7  A    between atoms: C_5  and  C_6 
REMARK    8  A    between atoms: C_5  and  N_13 
REMARK       I    between atoms: C_8  and  N_13 
ROOT
HETATM    1  C           1     -21.855 -10.318  -2.927  0.00  0.00     0.249 C 
HETATM    2  O           1     -22.545 -10.578  -3.883  0.00  0.00    -0.271 OA
HETATM    3  N           1     -20.878  -9.364  -3.029  0.00  0.00    -0.344 N 
HETATM    4  H           1     -20.299  -9.145  -2.228  0.00  0.00     0.163 HD
ENDROOT
BRANCH   1   5
HETATM    5  C           1     -22.068 -11.043  -1.622  0.00  0.00     0.278 C 
BRANCH   5   6
HETATM    6  C           1     -23.067 -10.272  -0.769  0.00  0.00     0.021 C 
HETATM    7  C           1     -23.945 -11.254  -0.003  0.00  0.00     0.012 C 
BRANCH   6   8
HETATM    8  C           1     -22.316  -9.389   0.218  0.00  0.00     0.002 C 
HETATM    9  C           1     -23.161  -8.166   0.552  0.00  0.00     0.005 C 
ENDBRANCH   6   8
ENDBRANCH   5   6
BRANCH   5  10
HETATM   10  N           1     -20.763 -11.148  -0.890  0.00  0.00    -0.066 N 
HETATM   11  H           1     -20.018 -11.468  -1.550  0.00  0.00     0.275 HD
HETATM   12  H           1     -20.505 -10.214  -0.500  0.00  0.00     0.275 HD
HETATM   13  H           1     -20.856 -11.839  -0.111  0.00  0.00     0.275 HD
ENDBRANCH   5  10
ENDBRANCH   1   5
BRANCH   3  14
HETATM   14  C           1     -20.673  -8.666  -4.283  0.00  0.00     0.189 C 
BRANCH  14  15
HETATM   15  C           1     -20.908  -7.175  -4.079  0.00  0.00     0.014 C 
HETATM   16  C           1     -22.229  -6.777  -4.723  0.00  0.00     0.012 C 
BRANCH  15  17
HETATM   17  C           1     -20.957  -6.871  -2.588  0.00  0.00     0.002 C 
HETATM   18  C           1     -22.230  -6.098  -2.268  0.00  0.00     0.005 C 
ENDBRANCH  15  17
ENDBRANCH  14  15
BRANCH  14  19
HETATM   19  C           1     -19.259  -8.892  -4.758  0.00  0.00     0.197 C 
HETATM   20  O           1     -18.972  -8.736  -5.965  0.00  0.00    -0.646 OA
HETATM   21  O           1     -18.374  -9.235  -3.945  0.00  0.00    -0.646 OA
ENDBRANCH  14  19
ENDBRANCH   3  14
TORSDOF 8
ENDMDL
MODEL 8
REMARK VINA RESULT:      -5.3     17.616     19.389
REMARK  8 active torsions:
REMARK  status: ('A' for Active; 'I' for Inactive)
REMARK    1  A    between atoms: C_1  and  C_8 
REMARK    2  A    between atoms: C_1  and  C_2 
REMARK    3  A    between atoms: C_1  and  N_11 
REMARK    4  A    between atoms: C_2  and  C_18 
REMARK    5  A    between atoms: C_3  and  C_4 
REMARK    6  A    between atoms: C_4  and  C_5 
REMARK    7  A    between atoms: C_5  and  C_6 
REMARK    8  A    between atoms: C_5  and  N_13 
REMARK       I    between atoms: C_8  and  N_13 
ROOT
HETATM    1  C           1     -19.909 -10.780  -1.458  0.00  0.00     0.249 C 
HETATM    2  O           1     -19.701 -11.304  -0.390  0.00  0.00    -0.271 OA
HETATM    3  N           1     -21.043 -10.036  -1.646  0.00  0.00    -0.344 N 
HETATM    4  H           1     -21.217  -9.597  -2.540  0.00  0.00     0.163 HD
ENDROOT
BRANCH   1   5
HETATM    5  C           1     -18.920 -10.945  -2.585  0.00  0.00     0.278 C 
BRANCH   5   6
HETATM    6  C           1     -18.463  -9.574  -3.065  0.00  0.00     0.021 C 
HETATM    7  C           1     -16.952  -9.457  -2.903  0.00  0.00     0.012 C 
BRANCH   6   8
HETATM    8  C           1     -18.829  -9.404  -4.534  0.00  0.00     0.002 C 
HETATM    9  C           1     -19.826  -8.261  -4.679  0.00  0.00     0.005 C 
ENDBRANCH   6   8
ENDBRANCH   5   6
BRANCH   5  10
HETATM   10  N           1     -19.572 -11.680  -3.718  0.00  0.00    -0.066 N 
HETATM   11  H           1     -20.291 -12.337  -3.339  0.00  0.00     0.275 HD
HETATM   12  H           1     -20.031 -10.995  -4.360  0.00  0.00     0.275 HD
HETATM   13  H           1     -18.849 -12.221  -4.243  0.00  0.00     0.275 HD
ENDBRANCH   5  10
ENDBRANCH   1   5
BRANCH   3  14
HETATM   14  C           1     -21.994  -9.877  -0.562  0.00  0.00     0.189 C 
BRANCH  14  15
HETATM   15  C           1     -22.309  -8.398  -0.378  0.00  0.00     0.014 C 
HETATM   16  C           1     -22.011  -7.992   1.059  0.00  0.00     0.012 C 
BRANCH  15  17
HETATM   17  C           1     -21.450  -7.575  -1.328  0.00  0.00     0.002 C 
HETATM   18  C           1     -22.226  -6.345  -1.780  0.00  0.00     0.005 C 
ENDBRANCH  15  17
ENDBRANCH  14  15
BRANCH  14  19
HETATM   19  C           1     -23.262 -10.625  -0.894  0.00  0.00     0.197 C 
HETATM   20  O           1     -24.173 -10.716  -0.044  0.00  0.00    -0.646 OA
HETATM   21  O           1     -23.401 -11.151  -2.019  0.00  0.00    -0.646 OA
ENDBRANCH  14  19
ENDBRANCH   3  14
TORSDOF 8
ENDMDL
MODEL 9
REMARK VINA RESULT:      -5.3     16.070     17.929
REMARK  8 active torsions:
REMARK  status: ('A' for Active; 'I' for Inactive)
REMARK    1  A    between atoms: C_1  and  C_8 
REMARK    2  A    between atoms: C_1  and  C_2 
REMARK    3  A    between atoms: C_1  and  N_11 
REMARK    4  A    between atoms: C_2  and  C_18 
REMARK    5  A    between atoms: C_3  and  C_4 
REMARK    6  A    between atoms: C_4  and  C_5 
REMARK    7  A    between atoms: C_5  and  C_6 
REMARK    8  A    between atoms: C_5  and  N_13 
REMARK       I    between atoms: C_8  and  N_13 
ROOT
HETATM    1  C           1     -21.310  -8.465  -2.252  0.00  0.00     0.249 C 
HETATM    2  O           1     -21.675  -9.593  -2.481  0.00  0.00    -0.271 OA
HETATM    3  N           1     -20.830  -7.682  -3.268  0.00  0.00    -0.344 N 
HETATM    4  H           1     -20.525  -6.736  -3.077  0.00  0.00     0.163 HD
ENDROOT
BRANCH   1   5
HETATM    5  C           1     -21.382  -7.918  -0.848  0.00  0.00     0.278 C 
BRANCH   5   6
HETATM    6  C           1     -21.767  -9.034   0.114  0.00  0.00     0.021 C 
HETATM    7  C           1     -21.050  -8.831   1.442  0.00  0.00     0.012 C 
BRANCH   6   8
HETATM    8  C           1     -23.273  -9.010   0.342  0.00  0.00     0.002 C 
HETATM    9  C           1     -23.862 -10.372  -0.003  0.00  0.00     0.005 C 
ENDBRANCH   6   8
ENDBRANCH   5   6
BRANCH   5  10
HETATM   10  N           1     -22.411  -6.829  -0.788  0.00  0.00    -0.066 N 
HETATM   11  H           1     -22.455  -6.444   0.183  0.00  0.00     0.275 HD
HETATM   12  H           1     -22.152  -6.067  -1.454  0.00  0.00     0.275 HD
HETATM   13  H           1     -23.345  -7.219  -1.050  0.00  0.00     0.275 HD
ENDBRANCH   5  10
ENDBRANCH   1   5
BRANCH   3  14
HETATM   14  C           1     -20.762  -8.207  -4.618  0.00  0.00     0.189 C 
BRANCH  14  15
HETATM   15  C           1     -21.133  -7.111  -5.607  0.00  0.00     0.014 C 
HETATM   16  C           1     -22.510  -6.560  -5.260  0.00  0.00     0.012 C 
BRANCH  15  17
HETATM   17  C           1     -20.104  -5.991  -5.533  0.00  0.00     0.002 C 
HETATM   18  C           1     -20.673  -4.733  -6.176  0.00  0.00     0.005 C 
ENDBRANCH  15  17
ENDBRANCH  14  15
BRANCH  14  19
HETATM   19  C           1     -19.359  -8.685  -4.899  0.00  0.00     0.197 C 
HETATM   20  O           1     -18.986  -8.867  -6.078  0.00  0.00    -0.646 OA
HETATM   21  O           1     -18.569  -8.899  -3.954  0.00  0.00    -0.646 OA
ENDBRANCH  14  19
ENDBRANCH   3  14
TORSDOF 8
ENDMDL
