MODEL 1
REMARK VINA RESULT:      -5.8      0.000      0.000
REMARK  8 active torsions:
REMARK  status: ('A' for Active; 'I' for Inactive)
REMARK    1  A    between atoms: N_4  and  C_12 
REMARK    2  A    between atoms: C_7  and  C_8 
REMARK    3  A    between atoms: C_8  and  C_12 
REMARK    4  A    between atoms: S_10  and  C_14 
REMARK    5  A    between atoms: N_11  and  C_15 
REMARK       I    between atoms: N_11  and  C_19 
REMARK    6  A    between atoms: C_12  and  C_19 
REMARK    7  A    between atoms: C_14  and  C_15 
REMARK    8  A    between atoms: C_15  and  C_18 
ROOT
HETATM    1  H           1     -22.189  -5.627  -9.341  0.00  0.00     0.163 HD
HETATM    2  O           1     -21.755  -3.557  -7.025  0.00  0.00    -0.271 OA
HETATM    3  N           1     -22.219  -4.735  -8.864  0.00  0.00    -0.344 N 
HETATM    4  C           1     -21.719  -4.620  -7.595  0.00  0.00     0.249 C 
ENDROOT
BRANCH   4   5
HETATM    5  C           1     -21.122  -5.824  -6.908  0.00  0.00     0.275 C 
BRANCH   5   6
HETATM    6  N           1     -19.815  -6.173  -7.556  0.00  0.00    -0.066 N 
HETATM    7  H           1     -19.994  -6.641  -8.474  0.00  0.00     0.275 HD
HETATM    8  H           1     -19.261  -5.301  -7.712  0.00  0.00     0.275 HD
HETATM    9  H           1     -19.280  -6.820  -6.934  0.00  0.00     0.275 HD
ENDBRANCH   5   6
BRANCH   5  10
HETATM   10  C           1     -20.890  -5.507  -5.437  0.00  0.00     0.046 C 
BRANCH  10  11
HETATM   11  C           1     -21.790  -6.384  -4.579  0.00  0.00    -0.020 C 
HETATM   12  C           1     -21.437  -6.190  -3.111  0.00  0.00     0.009 C 
HETATM   13  C           1     -21.588  -7.845  -4.959  0.00  0.00     0.009 C 
ENDBRANCH  10  11
ENDBRANCH   5  10
ENDBRANCH   4   5
BRANCH   3  14
HETATM   14  C           1     -22.792  -3.579  -9.525  0.00  0.00     0.194 C 
BRANCH  14  15
HETATM   15  C           1     -22.151  -3.407 -10.895  0.00  0.00     0.106 C 
BRANCH  15  16
HETATM   16  S           1     -20.537  -4.237 -10.918  0.00  0.00    -0.180 SA
HETATM   17  H           1     -19.836  -3.169 -11.338  0.00  0.00     0.101 HD
ENDBRANCH  15  16
ENDBRANCH  14  15
BRANCH  14  18
HETATM   18  C           1     -24.279  -3.779  -9.686  0.00  0.00     0.197 C 
HETATM   19  O           1     -24.732  -4.913  -9.951  0.00  0.00    -0.646 OA
HETATM   20  O           1     -25.058  -2.810  -9.556  0.00  0.00    -0.646 OA
ENDBRANCH  14  18
ENDBRANCH   3  14
TORSDOF 8
ENDMDL
MODEL 2
REMARK VINA RESULT:      -5.3     18.465     20.303
REMARK  8 active torsions:
REMARK  status: ('A' for Active; 'I' for Inactive)
REMARK    1  A    between atoms: N_4  and  C_12 
REMARK    2  A    between atoms: C_7  and  C_8 
REMARK    3  A    between atoms: C_8  and  C_12 
REMARK    4  A    between atoms: S_10  and  C_14 
REMARK    5  A    between atoms: N_11  and  C_15 
REMARK       I    between atoms: N_11  and  C_19 
REMARK    6  A    between atoms: C_12  and  C_19 
REMARK    7  A    between atoms: C_14  and  C_15 
REMARK    8  A    between atoms: C_15  and  C_18 
ROOT
HETATM    1  H           1     -10.663   4.498 -21.125  0.00  0.00     0.163 HD
HETATM    2  O           1     -12.556   6.392 -19.491  0.00  0.00    -0.271 OA
HETATM    3  N           1     -11.532   4.871 -20.765  0.00  0.00    -0.344 N 
HETATM    4  C           1     -11.519   5.948 -19.921  0.00  0.00     0.249 C 
ENDROOT
BRANCH   4   5
HETATM    5  C           1     -10.207   6.581 -19.527  0.00  0.00     0.275 C 
BRANCH   5   6
HETATM    6  N           1      -9.341   5.557 -18.854  0.00  0.00    -0.066 N 
HETATM    7  H           1      -9.169   5.842 -17.864  0.00  0.00     0.275 HD
HETATM    8  H           1      -9.823   4.630 -18.871  0.00  0.00     0.275 HD
HETATM    9  H           1      -8.429   5.486 -19.360  0.00  0.00     0.275 HD
ENDBRANCH   5   6
BRANCH   5  10
HETATM   10  C           1      -9.501   7.103 -20.771  0.00  0.00     0.046 C 
BRANCH  10  11
HETATM   11  C           1      -9.815   8.582 -20.951  0.00  0.00    -0.020 C 
HETATM   12  C           1      -8.591   9.296 -21.507  0.00  0.00     0.009 C 
HETATM   13  C           1     -10.189   9.189 -19.606  0.00  0.00     0.009 C 
ENDBRANCH  10  11
ENDBRANCH   5  10
ENDBRANCH   4   5
BRANCH   3  14
HETATM   14  C           1     -12.793   4.262 -21.145  0.00  0.00     0.194 C 
BRANCH  14  15
HETATM   15  C           1     -13.177   4.721 -22.545  0.00  0.00     0.106 C 
BRANCH  15  16
HETATM   16  S           1     -14.890   5.322 -22.538  0.00  0.00    -0.180 SA
HETATM   17  H           1     -14.947   5.596 -23.854  0.00  0.00     0.101 HD
ENDBRANCH  15  16
ENDBRANCH  14  15
BRANCH  14  18
HETATM   18  C           1     -12.650   2.760 -21.128  0.00  0.00     0.197 C 
HETATM   19  O           1     -13.643   2.035 -21.351  0.00  0.00    -0.646 OA
HETATM   20  O           1     -11.538   2.240 -20.891  0.00  0.00    -0.646 OA
ENDBRANCH  14  18
ENDBRANCH   3  14
TORSDOF 8
ENDMDL
MODEL 3
REMARK VINA RESULT:      -5.2      2.555      5.872
REMARK  8 active torsions:
REMARK  status: ('A' for Active; 'I' for Inactive)
REMARK    1  A    between atoms: N_4  and  C_12 
REMARK    2  A    between atoms: C_7  and  C_8 
REMARK    3  A    between atoms: C_8  and  C_12 
REMARK    4  A    between atoms: S_10  and  C_14 
REMARK    5  A    between atoms: N_11  and  C_15 
REMARK       I    between atoms: N_11  and  C_19 
REMARK    6  A    between atoms: C_12  and  C_19 
REMARK    7  A    between atoms: C_14  and  C_15 
REMARK    8  A    between atoms: C_15  and  C_18 
ROOT
HETATM    1  H           1     -21.271  -5.182  -9.127  0.00  0.00     0.163 HD
HETATM    2  O           1     -23.747  -4.229  -7.454  0.00  0.00    -0.271 OA
HETATM    3  N           1     -21.808  -4.937  -8.305  0.00  0.00    -0.344 N 
HETATM    4  C           1     -23.107  -4.523  -8.434  0.00  0.00     0.249 C 
ENDROOT
BRANCH   4   5
HETATM    5  C           1     -23.737  -4.433  -9.802  0.00  0.00     0.275 C 
BRANCH   5   6
HETATM    6  N           1     -25.206  -4.164  -9.659  0.00  0.00    -0.066 N 
HETATM    7  H           1     -25.361  -3.476  -8.888  0.00  0.00     0.275 HD
HETATM    8  H           1     -25.575  -3.773 -10.555  0.00  0.00     0.275 HD
HETATM    9  H           1     -25.703  -5.056  -9.436  0.00  0.00     0.275 HD
ENDBRANCH   5   6
BRANCH   5  10
HETATM   10  C           1     -23.089  -3.301 -10.587  0.00  0.00     0.046 C 
BRANCH  10  11
HETATM   11  C           1     -22.317  -3.877 -11.766  0.00  0.00    -0.020 C 
HETATM   12  C           1     -20.823  -3.777 -11.492  0.00  0.00     0.009 C 
HETATM   13  C           1     -22.655  -3.092 -13.027  0.00  0.00     0.009 C 
ENDBRANCH  10  11
ENDBRANCH   5  10
ENDBRANCH   4   5
BRANCH   3  14
HETATM   14  C           1     -21.202  -5.023  -6.991  0.00  0.00     0.194 C 
BRANCH  14  15
HETATM   15  C           1     -21.176  -6.476  -6.537  0.00  0.00     0.106 C 
BRANCH  15  16
HETATM   16  S           1     -22.027  -6.629  -4.942  0.00  0.00    -0.180 SA
HETATM   17  H           1     -23.260  -6.376  -5.416  0.00  0.00     0.101 HD
ENDBRANCH  15  16
ENDBRANCH  14  15
BRANCH  14  18
HETATM   18  C           1     -19.791  -4.490  -7.053  0.00  0.00     0.197 C 
HETATM   19  O           1     -19.041  -4.590  -6.059  0.00  0.00    -0.646 OA
HETATM   20  O           1     -19.373  -3.947  -8.099  0.00  0.00    -0.646 OA
ENDBRANCH  14  18
ENDBRANCH   3  14
TORSDOF 8
ENDMDL
MODEL 4
REMARK VINA RESULT:      -5.0      3.245      6.128
REMARK  8 active torsions:
REMARK  status: ('A' for Active; 'I' for Inactive)
REMARK    1  A    between atoms: N_4  and  C_12 
REMARK    2  A    between atoms: C_7  and  C_8 
REMARK    3  A    between atoms: C_8  and  C_12 
REMARK    4  A    between atoms: S_10  and  C_14 
REMARK    5  A    between atoms: N_11  and  C_15 
REMARK       I    between atoms: N_11  and  C_19 
REMARK    6  A    between atoms: C_12  and  C_19 
REMARK    7  A    between atoms: C_14  and  C_15 
REMARK    8  A    between atoms: C_15  and  C_18 
ROOT
HETATM    1  H           1     -19.981  -6.557  -5.036  0.00  0.00     0.163 HD
HETATM    2  O           1     -22.877  -5.582  -5.745  0.00  0.00    -0.271 OA
HETATM    3  N           1     -20.991  -6.515  -4.997  0.00  0.00    -0.344 N 
HETATM    4  C           1     -21.672  -5.633  -5.793  0.00  0.00     0.249 C 
ENDROOT
BRANCH   4   5
HETATM    5  C           1     -20.914  -4.724  -6.729  0.00  0.00     0.275 C 
BRANCH   5   6
HETATM    6  N           1     -19.471  -4.677  -6.322  0.00  0.00    -0.066 N 
HETATM    7  H           1     -19.277  -3.777  -5.829  0.00  0.00     0.275 HD
HETATM    8  H           1     -19.265  -5.477  -5.681  0.00  0.00     0.275 HD
HETATM    9  H           1     -18.867  -4.747  -7.172  0.00  0.00     0.275 HD
ENDBRANCH   5   6
BRANCH   5  10
HETATM   10  C           1     -21.022  -5.257  -8.152  0.00  0.00     0.046 C 
BRANCH  10  11
HETATM   11  C           1     -21.340  -4.110  -9.101  0.00  0.00    -0.020 C 
HETATM   12  C           1     -22.820  -4.144  -9.459  0.00  0.00     0.009 C 
HETATM   13  C           1     -20.509  -4.254 -10.369  0.00  0.00     0.009 C 
ENDBRANCH  10  11
ENDBRANCH   5  10
ENDBRANCH   4   5
BRANCH   3  14
HETATM   14  C           1     -21.719  -7.389  -4.097  0.00  0.00     0.194 C 
BRANCH  14  15
HETATM   15  C           1     -21.109  -8.784  -4.141  0.00  0.00     0.106 C 
BRANCH  15  16
HETATM   16  S           1     -19.506  -8.719  -4.989  0.00  0.00    -0.180 SA
HETATM   17  H           1     -18.775  -8.474  -3.887  0.00  0.00     0.101 HD
ENDBRANCH  15  16
ENDBRANCH  14  15
BRANCH  14  18
HETATM   18  C           1     -21.632  -6.846  -2.692  0.00  0.00     0.197 C 
HETATM   19  O           1     -22.385  -5.915  -2.334  0.00  0.00    -0.646 OA
HETATM   20  O           1     -20.807  -7.327  -1.885  0.00  0.00    -0.646 OA
ENDBRANCH  14  18
ENDBRANCH   3  14
TORSDOF 8
ENDMDL
MODEL 5
REMARK VINA RESULT:      -5.0      2.831      3.431
REMARK  8 active torsions:
REMARK  status: ('A' for Active; 'I' for Inactive)
REMARK    1  A    between atoms: N_4  and  C_12 
REMARK    2  A    between atoms: C_7  and  C_8 
REMARK    3  A    between atoms: C_8  and  C_12 
REMARK    4  A    between atoms: S_10  and  C_14 
REMARK    5  A    between atoms: N_11  and  C_15 
REMARK       I    between atoms: N_11  and  C_19 
REMARK    6  A    between atoms: C_12  and  C_19 
REMARK    7  A    between atoms: C_14  and  C_15 
REMARK    8  A    between atoms: C_15  and  C_18 
ROOT
HETATM    1  H           1     -23.138  -4.666 -10.700  0.00  0.00     0.163 HD
HETATM    2  O           1     -20.797  -2.647 -11.231  0.00  0.00    -0.271 OA
HETATM    3  N           1     -22.656  -3.878 -11.114  0.00  0.00    -0.344 N 
HETATM    4  C           1     -21.372  -3.587 -10.738  0.00  0.00     0.249 C 
ENDROOT
BRANCH   4   5
HETATM    5  C           1     -20.676  -4.442  -9.707  0.00  0.00     0.275 C 
BRANCH   5   6
HETATM    6  N           1     -19.573  -5.218 -10.363  0.00  0.00    -0.066 N 
HETATM    7  H           1     -19.949  -5.722 -11.198  0.00  0.00     0.275 HD
HETATM    8  H           1     -18.818  -4.560 -10.665  0.00  0.00     0.275 HD
HETATM    9  H           1     -19.182  -5.909  -9.684  0.00  0.00     0.275 HD
ENDBRANCH   5   6
BRANCH   5  10
HETATM   10  C           1     -20.091  -3.550  -8.620  0.00  0.00     0.046 C 
BRANCH  10  11
HETATM   11  C           1     -20.656  -3.962  -7.267  0.00  0.00    -0.020 C 
HETATM   12  C           1     -19.732  -4.986  -6.622  0.00  0.00     0.009 C 
HETATM   13  C           1     -22.037  -4.574  -7.458  0.00  0.00     0.009 C 
ENDBRANCH  10  11
ENDBRANCH   5  10
ENDBRANCH   4   5
BRANCH   3  14
HETATM   14  C           1     -23.325  -3.057 -12.104  0.00  0.00     0.194 C 
BRANCH  14  15
HETATM   15  C           1     -23.090  -3.642 -13.491  0.00  0.00     0.106 C 
BRANCH  15  16
HETATM   16  S           1     -22.990  -2.298 -14.706  0.00  0.00    -0.180 SA
HETATM   17  H           1     -24.317  -2.170 -14.884  0.00  0.00     0.101 HD
ENDBRANCH  15  16
ENDBRANCH  14  15
BRANCH  14  18
HETATM   18  C           1     -24.805  -3.029 -11.815  0.00  0.00     0.197 C 
HETATM   19  O           1     -25.218  -3.203 -10.648  0.00  0.00    -0.646 OA
HETATM   20  O           1     -25.621  -2.832 -12.742  0.00  0.00    -0.646 OA
ENDBRANCH  14  18
ENDBRANCH   3  14
TORSDOF 8
ENDMDL
MODEL 6
REMARK VINA RESULT:      -4.9     18.192     20.389
REMARK  8 active torsions:
REMARK  status: ('A' for Active; 'I' for Inactive)
REMARK    1  A    between atoms: N_4  and  C_12 
REMARK    2  A    between atoms: C_7  and  C_8 
REMARK    3  A    between atoms: C_8  and  C_12 
REMARK    4  A    between atoms: S_10  and  C_14 
REMARK    5  A    between atoms: N_11  and  C_15 
REMARK       I    between atoms: N_11  and  C_19 
REMARK    6  A    between atoms: C_12  and  C_19 
REMARK    7  A    between atoms: C_14  and  C_15 
REMARK    8  A    between atoms: C_15  and  C_18 
ROOT
HETATM    1  H           1     -12.030   4.868 -19.497  0.00  0.00     0.163 HD
HETATM    2  O           1     -11.599   6.598 -22.078  0.00  0.00    -0.271 OA
HETATM    3  N           1     -12.182   5.194 -20.443  0.00  0.00    -0.344 N 
HETATM    4  C           1     -11.416   6.208 -20.950  0.00  0.00     0.249 C 
ENDROOT
BRANCH   4   5
HETATM    5  C           1     -10.343   6.840 -20.098  0.00  0.00     0.275 C 
BRANCH   5   6
HETATM    6  N           1      -9.797   5.820 -19.143  0.00  0.00    -0.066 N 
HETATM    7  H           1     -10.533   5.564 -18.447  0.00  0.00     0.275 HD
HETATM    8  H           1      -9.508   4.968 -19.675  0.00  0.00     0.275 HD
HETATM    9  H           1      -8.969   6.218 -18.645  0.00  0.00     0.275 HD
ENDBRANCH   5   6
BRANCH   5  10
HETATM   10  C           1      -9.220   7.350 -20.991  0.00  0.00     0.046 C 
BRANCH  10  11
HETATM   11  C           1      -9.170   8.870 -20.928  0.00  0.00    -0.020 C 
HETATM   12  C           1     -10.089   9.362 -19.818  0.00  0.00     0.009 C 
HETATM   13  C           1      -9.629   9.450 -22.260  0.00  0.00     0.009 C 
ENDBRANCH  10  11
ENDBRANCH   5  10
ENDBRANCH   4   5
BRANCH   3  14
HETATM   14  C           1     -13.214   4.586 -21.261  0.00  0.00     0.194 C 
BRANCH  14  15
HETATM   15  C           1     -13.142   3.071 -21.126  0.00  0.00     0.106 C 
BRANCH  15  16
HETATM   16  S           1     -11.430   2.573 -20.785  0.00  0.00    -0.180 SA
HETATM   17  H           1     -11.030   3.764 -20.306  0.00  0.00     0.101 HD
ENDBRANCH  15  16
ENDBRANCH  14  15
BRANCH  14  18
HETATM   18  C           1     -14.568   5.068 -20.801  0.00  0.00     0.197 C 
HETATM   19  O           1     -14.796   5.223 -19.583  0.00  0.00    -0.646 OA
HETATM   20  O           1     -15.462   5.313 -21.640  0.00  0.00    -0.646 OA
ENDBRANCH  14  18
ENDBRANCH   3  14
TORSDOF 8
ENDMDL
MODEL 7
REMARK VINA RESULT:      -4.9      3.381      5.798
REMARK  8 active torsions:
REMARK  status: ('A' for Active; 'I' for Inactive)
REMARK    1  A    between atoms: N_4  and  C_12 
REMARK    2  A    between atoms: C_7  and  C_8 
REMARK    3  A    between atoms: C_8  and  C_12 
REMARK    4  A    between atoms: S_10  and  C_14 
REMARK    5  A    between atoms: N_11  and  C_15 
REMARK       I    between atoms: N_11  and  C_19 
REMARK    6  A    between atoms: C_12  and  C_19 
REMARK    7  A    between atoms: C_14  and  C_15 
REMARK    8  A    between atoms: C_15  and  C_18 
ROOT
HETATM    1  H           1     -20.763  -6.379  -6.345  0.00  0.00     0.163 HD
HETATM    2  O           1     -23.693  -5.397  -5.807  0.00  0.00    -0.271 OA
HETATM    3  N           1     -21.659  -6.314  -5.878  0.00  0.00    -0.344 N 
HETATM    4  C           1     -22.626  -5.476  -6.364  0.00  0.00     0.249 C 
ENDROOT
BRANCH   4   5
HETATM    5  C           1     -22.357  -4.651  -7.599  0.00  0.00     0.275 C 
BRANCH   5   6
HETATM    6  N           1     -23.630  -4.001  -8.054  0.00  0.00    -0.066 N 
HETATM    7  H           1     -24.109  -4.619  -8.747  0.00  0.00     0.275 HD
HETATM    8  H           1     -24.256  -3.852  -7.230  0.00  0.00     0.275 HD
HETATM    9  H           1     -23.412  -3.081  -8.498  0.00  0.00     0.275 HD
ENDBRANCH   5   6
BRANCH   5  10
HETATM   10  C           1     -21.327  -3.577  -7.278  0.00  0.00     0.046 C 
BRANCH  10  11
HETATM   11  C           1     -20.084  -3.792  -8.131  0.00  0.00    -0.020 C 
HETATM   12  C           1     -20.457  -4.578  -9.381  0.00  0.00     0.009 C 
HETATM   13  C           1     -19.048  -4.571  -7.333  0.00  0.00     0.009 C 
ENDBRANCH  10  11
ENDBRANCH   5  10
ENDBRANCH   4   5
BRANCH   3  14
HETATM   14  C           1     -21.916  -7.107  -4.691  0.00  0.00     0.194 C 
BRANCH  14  15
HETATM   15  C           1     -20.968  -8.298  -4.661  0.00  0.00     0.106 C 
BRANCH  15  16
HETATM   16  S           1     -21.661  -9.597  -3.600  0.00  0.00    -0.180 SA
HETATM   17  H           1     -20.512  -9.882  -2.960  0.00  0.00     0.101 HD
ENDBRANCH  15  16
ENDBRANCH  14  15
BRANCH  14  18
HETATM   18  C           1     -21.698  -6.258  -3.463  0.00  0.00     0.197 C 
HETATM   19  O           1     -22.583  -6.190  -2.584  0.00  0.00    -0.646 OA
HETATM   20  O           1     -20.631  -5.620  -3.325  0.00  0.00    -0.646 OA
ENDBRANCH  14  18
ENDBRANCH   3  14
TORSDOF 8
ENDMDL
MODEL 8
REMARK VINA RESULT:      -4.8     19.140     20.364
REMARK  8 active torsions:
REMARK  status: ('A' for Active; 'I' for Inactive)
REMARK    1  A    between atoms: N_4  and  C_12 
REMARK    2  A    between atoms: C_7  and  C_8 
REMARK    3  A    between atoms: C_8  and  C_12 
REMARK    4  A    between atoms: S_10  and  C_14 
REMARK    5  A    between atoms: N_11  and  C_15 
REMARK       I    between atoms: N_11  and  C_19 
REMARK    6  A    between atoms: C_12  and  C_19 
REMARK    7  A    between atoms: C_14  and  C_15 
REMARK    8  A    between atoms: C_15  and  C_18 
ROOT
HETATM    1  H           1     -12.362   6.798 -20.419  0.00  0.00     0.163 HD
HETATM    2  O           1      -9.375   7.732 -20.206  0.00  0.00    -0.271 OA
HETATM    3  N           1     -11.575   7.434 -20.444  0.00  0.00    -0.344 N 
HETATM    4  C           1     -10.313   6.973 -20.178  0.00  0.00     0.249 C 
ENDROOT
BRANCH   4   5
HETATM    5  C           1     -10.097   5.517 -19.848  0.00  0.00     0.275 C 
BRANCH   5   6
HETATM    6  N           1      -9.286   5.404 -18.591  0.00  0.00    -0.066 N 
HETATM    7  H           1      -8.269   5.464 -18.824  0.00  0.00     0.275 HD
HETATM    8  H           1      -9.540   6.184 -17.943  0.00  0.00     0.275 HD
HETATM    9  H           1      -9.485   4.488 -18.129  0.00  0.00     0.275 HD
ENDBRANCH   5   6
BRANCH   5  10
HETATM   10  C           1     -11.444   4.836 -19.644  0.00  0.00     0.046 C 
BRANCH  10  11
HETATM   11  C           1     -11.722   3.900 -20.811  0.00  0.00    -0.020 C 
HETATM   12  C           1     -13.219   3.639 -20.907  0.00  0.00     0.009 C 
HETATM   13  C           1     -10.991   2.582 -20.591  0.00  0.00     0.009 C 
ENDBRANCH  10  11
ENDBRANCH   5  10
ENDBRANCH   4   5
BRANCH   3  14
HETATM   14  C           1     -11.784   8.833 -20.761  0.00  0.00     0.194 C 
BRANCH  14  15
HETATM   15  C           1     -12.562   8.948 -22.065  0.00  0.00     0.106 C 
BRANCH  15  16
HETATM   16  S           1     -13.086   7.296 -22.606  0.00  0.00    -0.180 SA
HETATM   17  H           1     -12.632   7.412 -23.867  0.00  0.00     0.101 HD
ENDBRANCH  15  16
ENDBRANCH  14  15
BRANCH  14  18
HETATM   18  C           1     -12.565   9.488 -19.649  0.00  0.00     0.197 C 
HETATM   19  O           1     -12.238   9.298 -18.458  0.00  0.00    -0.646 OA
HETATM   20  O           1     -13.542  10.221 -19.918  0.00  0.00    -0.646 OA
ENDBRANCH  14  18
ENDBRANCH   3  14
TORSDOF 8
ENDMDL
MODEL 9
REMARK VINA RESULT:      -4.8      5.185      7.489
REMARK  8 active torsions:
REMARK  status: ('A' for Active; 'I' for Inactive)
REMARK    1  A    between atoms: N_4  and  C_12 
REMARK    2  A    between atoms: C_7  and  C_8 
REMARK    3  A    between atoms: C_8  and  C_12 
REMARK    4  A    between atoms: S_10  and  C_14 
REMARK    5  A    between atoms: N_11  and  C_15 
REMARK       I    between atoms: N_11  and  C_19 
REMARK    6  A    between atoms: C_12  and  C_19 
REMARK    7  A    between atoms: C_14  and  C_15 
REMARK    8  A    between atoms: C_15  and  C_18 
ROOT
HETATM    1  H           1     -20.181  -7.165  -2.370  0.00  0.00     0.163 HD
HETATM    2  O           1     -21.932  -8.959  -4.254  0.00  0.00    -0.271 OA
HETATM    3  N           1     -20.889  -7.840  -2.628  0.00  0.00    -0.344 N 
HETATM    4  C           1     -21.087  -8.154  -3.946  0.00  0.00     0.249 C 
ENDROOT
BRANCH   4   5
HETATM    5  C           1     -20.250  -7.493  -5.012  0.00  0.00     0.275 C 
BRANCH   5   6
HETATM    6  N           1     -19.335  -8.508  -5.631  0.00  0.00    -0.066 N 
HETATM    7  H           1     -19.784  -9.451  -5.594  0.00  0.00     0.275 HD
HETATM    8  H           1     -19.151  -8.248  -6.627  0.00  0.00     0.275 HD
HETATM    9  H           1     -18.432  -8.530  -5.104  0.00  0.00     0.275 HD
ENDBRANCH   5   6
BRANCH   5  10
HETATM   10  C           1     -21.160  -6.911  -6.085  0.00  0.00     0.046 C 
BRANCH  10  11
HETATM   11  C           1     -21.365  -5.425  -5.828  0.00  0.00    -0.020 C 
HETATM   12  C           1     -22.086  -4.799  -7.013  0.00  0.00     0.009 C 
HETATM   13  C           1     -20.013  -4.750  -5.643  0.00  0.00     0.009 C 
ENDBRANCH  10  11
ENDBRANCH   5  10
ENDBRANCH   4   5
BRANCH   3  14
HETATM   14  C           1     -21.693  -8.476  -1.603  0.00  0.00     0.194 C 
BRANCH  14  15
HETATM   15  C           1     -20.795  -9.303  -0.693  0.00  0.00     0.106 C 
BRANCH  15  16
HETATM   16  S           1     -20.928 -11.056  -1.141  0.00  0.00    -0.180 SA
HETATM   17  H           1     -20.988 -10.857  -2.470  0.00  0.00     0.101 HD
ENDBRANCH  15  16
ENDBRANCH  14  15
BRANCH  14  18
HETATM   18  C           1     -22.396  -7.417  -0.789  0.00  0.00     0.197 C 
HETATM   19  O           1     -22.458  -6.243  -1.211  0.00  0.00    -0.646 OA
HETATM   20  O           1     -22.916  -7.714   0.309  0.00  0.00    -0.646 OA
ENDBRANCH  14  18
ENDBRANCH   3  14
TORSDOF 8
ENDMDL
