MODEL 1
REMARK VINA RESULT:      -6.3      0.000      0.000
REMARK  9 active torsions:
REMARK  status: ('A' for Active; 'I' for Inactive)
REMARK    1  A    between atoms: N_2  and  C_20 
REMARK       I    between atoms: N_2  and  C_3 
REMARK    2  A    between atoms: C_3  and  C_4 
REMARK    3  A    between atoms: C_4  and  C_5 
REMARK    4  A    between atoms: C_4  and  N_6 
REMARK    5  A    between atoms: C_5  and  S_9 
REMARK       I    between atoms: C_13  and  N_23 
REMARK    6  A    between atoms: C_13  and  C_22 
REMARK    7  A    between atoms: C_19  and  C_20 
REMARK    8  A    between atoms: C_20  and  C_21 
REMARK    9  A    between atoms: C_21  and  C_22 
ROOT
HETATM    1  N           1     -22.241  -4.836  -8.886  0.00  0.00    -0.345 N 
HETATM    2  C           1     -21.655  -4.557  -7.680  0.00  0.00     0.249 C 
HETATM    3  O           1     -21.570  -3.414  -7.300  0.00  0.00    -0.271 OA
HETATM    4  H           1     -22.312  -5.793  -9.205  0.00  0.00     0.163 HD
ENDROOT
BRANCH   1   5
HETATM    5  C           1     -22.761  -3.758  -9.705  0.00  0.00     0.186 C 
BRANCH   5   6
HETATM    6  C           1     -24.268  -3.819  -9.718  0.00  0.00     0.196 C 
HETATM    7  O           1     -24.847  -4.904  -9.945  0.00  0.00    -0.646 OA
HETATM    8  O           1     -24.939  -2.787  -9.501  0.00  0.00    -0.646 OA
ENDBRANCH   5   6
BRANCH   5   9
HETATM    9  C           1     -22.233  -3.901 -11.126  0.00  0.00     0.045 C 
BRANCH   9  10
HETATM   10  C           1     -22.470  -2.605 -11.890  0.00  0.00     0.105 C 
BRANCH  10  11
HETATM   11  C           1     -23.231  -2.900 -13.160  0.00  0.00     0.215 C 
HETATM   12  O           1     -24.435  -2.993 -13.135  0.00  0.00    -0.274 OA
HETATM   13  N           1     -22.555  -3.062 -14.339  0.00  0.00    -0.370 N 
HETATM   14  H           1     -21.546  -2.984 -14.359  0.00  0.00     0.159 HD
HETATM   15  H           1     -23.064  -3.260 -15.191  0.00  0.00     0.159 HD
ENDBRANCH  10  11
ENDBRANCH   9  10
ENDBRANCH   5   9
ENDBRANCH   1   5
BRANCH   2  16
HETATM   16  C           1     -21.114  -5.679  -6.828  0.00  0.00     0.283 C 
BRANCH  16  17
HETATM   17  C           1     -20.785  -5.148  -5.438  0.00  0.00     0.113 C 
BRANCH  17  18
HETATM   18  S           1     -21.405  -6.305  -4.184  0.00  0.00    -0.180 SA
HETATM   19  H           1     -22.700  -6.210  -4.533  0.00  0.00     0.101 HD
ENDBRANCH  17  18
ENDBRANCH  16  17
BRANCH  16  20
HETATM   20  N           1     -19.870  -6.231  -7.459  0.00  0.00    -0.066 N 
HETATM   21  H           1     -20.113  -7.064  -8.041  0.00  0.00     0.275 HD
HETATM   22  H           1     -19.433  -5.499  -8.064  0.00  0.00     0.275 HD
HETATM   23  H           1     -19.196  -6.513  -6.712  0.00  0.00     0.275 HD
ENDBRANCH  16  20
ENDBRANCH   2  16
TORSDOF 9
ENDMDL
MODEL 2
REMARK VINA RESULT:      -5.6     10.254     11.368
REMARK  9 active torsions:
REMARK  status: ('A' for Active; 'I' for Inactive)
REMARK    1  A    between atoms: N_2  and  C_20 
REMARK       I    between atoms: N_2  and  C_3 
REMARK    2  A    between atoms: C_3  and  C_4 
REMARK    3  A    between atoms: C_4  and  C_5 
REMARK    4  A    between atoms: C_4  and  N_6 
REMARK    5  A    between atoms: C_5  and  S_9 
REMARK       I    between atoms: C_13  and  N_23 
REMARK    6  A    between atoms: C_13  and  C_22 
REMARK    7  A    between atoms: C_19  and  C_20 
REMARK    8  A    between atoms: C_20  and  C_21 
REMARK    9  A    between atoms: C_21  and  C_22 
ROOT
HETATM    1  N           1     -27.653  -6.524 -18.308  0.00  0.00    -0.345 N 
HETATM    2  C           1     -26.330  -6.292 -18.046  0.00  0.00     0.249 C 
HETATM    3  O           1     -25.992  -5.874 -16.964  0.00  0.00    -0.271 OA
HETATM    4  H           1     -27.936  -6.874 -19.215  0.00  0.00     0.163 HD
ENDROOT
BRANCH   1   5
HETATM    5  C           1     -28.650  -6.272 -17.286  0.00  0.00     0.186 C 
BRANCH   5   6
HETATM    6  C           1     -28.810  -7.501 -16.426  0.00  0.00     0.196 C 
HETATM    7  O           1     -28.326  -7.524 -15.273  0.00  0.00    -0.646 OA
HETATM    8  O           1     -29.428  -8.495 -16.863  0.00  0.00    -0.646 OA
ENDBRANCH   5   6
BRANCH   5   9
HETATM    9  C           1     -29.980  -5.936 -17.947  0.00  0.00     0.045 C 
BRANCH   9  10
HETATM   10  C           1     -31.000  -5.567 -16.878  0.00  0.00     0.105 C 
BRANCH  10  11
HETATM   11  C           1     -31.659  -4.258 -17.241  0.00  0.00     0.215 C 
HETATM   12  O           1     -31.033  -3.409 -17.828  0.00  0.00    -0.274 OA
HETATM   13  N           1     -32.967  -4.035 -16.904  0.00  0.00    -0.370 N 
HETATM   14  H           1     -33.492  -4.747 -16.412  0.00  0.00     0.159 HD
HETATM   15  H           1     -33.409  -3.157 -17.147  0.00  0.00     0.159 HD
ENDBRANCH  10  11
ENDBRANCH   9  10
ENDBRANCH   5   9
ENDBRANCH   1   5
BRANCH   2  16
HETATM   16  C           1     -25.292  -6.556 -19.110  0.00  0.00     0.283 C 
BRANCH  16  17
HETATM   17  C           1     -25.952  -7.225 -20.309  0.00  0.00     0.113 C 
BRANCH  17  18
HETATM   18  S           1     -24.674  -7.870 -21.424  0.00  0.00    -0.180 SA
HETATM   19  H           1     -24.490  -6.724 -22.104  0.00  0.00     0.101 HD
ENDBRANCH  17  18
ENDBRANCH  16  17
BRANCH  16  20
HETATM   20  N           1     -24.229  -7.458 -18.557  0.00  0.00    -0.066 N 
HETATM   21  H           1     -24.637  -8.060 -17.806  0.00  0.00     0.275 HD
HETATM   22  H           1     -23.854  -8.064 -19.322  0.00  0.00     0.275 HD
HETATM   23  H           1     -23.455  -6.881 -18.157  0.00  0.00     0.275 HD
ENDBRANCH  16  20
ENDBRANCH   2  16
TORSDOF 9
ENDMDL
MODEL 3
REMARK VINA RESULT:      -5.2      3.487      6.626
REMARK  9 active torsions:
REMARK  status: ('A' for Active; 'I' for Inactive)
REMARK    1  A    between atoms: N_2  and  C_20 
REMARK       I    between atoms: N_2  and  C_3 
REMARK    2  A    between atoms: C_3  and  C_4 
REMARK    3  A    between atoms: C_4  and  C_5 
REMARK    4  A    between atoms: C_4  and  N_6 
REMARK    5  A    between atoms: C_5  and  S_9 
REMARK       I    between atoms: C_13  and  N_23 
REMARK    6  A    between atoms: C_13  and  C_22 
REMARK    7  A    between atoms: C_19  and  C_20 
REMARK    8  A    between atoms: C_20  and  C_21 
REMARK    9  A    between atoms: C_21  and  C_22 
ROOT
HETATM    1  N           1     -22.085  -4.958  -7.133  0.00  0.00    -0.345 N 
HETATM    2  C           1     -22.401  -4.158  -8.198  0.00  0.00     0.249 C 
HETATM    3  O           1     -21.672  -3.245  -8.506  0.00  0.00    -0.271 OA
HETATM    4  H           1     -22.695  -5.722  -6.875  0.00  0.00     0.163 HD
ENDROOT
BRANCH   1   5
HETATM    5  C           1     -20.873  -4.711  -6.376  0.00  0.00     0.186 C 
BRANCH   5   6
HETATM    6  C           1     -19.685  -5.238  -7.143  0.00  0.00     0.196 C 
HETATM    7  O           1     -19.643  -6.441  -7.480  0.00  0.00    -0.646 OA
HETATM    8  O           1     -18.744  -4.472  -7.442  0.00  0.00    -0.646 OA
ENDBRANCH   5   6
BRANCH   5   9
HETATM    9  C           1     -20.963  -5.417  -5.030  0.00  0.00     0.045 C 
BRANCH   9  10
HETATM   10  C           1     -22.132  -6.393  -5.044  0.00  0.00     0.105 C 
BRANCH  10  11
HETATM   11  C           1     -21.618  -7.798  -4.847  0.00  0.00     0.215 C 
HETATM   12  O           1     -21.651  -8.306  -3.752  0.00  0.00    -0.274 OA
HETATM   13  N           1     -21.113  -8.496  -5.911  0.00  0.00    -0.370 N 
HETATM   14  H           1     -21.086  -8.071  -6.829  0.00  0.00     0.159 HD
HETATM   15  H           1     -20.768  -9.439  -5.780  0.00  0.00     0.159 HD
ENDBRANCH  10  11
ENDBRANCH   9  10
ENDBRANCH   5   9
ENDBRANCH   1   5
BRANCH   2  16
HETATM   16  C           1     -23.662  -4.416  -8.987  0.00  0.00     0.283 C 
BRANCH  16  17
HETATM   17  C           1     -23.303  -4.709 -10.438  0.00  0.00     0.113 C 
BRANCH  17  18
HETATM   18  S           1     -23.949  -3.388 -11.502  0.00  0.00    -0.180 SA
HETATM   19  H           1     -24.285  -4.187 -12.530  0.00  0.00     0.101 HD
ENDBRANCH  17  18
ENDBRANCH  16  17
BRANCH  16  20
HETATM   20  N           1     -24.545  -3.204  -8.926  0.00  0.00    -0.066 N 
HETATM   21  H           1     -24.676  -2.917  -7.930  0.00  0.00     0.275 HD
HETATM   22  H           1     -24.100  -2.422  -9.457  0.00  0.00     0.275 HD
HETATM   23  H           1     -25.474  -3.429  -9.348  0.00  0.00     0.275 HD
ENDBRANCH  16  20
ENDBRANCH   2  16
TORSDOF 9
ENDMDL
MODEL 4
REMARK VINA RESULT:      -5.2      4.373      7.929
REMARK  9 active torsions:
REMARK  status: ('A' for Active; 'I' for Inactive)
REMARK    1  A    between atoms: N_2  and  C_20 
REMARK       I    between atoms: N_2  and  C_3 
REMARK    2  A    between atoms: C_3  and  C_4 
REMARK    3  A    between atoms: C_4  and  C_5 
REMARK    4  A    between atoms: C_4  and  N_6 
REMARK    5  A    between atoms: C_5  and  S_9 
REMARK       I    between atoms: C_13  and  N_23 
REMARK    6  A    between atoms: C_13  and  C_22 
REMARK    7  A    between atoms: C_19  and  C_20 
REMARK    8  A    between atoms: C_20  and  C_21 
REMARK    9  A    between atoms: C_21  and  C_22 
ROOT
HETATM    1  N           1     -21.256  -6.423  -6.304  0.00  0.00    -0.345 N 
HETATM    2  C           1     -21.030  -5.151  -6.757  0.00  0.00     0.249 C 
HETATM    3  O           1     -20.483  -4.344  -6.044  0.00  0.00    -0.271 OA
HETATM    4  H           1     -21.713  -7.100  -6.901  0.00  0.00     0.163 HD
ENDROOT
BRANCH   1   5
HETATM    5  C           1     -20.837  -6.801  -4.968  0.00  0.00     0.186 C 
BRANCH   5   6
HETATM    6  C           1     -20.328  -8.222  -4.984  0.00  0.00     0.196 C 
HETATM    7  O           1     -19.480  -8.591  -4.143  0.00  0.00    -0.646 OA
HETATM    8  O           1     -20.755  -9.030  -5.836  0.00  0.00    -0.646 OA
ENDBRANCH   5   6
BRANCH   5   9
HETATM    9  C           1     -22.020  -6.695  -4.016  0.00  0.00     0.045 C 
BRANCH   9  10
HETATM   10  C           1     -21.558  -6.097  -2.694  0.00  0.00     0.105 C 
BRANCH  10  11
HETATM   11  C           1     -21.847  -7.067  -1.574  0.00  0.00     0.215 C 
HETATM   12  O           1     -22.748  -6.846  -0.801  0.00  0.00    -0.274 OA
HETATM   13  N           1     -21.086  -8.196  -1.435  0.00  0.00    -0.370 N 
HETATM   14  H           1     -20.331  -8.381  -2.083  0.00  0.00     0.159 HD
HETATM   15  H           1     -21.279  -8.847  -0.684  0.00  0.00     0.159 HD
ENDBRANCH  10  11
ENDBRANCH   9  10
ENDBRANCH   5   9
ENDBRANCH   1   5
BRANCH   2  16
HETATM   16  C           1     -21.465  -4.758  -8.148  0.00  0.00     0.283 C 
BRANCH  16  17
HETATM   17  C           1     -20.238  -4.443  -8.994  0.00  0.00     0.113 C 
BRANCH  17  18
HETATM   18  S           1     -20.742  -4.172 -10.717  0.00  0.00    -0.180 SA
HETATM   19  H           1     -19.847  -3.203 -10.975  0.00  0.00     0.101 HD
ENDBRANCH  17  18
ENDBRANCH  16  17
BRANCH  16  20
HETATM   20  N           1     -22.343  -3.544  -8.072  0.00  0.00    -0.066 N 
HETATM   21  H           1     -21.890  -2.752  -8.582  0.00  0.00     0.275 HD
HETATM   22  H           1     -23.268  -3.756  -8.509  0.00  0.00     0.275 HD
HETATM   23  H           1     -22.483  -3.278  -7.071  0.00  0.00     0.275 HD
ENDBRANCH  16  20
ENDBRANCH   2  16
TORSDOF 9
ENDMDL
MODEL 5
REMARK VINA RESULT:      -5.1      9.706     11.600
REMARK  9 active torsions:
REMARK  status: ('A' for Active; 'I' for Inactive)
REMARK    1  A    between atoms: N_2  and  C_20 
REMARK       I    between atoms: N_2  and  C_3 
REMARK    2  A    between atoms: C_3  and  C_4 
REMARK    3  A    between atoms: C_4  and  C_5 
REMARK    4  A    between atoms: C_4  and  N_6 
REMARK    5  A    between atoms: C_5  and  S_9 
REMARK       I    between atoms: C_13  and  N_23 
REMARK    6  A    between atoms: C_13  and  C_22 
REMARK    7  A    between atoms: C_19  and  C_20 
REMARK    8  A    between atoms: C_20  and  C_21 
REMARK    9  A    between atoms: C_21  and  C_22 
ROOT
HETATM    1  N           1     -26.041  -6.717 -18.048  0.00  0.00    -0.345 N 
HETATM    2  C           1     -25.835  -6.625 -19.399  0.00  0.00     0.249 C 
HETATM    3  O           1     -26.708  -6.196 -20.115  0.00  0.00    -0.271 OA
HETATM    4  H           1     -25.310  -7.076 -17.448  0.00  0.00     0.163 HD
ENDROOT
BRANCH   1   5
HETATM    5  C           1     -27.305  -6.295 -17.478  0.00  0.00     0.186 C 
BRANCH   5   6
HETATM    6  C           1     -27.273  -6.494 -15.982  0.00  0.00     0.196 C 
HETATM    7  O           1     -26.470  -7.309 -15.478  0.00  0.00    -0.646 OA
HETATM    8  O           1     -28.047  -5.844 -15.248  0.00  0.00    -0.646 OA
ENDBRANCH   5   6
BRANCH   5   9
HETATM    9  C           1     -28.434  -7.124 -18.077  0.00  0.00     0.045 C 
BRANCH   9  10
HETATM   10  C           1     -29.679  -6.260 -18.221  0.00  0.00     0.105 C 
BRANCH  10  11
HETATM   11  C           1     -30.910  -7.126 -18.104  0.00  0.00     0.215 C 
HETATM   12  O           1     -31.026  -8.107 -18.800  0.00  0.00    -0.274 OA
HETATM   13  N           1     -31.893  -6.800 -17.210  0.00  0.00    -0.370 N 
HETATM   14  H           1     -31.795  -5.979 -16.627  0.00  0.00     0.159 HD
HETATM   15  H           1     -32.719  -7.381 -17.132  0.00  0.00     0.159 HD
ENDBRANCH  10  11
ENDBRANCH   9  10
ENDBRANCH   5   9
ENDBRANCH   1   5
BRANCH   2  16
HETATM   16  C           1     -24.518  -7.063 -19.992  0.00  0.00     0.283 C 
BRANCH  16  17
HETATM   17  C           1     -24.759  -8.196 -20.982  0.00  0.00     0.113 C 
BRANCH  17  18
HETATM   18  S           1     -23.850  -7.862 -22.518  0.00  0.00    -0.180 SA
HETATM   19  H           1     -24.505  -8.766 -23.268  0.00  0.00     0.101 HD
ENDBRANCH  17  18
ENDBRANCH  16  17
BRANCH  16  20
HETATM   20  N           1     -23.612  -7.541 -18.897  0.00  0.00    -0.066 N 
HETATM   21  H           1     -24.075  -8.319 -18.374  0.00  0.00     0.275 HD
HETATM   22  H           1     -22.717  -7.887 -19.311  0.00  0.00     0.275 HD
HETATM   23  H           1     -23.411  -6.753 -18.241  0.00  0.00     0.275 HD
ENDBRANCH  16  20
ENDBRANCH   2  16
TORSDOF 9
ENDMDL
MODEL 6
REMARK VINA RESULT:      -5.1      2.501      3.840
REMARK  9 active torsions:
REMARK  status: ('A' for Active; 'I' for Inactive)
REMARK    1  A    between atoms: N_2  and  C_20 
REMARK       I    between atoms: N_2  and  C_3 
REMARK    2  A    between atoms: C_3  and  C_4 
REMARK    3  A    between atoms: C_4  and  C_5 
REMARK    4  A    between atoms: C_4  and  N_6 
REMARK    5  A    between atoms: C_5  and  S_9 
REMARK       I    between atoms: C_13  and  N_23 
REMARK    6  A    between atoms: C_13  and  C_22 
REMARK    7  A    between atoms: C_19  and  C_20 
REMARK    8  A    between atoms: C_20  and  C_21 
REMARK    9  A    between atoms: C_21  and  C_22 
ROOT
HETATM    1  N           1     -21.264  -5.244  -6.217  0.00  0.00    -0.345 N 
HETATM    2  C           1     -21.157  -6.516  -5.722  0.00  0.00     0.249 C 
HETATM    3  O           1     -21.188  -7.461  -6.473  0.00  0.00    -0.271 OA
HETATM    4  H           1     -21.237  -4.452  -5.588  0.00  0.00     0.163 HD
ENDROOT
BRANCH   1   5
HETATM    5  C           1     -21.412  -5.032  -7.644  0.00  0.00     0.186 C 
BRANCH   5   6
HETATM    6  C           1     -20.059  -4.764  -8.256  0.00  0.00     0.196 C 
HETATM    7  O           1     -19.081  -4.506  -7.520  0.00  0.00    -0.646 OA
HETATM    8  O           1     -19.915  -4.800  -9.497  0.00  0.00    -0.646 OA
ENDBRANCH   5   6
BRANCH   5   9
HETATM    9  C           1     -22.326  -3.839  -7.887  0.00  0.00     0.045 C 
BRANCH   9  10
HETATM   10  C           1     -23.528  -4.279  -8.713  0.00  0.00     0.105 C 
BRANCH  10  11
HETATM   11  C           1     -23.552  -3.514 -10.014  0.00  0.00     0.215 C 
HETATM   12  O           1     -24.583  -3.021 -10.406  0.00  0.00    -0.274 OA
HETATM   13  N           1     -22.405  -3.381 -10.749  0.00  0.00    -0.370 N 
HETATM   14  H           1     -21.542  -3.794 -10.421  0.00  0.00     0.159 HD
HETATM   15  H           1     -22.421  -2.868 -11.622  0.00  0.00     0.159 HD
ENDBRANCH  10  11
ENDBRANCH   9  10
ENDBRANCH   5   9
ENDBRANCH   1   5
BRANCH   2  16
HETATM   16  C           1     -21.001  -6.736  -4.236  0.00  0.00     0.283 C 
BRANCH  16  17
HETATM   17  C           1     -20.967  -8.231  -3.945  0.00  0.00     0.113 C 
BRANCH  17  18
HETATM   18  S           1     -20.316  -8.509  -2.274  0.00  0.00    -0.180 SA
HETATM   19  H           1     -21.216  -7.735  -1.642  0.00  0.00     0.101 HD
ENDBRANCH  17  18
ENDBRANCH  16  17
BRANCH  16  20
HETATM   20  N           1     -22.161  -6.113  -3.516  0.00  0.00    -0.066 N 
HETATM   21  H           1     -22.842  -5.734  -4.212  0.00  0.00     0.275 HD
HETATM   22  H           1     -22.632  -6.835  -2.926  0.00  0.00     0.275 HD
HETATM   23  H           1     -21.816  -5.336  -2.908  0.00  0.00     0.275 HD
ENDBRANCH  16  20
ENDBRANCH   2  16
TORSDOF 9
ENDMDL
MODEL 7
REMARK VINA RESULT:      -5.1      3.270      6.383
REMARK  9 active torsions:
REMARK  status: ('A' for Active; 'I' for Inactive)
REMARK    1  A    between atoms: N_2  and  C_20 
REMARK       I    between atoms: N_2  and  C_3 
REMARK    2  A    between atoms: C_3  and  C_4 
REMARK    3  A    between atoms: C_4  and  C_5 
REMARK    4  A    between atoms: C_4  and  N_6 
REMARK    5  A    between atoms: C_5  and  S_9 
REMARK       I    between atoms: C_13  and  N_23 
REMARK    6  A    between atoms: C_13  and  C_22 
REMARK    7  A    between atoms: C_19  and  C_20 
REMARK    8  A    between atoms: C_20  and  C_21 
REMARK    9  A    between atoms: C_21  and  C_22 
ROOT
HETATM    1  N           1     -21.224  -4.198  -9.458  0.00  0.00    -0.345 N 
HETATM    2  C           1     -22.250  -4.022 -10.347  0.00  0.00     0.249 C 
HETATM    3  O           1     -23.314  -4.559 -10.155  0.00  0.00    -0.271 OA
HETATM    4  H           1     -20.332  -3.748  -9.618  0.00  0.00     0.163 HD
ENDROOT
BRANCH   1   5
HETATM    5  C           1     -21.416  -5.028  -8.284  0.00  0.00     0.186 C 
BRANCH   5   6
HETATM    6  C           1     -22.060  -4.212  -7.191  0.00  0.00     0.196 C 
HETATM    7  O           1     -21.589  -3.095  -6.885  0.00  0.00    -0.646 OA
HETATM    8  O           1     -23.066  -4.651  -6.592  0.00  0.00    -0.646 OA
ENDBRANCH   5   6
BRANCH   5   9
HETATM    9  C           1     -20.068  -5.548  -7.804  0.00  0.00     0.045 C 
BRANCH   9  10
HETATM   10  C           1     -20.066  -5.627  -6.283  0.00  0.00     0.105 C 
BRANCH  10  11
HETATM   11  C           1     -20.437  -7.024  -5.851  0.00  0.00     0.215 C 
HETATM   12  O           1     -19.629  -7.918  -5.934  0.00  0.00    -0.274 OA
HETATM   13  N           1     -21.691  -7.278  -5.364  0.00  0.00    -0.370 N 
HETATM   14  H           1     -22.368  -6.530  -5.294  0.00  0.00     0.159 HD
HETATM   15  H           1     -21.941  -8.215  -5.073  0.00  0.00     0.159 HD
ENDBRANCH  10  11
ENDBRANCH   9  10
ENDBRANCH   5   9
ENDBRANCH   1   5
BRANCH   2  16
HETATM   16  C           1     -22.049  -3.157 -11.568  0.00  0.00     0.283 C 
BRANCH  16  17
HETATM   17  C           1     -23.405  -2.775 -12.148  0.00  0.00     0.113 C 
BRANCH  17  18
HETATM   18  S           1     -23.293  -2.708 -13.959  0.00  0.00    -0.180 SA
HETATM   19  H           1     -23.430  -1.374 -14.059  0.00  0.00     0.101 HD
ENDBRANCH  17  18
ENDBRANCH  16  17
BRANCH  16  20
HETATM   20  N           1     -21.263  -3.917 -12.594  0.00  0.00    -0.066 N 
HETATM   21  H           1     -20.870  -4.784 -12.162  0.00  0.00     0.275 HD
HETATM   22  H           1     -21.888  -4.178 -13.390  0.00  0.00     0.275 HD
HETATM   23  H           1     -20.481  -3.320 -12.947  0.00  0.00     0.275 HD
ENDBRANCH  16  20
ENDBRANCH   2  16
TORSDOF 9
ENDMDL
MODEL 8
REMARK VINA RESULT:      -4.7      9.052     11.784
REMARK  9 active torsions:
REMARK  status: ('A' for Active; 'I' for Inactive)
REMARK    1  A    between atoms: N_2  and  C_20 
REMARK       I    between atoms: N_2  and  C_3 
REMARK    2  A    between atoms: C_3  and  C_4 
REMARK    3  A    between atoms: C_4  and  C_5 
REMARK    4  A    between atoms: C_4  and  N_6 
REMARK    5  A    between atoms: C_5  and  S_9 
REMARK       I    between atoms: C_13  and  N_23 
REMARK    6  A    between atoms: C_13  and  C_22 
REMARK    7  A    between atoms: C_19  and  C_20 
REMARK    8  A    between atoms: C_20  and  C_21 
REMARK    9  A    between atoms: C_21  and  C_22 
ROOT
HETATM    1  N           1     -28.596  -6.685 -18.215  0.00  0.00    -0.345 N 
HETATM    2  C           1     -28.637  -7.523 -19.297  0.00  0.00     0.249 C 
HETATM    3  O           1     -29.324  -8.516 -19.266  0.00  0.00    -0.271 OA
HETATM    4  H           1     -28.021  -5.853 -18.240  0.00  0.00     0.163 HD
ENDROOT
BRANCH   1   5
HETATM    5  C           1     -29.379  -6.989 -17.033  0.00  0.00     0.186 C 
BRANCH   5   6
HETATM    6  C           1     -30.706  -6.275 -17.110  0.00  0.00     0.196 C 
HETATM    7  O           1     -30.767  -5.046 -16.886  0.00  0.00    -0.646 OA
HETATM    8  O           1     -31.743  -6.909 -17.401  0.00  0.00    -0.646 OA
ENDBRANCH   5   6
BRANCH   5   9
HETATM    9  C           1     -28.625  -6.529 -15.792  0.00  0.00     0.045 C 
BRANCH   9  10
HETATM   10  C           1     -27.347  -7.344 -15.642  0.00  0.00     0.105 C 
BRANCH  10  11
HETATM   11  C           1     -26.161  -6.498 -16.038  0.00  0.00     0.215 C 
HETATM   12  O           1     -26.256  -5.715 -16.953  0.00  0.00    -0.274 OA
HETATM   13  N           1     -24.979  -6.617 -15.359  0.00  0.00    -0.370 N 
HETATM   14  H           1     -24.900  -7.273 -14.592  0.00  0.00     0.159 HD
HETATM   15  H           1     -24.184  -6.050 -15.624  0.00  0.00     0.159 HD
ENDBRANCH  10  11
ENDBRANCH   9  10
ENDBRANCH   5   9
ENDBRANCH   1   5
BRANCH   2  16
HETATM   16  C           1     -27.823  -7.206 -20.528  0.00  0.00     0.283 C 
BRANCH  16  17
HETATM   17  C           1     -27.093  -8.460 -20.991  0.00  0.00     0.113 C 
BRANCH  17  18
HETATM   18  S           1     -25.323  -8.101 -21.169  0.00  0.00    -0.180 SA
HETATM   19  H           1     -24.891  -9.210 -20.544  0.00  0.00     0.101 HD
ENDBRANCH  17  18
ENDBRANCH  16  17
BRANCH  16  20
HETATM   20  N           1     -26.822  -6.137 -20.202  0.00  0.00    -0.066 N 
HETATM   21  H           1     -25.905  -6.370 -20.647  0.00  0.00     0.275 HD
HETATM   22  H           1     -27.162  -5.219 -20.566  0.00  0.00     0.275 HD
HETATM   23  H           1     -26.700  -6.078 -19.165  0.00  0.00     0.275 HD
ENDBRANCH  16  20
ENDBRANCH   2  16
TORSDOF 9
ENDMDL
MODEL 9
REMARK VINA RESULT:      -4.6      6.473      9.066
REMARK  9 active torsions:
REMARK  status: ('A' for Active; 'I' for Inactive)
REMARK    1  A    between atoms: N_2  and  C_20 
REMARK       I    between atoms: N_2  and  C_3 
REMARK    2  A    between atoms: C_3  and  C_4 
REMARK    3  A    between atoms: C_4  and  C_5 
REMARK    4  A    between atoms: C_4  and  N_6 
REMARK    5  A    between atoms: C_5  and  S_9 
REMARK       I    between atoms: C_13  and  N_23 
REMARK    6  A    between atoms: C_13  and  C_22 
REMARK    7  A    between atoms: C_19  and  C_20 
REMARK    8  A    between atoms: C_20  and  C_21 
REMARK    9  A    between atoms: C_21  and  C_22 
ROOT
HETATM    1  N           1     -22.024  -9.243  -1.626  0.00  0.00    -0.345 N 
HETATM    2  C           1     -21.801 -10.189  -0.662  0.00  0.00     0.249 C 
HETATM    3  O           1     -20.982  -9.989   0.204  0.00  0.00    -0.271 OA
HETATM    4  H           1     -22.710  -9.411  -2.351  0.00  0.00     0.163 HD
ENDROOT
BRANCH   1   5
HETATM    5  C           1     -21.279  -7.999  -1.607  0.00  0.00     0.186 C 
BRANCH   5   6
HETATM    6  C           1     -22.213  -6.858  -1.289  0.00  0.00     0.196 C 
HETATM    7  O           1     -23.019  -6.958  -0.338  0.00  0.00    -0.646 OA
HETATM    8  O           1     -22.181  -5.813  -1.973  0.00  0.00    -0.646 OA
ENDBRANCH   5   6
BRANCH   5   9
HETATM    9  C           1     -20.641  -7.770  -2.970  0.00  0.00     0.045 C 
BRANCH   9  10
HETATM   10  C           1     -21.507  -8.402  -4.051  0.00  0.00     0.105 C 
BRANCH  10  11
HETATM   11  C           1     -21.731  -7.407  -5.163  0.00  0.00     0.215 C 
HETATM   12  O           1     -21.212  -7.577  -6.240  0.00  0.00    -0.274 OA
HETATM   13  N           1     -22.524  -6.311  -4.950  0.00  0.00    -0.370 N 
HETATM   14  H           1     -22.958  -6.168  -4.047  0.00  0.00     0.159 HD
HETATM   15  H           1     -22.674  -5.643  -5.696  0.00  0.00     0.159 HD
ENDBRANCH  10  11
ENDBRANCH   9  10
ENDBRANCH   5   9
ENDBRANCH   1   5
BRANCH   2  16
HETATM   16  C           1     -22.578 -11.483  -0.681  0.00  0.00     0.283 C 
BRANCH  16  17
HETATM   17  C           1     -22.599 -12.041  -2.098  0.00  0.00     0.113 C 
BRANCH  17  18
HETATM   18  S           1     -20.973 -12.741  -2.500  0.00  0.00    -0.180 SA
HETATM   19  H           1     -20.444 -12.579  -1.275  0.00  0.00     0.101 HD
ENDBRANCH  17  18
ENDBRANCH  16  17
BRANCH  16  20
HETATM   20  N           1     -23.983 -11.229  -0.224  0.00  0.00    -0.066 N 
HETATM   21  H           1     -24.575 -12.066  -0.428  0.00  0.00     0.275 HD
HETATM   22  H           1     -23.987 -11.044   0.805  0.00  0.00     0.275 HD
HETATM   23  H           1     -24.370 -10.400  -0.729  0.00  0.00     0.275 HD
ENDBRANCH  16  20
ENDBRANCH   2  16
TORSDOF 9
ENDMDL
