MODEL 1
REMARK VINA RESULT:      -6.4      0.000      0.000
REMARK  7 active torsions:
REMARK  status: ('A' for Active; 'I' for Inactive)
REMARK    1  A    between atoms: C_2  and  C_13 
REMARK    2  A    between atoms: C_2  and  C_22 
REMARK    3  A    between atoms: C_4  and  C_22 
REMARK    4  A    between atoms: C_7  and  C_11 
REMARK    5  A    between atoms: C_7  and  N_18 
REMARK    6  A    between atoms: N_9  and  C_22 
REMARK       I    between atoms: N_9  and  C_11 
REMARK    7  A    between atoms: O_10  and  C_16 
ROOT
HETATM    1  C           1     -21.218  -5.295  -6.718  0.00  0.00     0.189 C 
ENDROOT
BRANCH   1   2
HETATM    2  C           1     -21.605  -3.949  -7.317  0.00  0.00     0.074 C 
BRANCH   2   3
HETATM    3  C           1     -22.144  -4.153  -8.700  0.00  0.00    -0.056 A 
HETATM    4  C           1     -23.509  -4.360  -8.892  0.00  0.00     0.010 A 
HETATM    5  C           1     -24.011  -4.550 -10.179  0.00  0.00     0.037 A 
HETATM    6  C           1     -23.146  -4.534 -11.274  0.00  0.00     0.065 A 
HETATM    7  C           1     -21.780  -4.328 -11.081  0.00  0.00     0.037 A 
HETATM    8  C           1     -21.279  -4.137  -9.794  0.00  0.00     0.010 A 
BRANCH   6   9
HETATM    9  O           1     -23.634  -4.719 -12.525  0.00  0.00    -0.361 OA
HETATM   10  H           1     -24.595  -4.580 -12.496  0.00  0.00     0.217 HD
ENDBRANCH   6   9
ENDBRANCH   2   3
ENDBRANCH   1   2
BRANCH   1  11
HETATM   11  C           1     -19.779  -5.600  -7.054  0.00  0.00     0.197 C 
HETATM   12  O           1     -18.962  -4.667  -7.211  0.00  0.00    -0.646 OA
HETATM   13  O           1     -19.404  -6.787  -7.175  0.00  0.00    -0.646 OA
ENDBRANCH   1  11
BRANCH   1  14
HETATM   14  N           1     -21.378  -5.245  -5.278  0.00  0.00    -0.345 N 
HETATM   15  C           1     -21.775  -6.364  -4.595  0.00  0.00     0.243 C 
HETATM   16  O           1     -21.992  -7.391  -5.193  0.00  0.00    -0.272 OA
HETATM   17  H           1     -21.197  -4.385  -4.777  0.00  0.00     0.163 HD
BRANCH  15  18
HETATM   18  C           1     -21.942  -6.314  -3.096  0.00  0.00     0.332 C 
BRANCH  18  19
HETATM   19  N           1     -21.138  -7.412  -2.465  0.00  0.00    -0.071 N 
HETATM   20  H           1     -21.271  -7.389  -1.429  0.00  0.00     0.274 HD
HETATM   21  H           1     -21.458  -8.334  -2.838  0.00  0.00     0.274 HD
HETATM   22  H           1     -20.127  -7.276  -2.690  0.00  0.00     0.274 HD
ENDBRANCH  18  19
ENDBRANCH  15  18
ENDBRANCH   1  14
TORSDOF 7
ENDMDL
MODEL 2
REMARK VINA RESULT:      -6.2      1.514      2.244
REMARK  7 active torsions:
REMARK  status: ('A' for Active; 'I' for Inactive)
REMARK    1  A    between atoms: C_2  and  C_13 
REMARK    2  A    between atoms: C_2  and  C_22 
REMARK    3  A    between atoms: C_4  and  C_22 
REMARK    4  A    between atoms: C_7  and  C_11 
REMARK    5  A    between atoms: C_7  and  N_18 
REMARK    6  A    between atoms: N_9  and  C_22 
REMARK       I    between atoms: N_9  and  C_11 
REMARK    7  A    between atoms: O_10  and  C_16 
ROOT
HETATM    1  C           1     -21.764  -4.858  -7.724  0.00  0.00     0.189 C 
ENDROOT
BRANCH   1   2
HETATM    2  C           1     -23.083  -4.394  -8.327  0.00  0.00     0.074 C 
BRANCH   2   3
HETATM    3  C           1     -22.882  -4.061  -9.773  0.00  0.00    -0.056 A 
HETATM    4  C           1     -21.716  -4.460 -10.424  0.00  0.00     0.010 A 
HETATM    5  C           1     -21.528  -4.150 -11.771  0.00  0.00     0.037 A 
HETATM    6  C           1     -22.507  -3.440 -12.466  0.00  0.00     0.065 A 
HETATM    7  C           1     -23.673  -3.040 -11.814  0.00  0.00     0.037 A 
HETATM    8  C           1     -23.861  -3.350 -10.468  0.00  0.00     0.010 A 
BRANCH   6   9
HETATM    9  O           1     -22.324  -3.139 -13.775  0.00  0.00    -0.361 OA
HETATM   10  H           1     -22.624  -3.897 -14.303  0.00  0.00     0.217 HD
ENDBRANCH   6   9
ENDBRANCH   2   3
ENDBRANCH   1   2
BRANCH   1  11
HETATM   11  C           1     -20.862  -3.668  -7.507  0.00  0.00     0.197 C 
HETATM   12  O           1     -21.321  -2.619  -7.006  0.00  0.00    -0.646 OA
HETATM   13  O           1     -19.656  -3.731  -7.829  0.00  0.00    -0.646 OA
ENDBRANCH   1  11
BRANCH   1  14
HETATM   14  N           1     -22.018  -5.510  -6.453  0.00  0.00    -0.345 N 
HETATM   15  C           1     -21.257  -6.582  -6.070  0.00  0.00     0.243 C 
HETATM   16  O           1     -20.375  -6.984  -6.791  0.00  0.00    -0.272 OA
HETATM   17  H           1     -22.757  -5.173  -5.850  0.00  0.00     0.163 HD
BRANCH  15  18
HETATM   18  C           1     -21.520  -7.260  -4.749  0.00  0.00     0.332 C 
BRANCH  18  19
HETATM   19  N           1     -22.134  -6.279  -3.794  0.00  0.00    -0.071 N 
HETATM   20  H           1     -22.849  -6.763  -3.208  0.00  0.00     0.274 HD
HETATM   21  H           1     -21.389  -5.882  -3.178  0.00  0.00     0.274 HD
HETATM   22  H           1     -22.588  -5.507  -4.333  0.00  0.00     0.274 HD
ENDBRANCH  18  19
ENDBRANCH  15  18
ENDBRANCH   1  14
TORSDOF 7
ENDMDL
MODEL 3
REMARK VINA RESULT:      -6.0      1.515      2.101
REMARK  7 active torsions:
REMARK  status: ('A' for Active; 'I' for Inactive)
REMARK    1  A    between atoms: C_2  and  C_13 
REMARK    2  A    between atoms: C_2  and  C_22 
REMARK    3  A    between atoms: C_4  and  C_22 
REMARK    4  A    between atoms: C_7  and  C_11 
REMARK    5  A    between atoms: C_7  and  N_18 
REMARK    6  A    between atoms: N_9  and  C_22 
REMARK       I    between atoms: N_9  and  C_11 
REMARK    7  A    between atoms: O_10  and  C_16 
ROOT
HETATM    1  C           1     -21.051  -5.972  -5.442  0.00  0.00     0.189 C 
ENDROOT
BRANCH   1   2
HETATM    2  C           1     -20.217  -4.837  -6.020  0.00  0.00     0.074 C 
BRANCH   2   3
HETATM    3  C           1     -20.741  -4.469  -7.373  0.00  0.00    -0.056 A 
HETATM    4  C           1     -22.074  -4.087  -7.524  0.00  0.00     0.010 A 
HETATM    5  C           1     -22.563  -3.745  -8.784  0.00  0.00     0.037 A 
HETATM    6  C           1     -21.719  -3.785  -9.894  0.00  0.00     0.065 A 
HETATM    7  C           1     -20.386  -4.168  -9.743  0.00  0.00     0.037 A 
HETATM    8  C           1     -19.897  -4.510  -8.483  0.00  0.00     0.010 A 
BRANCH   6   9
HETATM    9  O           1     -22.194  -3.453 -11.119  0.00  0.00    -0.361 OA
HETATM   10  H           1     -21.527  -2.903 -11.561  0.00  0.00     0.217 HD
ENDBRANCH   6   9
ENDBRANCH   2   3
ENDBRANCH   1   2
BRANCH   1  11
HETATM   11  C           1     -20.527  -7.292  -5.950  0.00  0.00     0.197 C 
HETATM   12  O           1     -21.272  -8.296  -5.968  0.00  0.00    -0.646 OA
HETATM   13  O           1     -19.347  -7.383  -6.353  0.00  0.00    -0.646 OA
ENDBRANCH   1  11
BRANCH   1  14
HETATM   14  N           1     -20.968  -5.944  -3.994  0.00  0.00    -0.345 N 
HETATM   15  C           1     -22.090  -6.159  -3.240  0.00  0.00     0.243 C 
HETATM   16  O           1     -23.149  -6.371  -3.781  0.00  0.00    -0.272 OA
HETATM   17  H           1     -20.080  -5.766  -3.542  0.00  0.00     0.163 HD
BRANCH  15  18
HETATM   18  C           1     -22.003  -6.130  -1.734  0.00  0.00     0.332 C 
BRANCH  18  19
HETATM   19  N           1     -21.836  -7.527  -1.214  0.00  0.00    -0.071 N 
HETATM   20  H           1     -22.758  -8.017  -1.229  0.00  0.00     0.274 HD
HETATM   21  H           1     -21.156  -8.043  -1.818  0.00  0.00     0.274 HD
HETATM   22  H           1     -21.476  -7.493  -0.234  0.00  0.00     0.274 HD
ENDBRANCH  18  19
ENDBRANCH  15  18
ENDBRANCH   1  14
TORSDOF 7
ENDMDL
MODEL 4
REMARK VINA RESULT:      -5.8      2.661      4.505
REMARK  7 active torsions:
REMARK  status: ('A' for Active; 'I' for Inactive)
REMARK    1  A    between atoms: C_2  and  C_13 
REMARK    2  A    between atoms: C_2  and  C_22 
REMARK    3  A    between atoms: C_4  and  C_22 
REMARK    4  A    between atoms: C_7  and  C_11 
REMARK    5  A    between atoms: C_7  and  N_18 
REMARK    6  A    between atoms: N_9  and  C_22 
REMARK       I    between atoms: N_9  and  C_11 
REMARK    7  A    between atoms: O_10  and  C_16 
ROOT
HETATM    1  C           1     -21.439  -7.269  -4.104  0.00  0.00     0.189 C 
ENDROOT
BRANCH   1   2
HETATM    2  C           1     -22.408  -6.441  -4.937  0.00  0.00     0.074 C 
BRANCH   2   3
HETATM    3  C           1     -21.641  -5.617  -5.925  0.00  0.00    -0.056 A 
HETATM    4  C           1     -20.249  -5.580  -5.869  0.00  0.00     0.010 A 
HETATM    5  C           1     -19.534  -4.813  -6.788  0.00  0.00     0.037 A 
HETATM    6  C           1     -20.212  -4.082  -7.763  0.00  0.00     0.065 A 
HETATM    7  C           1     -21.606  -4.118  -7.818  0.00  0.00     0.037 A 
HETATM    8  C           1     -22.321  -4.885  -6.899  0.00  0.00     0.010 A 
BRANCH   6   9
HETATM    9  O           1     -19.518  -3.336  -8.656  0.00  0.00    -0.361 OA
HETATM   10  H           1     -18.657  -3.119  -8.262  0.00  0.00     0.217 HD
ENDBRANCH   6   9
ENDBRANCH   2   3
ENDBRANCH   1   2
BRANCH   1  11
HETATM   11  C           1     -21.582  -6.900  -2.648  0.00  0.00     0.197 C 
HETATM   12  O           1     -22.367  -5.988  -2.308  0.00  0.00    -0.646 OA
HETATM   13  O           1     -20.915  -7.505  -1.781  0.00  0.00    -0.646 OA
ENDBRANCH   1  11
BRANCH   1  14
HETATM   14  N           1     -21.737  -8.678  -4.276  0.00  0.00    -0.345 N 
HETATM   15  C           1     -20.921  -9.461  -5.048  0.00  0.00     0.243 C 
HETATM   16  O           1     -19.953  -8.977  -5.586  0.00  0.00    -0.272 OA
HETATM   17  H           1     -22.549  -9.082  -3.827  0.00  0.00     0.163 HD
BRANCH  15  18
HETATM   18  C           1     -21.231 -10.926  -5.228  0.00  0.00     0.332 C 
BRANCH  18  19
HETATM   19  N           1     -20.804 -11.364  -6.598  0.00  0.00    -0.071 N 
HETATM   20  H           1     -21.630 -11.365  -7.237  0.00  0.00     0.274 HD
HETATM   21  H           1     -20.080 -10.705  -6.964  0.00  0.00     0.274 HD
HETATM   22  H           1     -20.403 -12.328  -6.546  0.00  0.00     0.274 HD
ENDBRANCH  18  19
ENDBRANCH  15  18
ENDBRANCH   1  14
TORSDOF 7
ENDMDL
MODEL 5
REMARK VINA RESULT:      -5.7      4.356      7.587
REMARK  7 active torsions:
REMARK  status: ('A' for Active; 'I' for Inactive)
REMARK    1  A    between atoms: C_2  and  C_13 
REMARK    2  A    between atoms: C_2  and  C_22 
REMARK    3  A    between atoms: C_4  and  C_22 
REMARK    4  A    between atoms: C_7  and  C_11 
REMARK    5  A    between atoms: C_7  and  N_18 
REMARK    6  A    between atoms: N_9  and  C_22 
REMARK       I    between atoms: N_9  and  C_11 
REMARK    7  A    between atoms: O_10  and  C_16 
ROOT
HETATM    1  C           1     -21.028  -8.562  -4.854  0.00  0.00     0.189 C 
ENDROOT
BRANCH   1   2
HETATM    2  C           1     -20.192  -8.393  -3.593  0.00  0.00     0.074 C 
BRANCH   2   3
HETATM    3  C           1     -21.097  -8.269  -2.406  0.00  0.00    -0.056 A 
HETATM    4  C           1     -21.510  -9.412  -1.722  0.00  0.00     0.010 A 
HETATM    5  C           1     -22.353  -9.297  -0.618  0.00  0.00     0.037 A 
HETATM    6  C           1     -22.783  -8.038  -0.196  0.00  0.00     0.065 A 
HETATM    7  C           1     -22.370  -6.895  -0.881  0.00  0.00     0.037 A 
HETATM    8  C           1     -21.527  -7.010  -1.985  0.00  0.00     0.010 A 
BRANCH   6   9
HETATM    9  O           1     -23.602  -7.926   0.878  0.00  0.00    -0.361 OA
HETATM   10  H           1     -24.230  -8.667   0.855  0.00  0.00     0.217 HD
ENDBRANCH   6   9
ENDBRANCH   2   3
ENDBRANCH   1   2
BRANCH   1  11
HETATM   11  C           1     -21.039  -7.268  -5.629  0.00  0.00     0.197 C 
HETATM   12  O           1     -20.105  -7.001  -6.415  0.00  0.00    -0.646 OA
HETATM   13  O           1     -21.983  -6.461  -5.484  0.00  0.00    -0.646 OA
ENDBRANCH   1  11
BRANCH   1  14
HETATM   14  N           1     -20.455  -9.612  -5.675  0.00  0.00    -0.345 N 
HETATM   15  C           1     -20.943 -10.889  -5.593  0.00  0.00     0.243 C 
HETATM   16  O           1     -21.850 -11.140  -4.835  0.00  0.00    -0.272 OA
HETATM   17  H           1     -19.695  -9.401  -6.309  0.00  0.00     0.163 HD
BRANCH  15  18
HETATM   18  C           1     -20.348 -11.980  -6.446  0.00  0.00     0.332 C 
BRANCH  18  19
HETATM   19  N           1     -19.172 -11.439  -7.204  0.00  0.00    -0.071 N 
HETATM   20  H           1     -18.327 -12.016  -6.995  0.00  0.00     0.274 HD
HETATM   21  H           1     -19.374 -11.475  -8.229  0.00  0.00     0.274 HD
HETATM   22  H           1     -18.999 -10.450  -6.918  0.00  0.00     0.274 HD
ENDBRANCH  18  19
ENDBRANCH  15  18
ENDBRANCH   1  14
TORSDOF 7
ENDMDL
MODEL 6
REMARK VINA RESULT:      -5.7      3.391      7.248
REMARK  7 active torsions:
REMARK  status: ('A' for Active; 'I' for Inactive)
REMARK    1  A    between atoms: C_2  and  C_13 
REMARK    2  A    between atoms: C_2  and  C_22 
REMARK    3  A    between atoms: C_4  and  C_22 
REMARK    4  A    between atoms: C_7  and  C_11 
REMARK    5  A    between atoms: C_7  and  N_18 
REMARK    6  A    between atoms: N_9  and  C_22 
REMARK       I    between atoms: N_9  and  C_11 
REMARK    7  A    between atoms: O_10  and  C_16 
ROOT
HETATM    1  C           1     -20.043  -7.755  -4.953  0.00  0.00     0.189 C 
ENDROOT
BRANCH   1   2
HETATM    2  C           1     -21.437  -8.257  -4.602  0.00  0.00     0.074 C 
BRANCH   2   3
HETATM    3  C           1     -21.666  -8.110  -3.129  0.00  0.00    -0.056 A 
HETATM    4  C           1     -21.660  -9.236  -2.307  0.00  0.00     0.010 A 
HETATM    5  C           1     -21.874  -9.099  -0.936  0.00  0.00     0.037 A 
HETATM    6  C           1     -22.093  -7.836  -0.387  0.00  0.00     0.065 A 
HETATM    7  C           1     -22.100  -6.709  -1.210  0.00  0.00     0.037 A 
HETATM    8  C           1     -21.886  -6.846  -2.581  0.00  0.00     0.010 A 
BRANCH   6   9
HETATM    9  O           1     -22.301  -7.703   0.946  0.00  0.00    -0.361 OA
HETATM   10  H           1     -21.571  -7.178   1.313  0.00  0.00     0.217 HD
ENDBRANCH   6   9
ENDBRANCH   2   3
ENDBRANCH   1   2
BRANCH   1  11
HETATM   11  C           1     -19.078  -8.915  -4.968  0.00  0.00     0.197 C 
HETATM   12  O           1     -18.372  -9.154  -3.965  0.00  0.00    -0.646 OA
HETATM   13  O           1     -18.984  -9.636  -5.985  0.00  0.00    -0.646 OA
ENDBRANCH   1  11
BRANCH   1  14
HETATM   14  N           1     -20.071  -7.132  -6.263  0.00  0.00    -0.345 N 
HETATM   15  C           1     -20.196  -5.773  -6.372  0.00  0.00     0.243 C 
HETATM   16  O           1     -20.284  -5.094  -5.377  0.00  0.00    -0.272 OA
HETATM   17  H           1     -19.998  -7.702  -7.096  0.00  0.00     0.163 HD
BRANCH  15  18
HETATM   18  C           1     -20.225  -5.125  -7.733  0.00  0.00     0.332 C 
BRANCH  18  19
HETATM   19  N           1     -20.895  -3.786  -7.637  0.00  0.00    -0.071 N 
HETATM   20  H           1     -20.703  -3.367  -6.700  0.00  0.00     0.274 HD
HETATM   21  H           1     -20.522  -3.157  -8.384  0.00  0.00     0.274 HD
HETATM   22  H           1     -21.926  -3.903  -7.762  0.00  0.00     0.274 HD
ENDBRANCH  18  19
ENDBRANCH  15  18
ENDBRANCH   1  14
TORSDOF 7
ENDMDL
MODEL 7
REMARK VINA RESULT:      -5.5      6.265      9.185
REMARK  7 active torsions:
REMARK  status: ('A' for Active; 'I' for Inactive)
REMARK    1  A    between atoms: C_2  and  C_13 
REMARK    2  A    between atoms: C_2  and  C_22 
REMARK    3  A    between atoms: C_4  and  C_22 
REMARK    4  A    between atoms: C_7  and  C_11 
REMARK    5  A    between atoms: C_7  and  N_18 
REMARK    6  A    between atoms: N_9  and  C_22 
REMARK       I    between atoms: N_9  and  C_11 
REMARK    7  A    between atoms: O_10  and  C_16 
ROOT
HETATM    1  C           1     -21.556  -8.100  -1.885  0.00  0.00     0.189 C 
ENDROOT
BRANCH   1   2
HETATM    2  C           1     -21.425  -8.392  -0.396  0.00  0.00     0.074 C 
BRANCH   2   3
HETATM    3  C           1     -21.978  -9.752  -0.102  0.00  0.00    -0.056 A 
HETATM    4  C           1     -23.327 -10.020  -0.331  0.00  0.00     0.010 A 
HETATM    5  C           1     -23.842 -11.287  -0.057  0.00  0.00     0.037 A 
HETATM    6  C           1     -23.008 -12.285   0.447  0.00  0.00     0.065 A 
HETATM    7  C           1     -21.659 -12.016   0.677  0.00  0.00     0.037 A 
HETATM    8  C           1     -21.144 -10.750   0.403  0.00  0.00     0.010 A 
BRANCH   6   9
HETATM    9  O           1     -23.509 -13.516   0.714  0.00  0.00    -0.361 OA
HETATM   10  H           1     -24.477 -13.445   0.750  0.00  0.00     0.217 HD
ENDBRANCH   6   9
ENDBRANCH   2   3
ENDBRANCH   1   2
BRANCH   1  11
HETATM   11  C           1     -22.051  -6.689  -2.081  0.00  0.00     0.197 C 
HETATM   12  O           1     -22.438  -6.020  -1.098  0.00  0.00    -0.646 OA
HETATM   13  O           1     -22.074  -6.188  -3.226  0.00  0.00    -0.646 OA
ENDBRANCH   1  11
BRANCH   1  14
HETATM   14  N           1     -20.261  -8.251  -2.521  0.00  0.00    -0.345 N 
HETATM   15  C           1     -20.109  -9.121  -3.567  0.00  0.00     0.243 C 
HETATM   16  O           1     -21.054  -9.764  -3.959  0.00  0.00    -0.272 OA
HETATM   17  H           1     -19.469  -7.713  -2.191  0.00  0.00     0.163 HD
BRANCH  15  18
HETATM   18  C           1     -18.763  -9.278  -4.229  0.00  0.00     0.332 C 
BRANCH  18  19
HETATM   19  N           1     -18.915  -9.134  -5.714  0.00  0.00    -0.071 N 
HETATM   20  H           1     -18.020  -8.784  -6.124  0.00  0.00     0.274 HD
HETATM   21  H           1     -19.149 -10.063  -6.131  0.00  0.00     0.274 HD
HETATM   22  H           1     -19.682  -8.456  -5.922  0.00  0.00     0.274 HD
ENDBRANCH  18  19
ENDBRANCH  15  18
ENDBRANCH   1  14
TORSDOF 7
ENDMDL
MODEL 8
REMARK VINA RESULT:      -5.5      2.639      6.186
REMARK  7 active torsions:
REMARK  status: ('A' for Active; 'I' for Inactive)
REMARK    1  A    between atoms: C_2  and  C_13 
REMARK    2  A    between atoms: C_2  and  C_22 
REMARK    3  A    between atoms: C_4  and  C_22 
REMARK    4  A    between atoms: C_7  and  C_11 
REMARK    5  A    between atoms: C_7  and  N_18 
REMARK    6  A    between atoms: N_9  and  C_22 
REMARK       I    between atoms: N_9  and  C_11 
REMARK    7  A    between atoms: O_10  and  C_16 
ROOT
HETATM    1  C           1     -21.108  -5.198  -6.928  0.00  0.00     0.189 C 
ENDROOT
BRANCH   1   2
HETATM    2  C           1     -21.088  -6.706  -6.721  0.00  0.00     0.074 C 
BRANCH   2   3
HETATM    3  C           1     -21.068  -7.010  -5.255  0.00  0.00    -0.056 A 
HETATM    4  C           1     -21.860  -6.268  -4.379  0.00  0.00     0.010 A 
HETATM    5  C           1     -21.842  -6.550  -3.014  0.00  0.00     0.037 A 
HETATM    6  C           1     -21.030  -7.574  -2.524  0.00  0.00     0.065 A 
HETATM    7  C           1     -20.237  -8.315  -3.400  0.00  0.00     0.037 A 
HETATM    8  C           1     -20.256  -8.033  -4.766  0.00  0.00     0.010 A 
BRANCH   6   9
HETATM    9  O           1     -21.012  -7.847  -1.197  0.00  0.00    -0.361 OA
HETATM   10  H           1     -20.941  -7.005  -0.717  0.00  0.00     0.217 HD
ENDBRANCH   6   9
ENDBRANCH   2   3
ENDBRANCH   1   2
BRANCH   1  11
HETATM   11  C           1     -19.698  -4.663  -6.873  0.00  0.00     0.197 C 
HETATM   12  O           1     -19.157  -4.439  -5.768  0.00  0.00    -0.646 OA
HETATM   13  O           1     -19.071  -4.442  -7.932  0.00  0.00    -0.646 OA
ENDBRANCH   1  11
BRANCH   1  14
HETATM   14  N           1     -21.688  -4.896  -8.223  0.00  0.00    -0.345 N 
HETATM   15  C           1     -22.980  -4.448  -8.306  0.00  0.00     0.243 C 
HETATM   16  O           1     -23.634  -4.305  -7.301  0.00  0.00    -0.272 OA
HETATM   17  H           1     -21.139  -5.017  -9.064  0.00  0.00     0.163 HD
BRANCH  15  18
HETATM   18  C           1     -23.584  -4.134  -9.652  0.00  0.00     0.332 C 
BRANCH  18  19
HETATM   19  N           1     -25.080  -4.190  -9.555  0.00  0.00    -0.071 N 
HETATM   20  H           1     -25.381  -3.854  -8.613  0.00  0.00     0.274 HD
HETATM   21  H           1     -25.499  -3.580 -10.293  0.00  0.00     0.274 HD
HETATM   22  H           1     -25.401  -5.175  -9.693  0.00  0.00     0.274 HD
ENDBRANCH  18  19
ENDBRANCH  15  18
ENDBRANCH   1  14
TORSDOF 7
ENDMDL
MODEL 9
REMARK VINA RESULT:      -5.4      5.934      7.945
REMARK  7 active torsions:
REMARK  status: ('A' for Active; 'I' for Inactive)
REMARK    1  A    between atoms: C_2  and  C_13 
REMARK    2  A    between atoms: C_2  and  C_22 
REMARK    3  A    between atoms: C_4  and  C_22 
REMARK    4  A    between atoms: C_7  and  C_11 
REMARK    5  A    between atoms: C_7  and  N_18 
REMARK    6  A    between atoms: N_9  and  C_22 
REMARK       I    between atoms: N_9  and  C_11 
REMARK    7  A    between atoms: O_10  and  C_16 
ROOT
HETATM    1  C           1     -19.687  -9.476  -3.934  0.00  0.00     0.189 C 
ENDROOT
BRANCH   1   2
HETATM    2  C           1     -20.371  -8.118  -3.834  0.00  0.00     0.074 C 
BRANCH   2   3
HETATM    3  C           1     -21.192  -8.062  -2.583  0.00  0.00    -0.056 A 
HETATM    4  C           1     -21.645  -6.835  -2.102  0.00  0.00     0.010 A 
HETATM    5  C           1     -22.409  -6.782  -0.936  0.00  0.00     0.037 A 
HETATM    6  C           1     -22.719  -7.957  -0.252  0.00  0.00     0.065 A 
HETATM    7  C           1     -22.264  -9.185  -0.733  0.00  0.00     0.037 A 
HETATM    8  C           1     -21.500  -9.238  -1.898  0.00  0.00     0.010 A 
BRANCH   6   9
HETATM    9  O           1     -23.461  -7.906   0.881  0.00  0.00    -0.361 OA
HETATM   10  H           1     -23.023  -8.455   1.552  0.00  0.00     0.217 HD
ENDBRANCH   6   9
ENDBRANCH   2   3
ENDBRANCH   1   2
BRANCH   1  11
HETATM   11  C           1     -20.047 -10.126  -5.247  0.00  0.00     0.197 C 
HETATM   12  O           1     -19.314 -11.019  -5.724  0.00  0.00    -0.646 OA
HETATM   13  O           1     -21.078  -9.771  -5.859  0.00  0.00    -0.646 OA
ENDBRANCH   1  11
BRANCH   1  14
HETATM   14  N           1     -18.250  -9.298  -3.861  0.00  0.00    -0.345 N 
HETATM   15  C           1     -17.540  -9.878  -2.844  0.00  0.00     0.243 C 
HETATM   16  O           1     -18.111 -10.537  -2.008  0.00  0.00    -0.272 OA
HETATM   17  H           1     -17.772  -8.745  -4.561  0.00  0.00     0.163 HD
BRANCH  15  18
HETATM   18  C           1     -16.045  -9.694  -2.767  0.00  0.00     0.332 C 
BRANCH  18  19
HETATM   19  N           1     -15.362 -10.994  -3.073  0.00  0.00    -0.071 N 
HETATM   20  H           1     -16.076 -11.752  -3.151  0.00  0.00     0.274 HD
HETATM   21  H           1     -14.843 -10.909  -3.976  0.00  0.00     0.274 HD
HETATM   22  H           1     -14.692 -11.225  -2.306  0.00  0.00     0.274 HD
ENDBRANCH  18  19
ENDBRANCH  15  18
ENDBRANCH   1  14
TORSDOF 7
ENDMDL
