MODEL 1
REMARK VINA RESULT:      -6.6      0.000      0.000
REMARK  10 active torsions:
REMARK  status: ('A' for Active; 'I' for Inactive)
REMARK       I    between atoms: C_1  and  N_6 
REMARK    1  A    between atoms: C_1  and  C_2 
REMARK    2  A    between atoms: C_2  and  C_26 
REMARK    3  A    between atoms: C_2  and  N_17 
REMARK    4  A    between atoms: N_6  and  C_10 
REMARK    5  A    between atoms: C_7  and  C_16 
REMARK    6  A    between atoms: C_7  and  N_8 
REMARK    7  A    between atoms: C_9  and  C_24 
REMARK    8  A    between atoms: C_9  and  C_10 
REMARK    9  A    between atoms: C_10  and  C_25 
REMARK       I    between atoms: N_13  and  C_24 
REMARK   10  A    between atoms: C_16  and  C_26 
ROOT
HETATM    1  C           1     -34.662  -2.254 -12.612  0.00  0.00     0.249 C 
HETATM    2  H           1     -35.324  -2.161 -14.570  0.00  0.00     0.163 HD
HETATM    3  N           1     -35.217  -1.646 -13.705  0.00  0.00    -0.344 N 
HETATM    4  O           1     -34.533  -1.640 -11.579  0.00  0.00    -0.271 OA
ENDROOT
BRANCH   1   5
HETATM    5  C           1     -34.212  -3.692 -12.695  0.00  0.00     0.274 C 
BRANCH   5   6
HETATM    6  C           1     -33.037  -3.912 -11.750  0.00  0.00     0.044 C 
BRANCH   6   7
HETATM    7  C           1     -32.990  -5.375 -11.330  0.00  0.00     0.030 C 
BRANCH   7   8
HETATM    8  C           1     -34.306  -5.756 -10.666  0.00  0.00     0.230 C 
BRANCH   8   9
HETATM    9  N           1     -34.576  -7.214 -10.888  0.00  0.00    -0.079 N 
HETATM   10  H           1     -35.430  -7.496 -10.355  0.00  0.00     0.274 HD
HETATM   11  H           1     -34.727  -7.390 -11.907  0.00  0.00     0.274 HD
HETATM   12  H           1     -33.757  -7.774 -10.556  0.00  0.00     0.274 HD
ENDBRANCH   8   9
ENDBRANCH   7   8
ENDBRANCH   6   7
ENDBRANCH   5   6
BRANCH   5  13
HETATM   13  N           1     -33.788  -4.002 -14.100  0.00  0.00    -0.067 N 
HETATM   14  H           1     -34.626  -4.012 -14.722  0.00  0.00     0.275 HD
HETATM   15  H           1     -33.323  -4.938 -14.124  0.00  0.00     0.275 HD
HETATM   16  H           1     -33.117  -3.272 -14.431  0.00  0.00     0.275 HD
ENDBRANCH   5  13
ENDBRANCH   1   5
BRANCH   3  17
HETATM   17  C           1     -35.649  -0.264 -13.626  0.00  0.00     0.194 C 
BRANCH  17  18
HETATM   18  C           1     -35.498   0.394 -14.991  0.00  0.00     0.138 C 
BRANCH  18  19
HETATM   19  C           1     -35.677  -0.643 -16.073  0.00  0.00     0.217 C 
HETATM   20  N           1     -36.890  -0.784 -16.692  0.00  0.00    -0.370 N 
HETATM   21  H           1     -37.010  -1.479 -17.418  0.00  0.00     0.159 HD
HETATM   22  H           1     -37.667  -0.194 -16.424  0.00  0.00     0.159 HD
HETATM   23  O           1     -34.750  -1.348 -16.393  0.00  0.00    -0.274 OA
ENDBRANCH  18  19
ENDBRANCH  17  18
BRANCH  17  24
HETATM   24  C           1     -37.096  -0.215 -13.201  0.00  0.00     0.197 C 
HETATM   25  O           1     -37.981  -0.699 -13.940  0.00  0.00    -0.646 OA
HETATM   26  O           1     -37.410   0.309 -12.111  0.00  0.00    -0.646 OA
ENDBRANCH  17  24
ENDBRANCH   3  17
TORSDOF 10
ENDMDL
MODEL 2
REMARK VINA RESULT:      -6.5      1.773      2.249
REMARK  10 active torsions:
REMARK  status: ('A' for Active; 'I' for Inactive)
REMARK       I    between atoms: C_1  and  N_6 
REMARK    1  A    between atoms: C_1  and  C_2 
REMARK    2  A    between atoms: C_2  and  C_26 
REMARK    3  A    between atoms: C_2  and  N_17 
REMARK    4  A    between atoms: N_6  and  C_10 
REMARK    5  A    between atoms: C_7  and  C_16 
REMARK    6  A    between atoms: C_7  and  N_8 
REMARK    7  A    between atoms: C_9  and  C_24 
REMARK    8  A    between atoms: C_9  and  C_10 
REMARK    9  A    between atoms: C_10  and  C_25 
REMARK       I    between atoms: N_13  and  C_24 
REMARK   10  A    between atoms: C_16  and  C_26 
ROOT
HETATM    1  C           1     -34.202  -2.820 -11.582  0.00  0.00     0.249 C 
HETATM    2  H           1     -35.985  -2.859 -12.631  0.00  0.00     0.163 HD
HETATM    3  N           1     -35.349  -2.280 -12.097  0.00  0.00    -0.344 N 
HETATM    4  O           1     -33.443  -2.130 -10.943  0.00  0.00    -0.271 OA
ENDROOT
BRANCH   1   5
HETATM    5  C           1     -33.885  -4.277 -11.810  0.00  0.00     0.274 C 
BRANCH   5   6
HETATM    6  C           1     -34.121  -5.057 -10.523  0.00  0.00     0.044 C 
BRANCH   6   7
HETATM    7  C           1     -34.320  -6.531 -10.851  0.00  0.00     0.030 C 
BRANCH   7   8
HETATM    8  C           1     -34.956  -7.235  -9.659  0.00  0.00     0.230 C 
BRANCH   8   9
HETATM    9  N           1     -34.329  -8.586  -9.483  0.00  0.00    -0.079 N 
HETATM   10  H           1     -34.661  -9.010  -8.588  0.00  0.00     0.274 HD
HETATM   11  H           1     -34.598  -9.203 -10.282  0.00  0.00     0.274 HD
HETATM   12  H           1     -33.289  -8.486  -9.456  0.00  0.00     0.274 HD
ENDBRANCH   8   9
ENDBRANCH   7   8
ENDBRANCH   6   7
ENDBRANCH   5   6
BRANCH   5  13
HETATM   13  N           1     -32.449  -4.417 -12.221  0.00  0.00    -0.067 N 
HETATM   14  H           1     -31.888  -3.646 -11.796  0.00  0.00     0.275 HD
HETATM   15  H           1     -32.379  -4.367 -13.263  0.00  0.00     0.275 HD
HETATM   16  H           1     -32.080  -5.338 -11.893  0.00  0.00     0.275 HD
ENDBRANCH   5  13
ENDBRANCH   1   5
BRANCH   3  17
HETATM   17  C           1     -35.654  -0.880 -11.877  0.00  0.00     0.194 C 
BRANCH  17  18
HETATM   18  C           1     -36.295  -0.298 -13.130  0.00  0.00     0.138 C 
BRANCH  18  19
HETATM   19  C           1     -35.345  -0.437 -14.294  0.00  0.00     0.217 C 
HETATM   20  N           1     -34.515   0.599 -14.629  0.00  0.00    -0.370 N 
HETATM   21  H           1     -33.878   0.505 -15.409  0.00  0.00     0.159 HD
HETATM   22  H           1     -34.539   1.458 -14.096  0.00  0.00     0.159 HD
HETATM   23  O           1     -35.316  -1.464 -14.931  0.00  0.00    -0.274 OA
ENDBRANCH  18  19
ENDBRANCH  17  18
BRANCH  17  24
HETATM   24  C           1     -36.609  -0.750 -10.716  0.00  0.00     0.197 C 
HETATM   25  O           1     -36.192  -0.359  -9.604  0.00  0.00    -0.646 OA
HETATM   26  O           1     -37.818  -1.033 -10.866  0.00  0.00    -0.646 OA
ENDBRANCH  17  24
ENDBRANCH   3  17
TORSDOF 10
ENDMDL
MODEL 3
REMARK VINA RESULT:      -6.4      2.028      3.202
REMARK  10 active torsions:
REMARK  status: ('A' for Active; 'I' for Inactive)
REMARK       I    between atoms: C_1  and  N_6 
REMARK    1  A    between atoms: C_1  and  C_2 
REMARK    2  A    between atoms: C_2  and  C_26 
REMARK    3  A    between atoms: C_2  and  N_17 
REMARK    4  A    between atoms: N_6  and  C_10 
REMARK    5  A    between atoms: C_7  and  C_16 
REMARK    6  A    between atoms: C_7  and  N_8 
REMARK    7  A    between atoms: C_9  and  C_24 
REMARK    8  A    between atoms: C_9  and  C_10 
REMARK    9  A    between atoms: C_10  and  C_25 
REMARK       I    between atoms: N_13  and  C_24 
REMARK   10  A    between atoms: C_16  and  C_26 
ROOT
HETATM    1  C           1     -34.430  -2.533 -12.514  0.00  0.00     0.249 C 
HETATM    2  H           1     -34.935  -0.811 -11.483  0.00  0.00     0.163 HD
HETATM    3  N           1     -35.049  -1.324 -12.348  0.00  0.00    -0.344 N 
HETATM    4  O           1     -34.565  -3.146 -13.546  0.00  0.00    -0.271 OA
ENDROOT
BRANCH   1   5
HETATM    5  C           1     -33.576  -3.101 -11.407  0.00  0.00     0.274 C 
BRANCH   5   6
HETATM    6  C           1     -34.365  -4.161 -10.649  0.00  0.00     0.044 C 
BRANCH   6   7
HETATM    7  C           1     -33.875  -5.546 -11.052  0.00  0.00     0.030 C 
BRANCH   7   8
HETATM    8  C           1     -34.570  -6.599 -10.200  0.00  0.00     0.230 C 
BRANCH   8   9
HETATM    9  N           1     -34.789  -7.839 -11.014  0.00  0.00    -0.079 N 
HETATM   10  H           1     -34.070  -7.890 -11.771  0.00  0.00     0.274 HD
HETATM   11  H           1     -34.708  -8.680 -10.399  0.00  0.00     0.274 HD
HETATM   12  H           1     -35.743  -7.811 -11.441  0.00  0.00     0.274 HD
ENDBRANCH   8   9
ENDBRANCH   7   8
ENDBRANCH   6   7
ENDBRANCH   5   6
BRANCH   5  13
HETATM   13  N           1     -33.183  -2.002 -10.464  0.00  0.00    -0.067 N 
HETATM   14  H           1     -32.145  -1.886 -10.478  0.00  0.00     0.275 HD
HETATM   15  H           1     -33.494  -2.246  -9.497  0.00  0.00     0.275 HD
HETATM   16  H           1     -33.638  -1.110 -10.761  0.00  0.00     0.275 HD
ENDBRANCH   5  13
ENDBRANCH   1   5
BRANCH   3  17
HETATM   17  C           1     -35.869  -0.778 -13.411  0.00  0.00     0.194 C 
BRANCH  17  18
HETATM   18  C           1     -37.089  -0.093 -12.810  0.00  0.00     0.138 C 
BRANCH  18  19
HETATM   19  C           1     -37.126  -0.344 -11.322  0.00  0.00     0.217 C 
HETATM   20  N           1     -36.665   0.610 -10.455  0.00  0.00    -0.370 N 
HETATM   21  H           1     -36.689   0.441  -9.458  0.00  0.00     0.159 HD
HETATM   22  H           1     -36.299   1.483 -10.812  0.00  0.00     0.159 HD
HETATM   23  O           1     -37.562  -1.387 -10.896  0.00  0.00    -0.274 OA
ENDBRANCH  18  19
ENDBRANCH  17  18
BRANCH  17  24
HETATM   24  C           1     -35.066   0.227 -14.200  0.00  0.00     0.197 C 
HETATM   25  O           1     -34.712  -0.036 -15.370  0.00  0.00    -0.646 OA
HETATM   26  O           1     -34.755   1.322 -13.683  0.00  0.00    -0.646 OA
ENDBRANCH  17  24
ENDBRANCH   3  17
TORSDOF 10
ENDMDL
MODEL 4
REMARK VINA RESULT:      -6.2     11.903     13.832
REMARK  10 active torsions:
REMARK  status: ('A' for Active; 'I' for Inactive)
REMARK       I    between atoms: C_1  and  N_6 
REMARK    1  A    between atoms: C_1  and  C_2 
REMARK    2  A    between atoms: C_2  and  C_26 
REMARK    3  A    between atoms: C_2  and  N_17 
REMARK    4  A    between atoms: N_6  and  C_10 
REMARK    5  A    between atoms: C_7  and  C_16 
REMARK    6  A    between atoms: C_7  and  N_8 
REMARK    7  A    between atoms: C_9  and  C_24 
REMARK    8  A    between atoms: C_9  and  C_10 
REMARK    9  A    between atoms: C_10  and  C_25 
REMARK       I    between atoms: N_13  and  C_24 
REMARK   10  A    between atoms: C_16  and  C_26 
ROOT
HETATM    1  C           1     -22.343  -4.143  -7.910  0.00  0.00     0.249 C 
HETATM    2  H           1     -24.313  -4.516  -8.421  0.00  0.00     0.163 HD
HETATM    3  N           1     -23.429  -4.146  -8.744  0.00  0.00    -0.344 N 
HETATM    4  O           1     -21.287  -3.701  -8.295  0.00  0.00    -0.271 OA
ENDROOT
BRANCH   1   5
HETATM    5  C           1     -22.466  -4.690  -6.510  0.00  0.00     0.274 C 
BRANCH   5   6
HETATM    6  C           1     -21.527  -5.878  -6.344  0.00  0.00     0.044 C 
BRANCH   6   7
HETATM    7  C           1     -20.882  -5.829  -4.965  0.00  0.00     0.030 C 
BRANCH   7   8
HETATM    8  C           1     -21.588  -6.808  -4.038  0.00  0.00     0.230 C 
BRANCH   8   9
HETATM    9  N           1     -22.173  -6.064  -2.875  0.00  0.00    -0.079 N 
HETATM   10  H           1     -22.767  -5.280  -3.226  0.00  0.00     0.274 HD
HETATM   11  H           1     -22.757  -6.715  -2.302  0.00  0.00     0.274 HD
HETATM   12  H           1     -21.401  -5.680  -2.284  0.00  0.00     0.274 HD
ENDBRANCH   8   9
ENDBRANCH   7   8
ENDBRANCH   6   7
ENDBRANCH   5   6
BRANCH   5  13
HETATM   13  N           1     -23.879  -5.133  -6.269  0.00  0.00    -0.067 N 
HETATM   14  H           1     -24.414  -5.094  -7.165  0.00  0.00     0.275 HD
HETATM   15  H           1     -24.326  -4.501  -5.567  0.00  0.00     0.275 HD
HETATM   16  H           1     -23.880  -6.113  -5.905  0.00  0.00     0.275 HD
ENDBRANCH   5  13
ENDBRANCH   1   5
BRANCH   3  17
HETATM   17  C           1     -23.311  -3.619 -10.090  0.00  0.00     0.194 C 
BRANCH  17  18
HETATM   18  C           1     -22.687  -4.674 -10.994  0.00  0.00     0.138 C 
BRANCH  18  19
HETATM   19  C           1     -21.607  -4.042 -11.836  0.00  0.00     0.217 C 
HETATM   20  N           1     -21.918  -3.489 -13.049  0.00  0.00    -0.370 N 
HETATM   21  H           1     -21.193  -3.065 -13.613  0.00  0.00     0.159 HD
HETATM   22  H           1     -22.874  -3.505 -13.381  0.00  0.00     0.159 HD
HETATM   23  O           1     -20.466  -4.023 -11.439  0.00  0.00    -0.274 OA
ENDBRANCH  18  19
ENDBRANCH  17  18
BRANCH  17  24
HETATM   24  C           1     -24.681  -3.257 -10.609  0.00  0.00     0.197 C 
HETATM   25  O           1     -24.859  -3.086 -11.834  0.00  0.00    -0.646 OA
HETATM   26  O           1     -25.637  -3.129  -9.814  0.00  0.00    -0.646 OA
ENDBRANCH  17  24
ENDBRANCH   3  17
TORSDOF 10
ENDMDL
MODEL 5
REMARK VINA RESULT:      -5.8     12.380     15.198
REMARK  10 active torsions:
REMARK  status: ('A' for Active; 'I' for Inactive)
REMARK       I    between atoms: C_1  and  N_6 
REMARK    1  A    between atoms: C_1  and  C_2 
REMARK    2  A    between atoms: C_2  and  C_26 
REMARK    3  A    between atoms: C_2  and  N_17 
REMARK    4  A    between atoms: N_6  and  C_10 
REMARK    5  A    between atoms: C_7  and  C_16 
REMARK    6  A    between atoms: C_7  and  N_8 
REMARK    7  A    between atoms: C_9  and  C_24 
REMARK    8  A    between atoms: C_9  and  C_10 
REMARK    9  A    between atoms: C_10  and  C_25 
REMARK       I    between atoms: N_13  and  C_24 
REMARK   10  A    between atoms: C_16  and  C_26 
ROOT
HETATM    1  C           1     -23.402  -4.514  -8.734  0.00  0.00     0.249 C 
HETATM    2  H           1     -21.757  -5.206  -9.783  0.00  0.00     0.163 HD
HETATM    3  N           1     -22.083  -4.843  -8.896  0.00  0.00    -0.344 N 
HETATM    4  O           1     -23.791  -4.081  -7.676  0.00  0.00    -0.271 OA
ENDROOT
BRANCH   1   5
HETATM    5  C           1     -24.370  -4.692  -9.878  0.00  0.00     0.274 C 
BRANCH   5   6
HETATM    6  C           1     -23.607  -4.676 -11.196  0.00  0.00     0.044 C 
BRANCH   6   7
HETATM    7  C           1     -23.715  -3.294 -11.829  0.00  0.00     0.030 C 
BRANCH   7   8
HETATM    8  C           1     -22.344  -2.632 -11.842  0.00  0.00     0.230 C 
BRANCH   8   9
HETATM    9  N           1     -21.295  -3.659 -12.150  0.00  0.00    -0.079 N 
HETATM   10  H           1     -20.591  -3.682 -11.378  0.00  0.00     0.274 HD
HETATM   11  H           1     -21.742  -4.599 -12.243  0.00  0.00     0.274 HD
HETATM   12  H           1     -20.819  -3.411 -13.048  0.00  0.00     0.274 HD
ENDBRANCH   8   9
ENDBRANCH   7   8
ENDBRANCH   6   7
ENDBRANCH   5   6
BRANCH   5  13
HETATM   13  N           1     -25.369  -3.574  -9.865  0.00  0.00    -0.067 N 
HETATM   14  H           1     -25.989  -3.651 -10.703  0.00  0.00     0.275 HD
HETATM   15  H           1     -24.866  -2.658  -9.887  0.00  0.00     0.275 HD
HETATM   16  H           1     -25.947  -3.633  -8.997  0.00  0.00     0.275 HD
ENDBRANCH   5  13
ENDBRANCH   1   5
BRANCH   3  17
HETATM   17  C           1     -21.153  -4.672  -7.797  0.00  0.00     0.194 C 
BRANCH  17  18
HETATM   18  C           1     -21.013  -5.987  -7.042  0.00  0.00     0.138 C 
BRANCH  18  19
HETATM   19  C           1     -21.489  -5.806  -5.622  0.00  0.00     0.217 C 
HETATM   20  N           1     -22.799  -6.044  -5.302  0.00  0.00    -0.370 N 
HETATM   21  H           1     -23.118  -5.923  -4.350  0.00  0.00     0.159 HD
HETATM   22  H           1     -23.448  -6.342  -6.019  0.00  0.00     0.159 HD
HETATM   23  O           1     -20.714  -5.451  -4.766  0.00  0.00    -0.274 OA
ENDBRANCH  18  19
ENDBRANCH  17  18
BRANCH  17  24
HETATM   24  C           1     -19.807  -4.257  -8.338  0.00  0.00     0.197 C 
HETATM   25  O           1     -18.792  -4.328  -7.611  0.00  0.00    -0.646 OA
HETATM   26  O           1     -19.707  -3.842  -9.513  0.00  0.00    -0.646 OA
ENDBRANCH  17  24
ENDBRANCH   3  17
TORSDOF 10
ENDMDL
MODEL 6
REMARK VINA RESULT:      -5.8     12.445     14.425
REMARK  10 active torsions:
REMARK  status: ('A' for Active; 'I' for Inactive)
REMARK       I    between atoms: C_1  and  N_6 
REMARK    1  A    between atoms: C_1  and  C_2 
REMARK    2  A    between atoms: C_2  and  C_26 
REMARK    3  A    between atoms: C_2  and  N_17 
REMARK    4  A    between atoms: N_6  and  C_10 
REMARK    5  A    between atoms: C_7  and  C_16 
REMARK    6  A    between atoms: C_7  and  N_8 
REMARK    7  A    between atoms: C_9  and  C_24 
REMARK    8  A    between atoms: C_9  and  C_10 
REMARK    9  A    between atoms: C_10  and  C_25 
REMARK       I    between atoms: N_13  and  C_24 
REMARK   10  A    between atoms: C_16  and  C_26 
ROOT
HETATM    1  C           1     -20.632  -4.299  -9.164  0.00  0.00     0.249 C 
HETATM    2  H           1     -22.472  -3.355  -9.114  0.00  0.00     0.163 HD
HETATM    3  N           1     -21.859  -3.949  -9.657  0.00  0.00    -0.344 N 
HETATM    4  O           1     -19.899  -5.008  -9.812  0.00  0.00    -0.271 OA
ENDROOT
BRANCH   1   5
HETATM    5  C           1     -20.192  -3.798  -7.810  0.00  0.00     0.274 C 
BRANCH   5   6
HETATM    6  C           1     -19.634  -4.957  -6.995  0.00  0.00     0.044 C 
BRANCH   6   7
HETATM    7  C           1     -20.172  -4.884  -5.572  0.00  0.00     0.030 C 
BRANCH   7   8
HETATM    8  C           1     -20.811  -6.215  -5.201  0.00  0.00     0.230 C 
BRANCH   8   9
HETATM    9  N           1     -20.945  -7.066  -6.429  0.00  0.00    -0.079 N 
HETATM   10  H           1     -20.604  -6.534  -7.261  0.00  0.00     0.274 HD
HETATM   11  H           1     -20.378  -7.937  -6.315  0.00  0.00     0.274 HD
HETATM   12  H           1     -21.950  -7.322  -6.566  0.00  0.00     0.274 HD
ENDBRANCH   8   9
ENDBRANCH   7   8
ENDBRANCH   6   7
ENDBRANCH   5   6
BRANCH   5  13
HETATM   13  N           1     -21.367  -3.203  -7.092  0.00  0.00    -0.067 N 
HETATM   14  H           1     -22.181  -3.854  -7.157  0.00  0.00     0.275 HD
HETATM   15  H           1     -21.616  -2.288  -7.531  0.00  0.00     0.275 HD
HETATM   16  H           1     -21.121  -3.051  -6.088  0.00  0.00     0.275 HD
ENDBRANCH   5  13
ENDBRANCH   1   5
BRANCH   3  17
HETATM   17  C           1     -22.282  -4.431 -10.958  0.00  0.00     0.194 C 
BRANCH  17  18
HETATM   18  C           1     -23.725  -4.911 -10.876  0.00  0.00     0.138 C 
BRANCH  18  19
HETATM   19  C           1     -24.543  -3.917 -10.089  0.00  0.00     0.217 C 
HETATM   20  N           1     -24.482  -3.908  -8.722  0.00  0.00    -0.370 N 
HETATM   21  H           1     -25.031  -3.242  -8.195  0.00  0.00     0.159 HD
HETATM   22  H           1     -23.888  -4.569  -8.238  0.00  0.00     0.159 HD
HETATM   23  O           1     -25.253  -3.128 -10.667  0.00  0.00    -0.274 OA
ENDBRANCH  18  19
ENDBRANCH  17  18
BRANCH  17  24
HETATM   24  C           1     -22.180  -3.312 -11.965  0.00  0.00     0.197 C 
HETATM   25  O           1     -21.530  -2.280 -11.689  0.00  0.00    -0.646 OA
HETATM   26  O           1     -22.744  -3.417 -13.075  0.00  0.00    -0.646 OA
ENDBRANCH  17  24
ENDBRANCH   3  17
TORSDOF 10
ENDMDL
MODEL 7
REMARK VINA RESULT:      -5.7     12.396     14.344
REMARK  10 active torsions:
REMARK  status: ('A' for Active; 'I' for Inactive)
REMARK       I    between atoms: C_1  and  N_6 
REMARK    1  A    between atoms: C_1  and  C_2 
REMARK    2  A    between atoms: C_2  and  C_26 
REMARK    3  A    between atoms: C_2  and  N_17 
REMARK    4  A    between atoms: N_6  and  C_10 
REMARK    5  A    between atoms: C_7  and  C_16 
REMARK    6  A    between atoms: C_7  and  N_8 
REMARK    7  A    between atoms: C_9  and  C_24 
REMARK    8  A    between atoms: C_9  and  C_10 
REMARK    9  A    between atoms: C_10  and  C_25 
REMARK       I    between atoms: N_13  and  C_24 
REMARK   10  A    between atoms: C_16  and  C_26 
ROOT
HETATM    1  C           1     -21.243  -4.753  -7.999  0.00  0.00     0.249 C 
HETATM    2  H           1     -22.993  -5.751  -8.471  0.00  0.00     0.163 HD
HETATM    3  N           1     -22.410  -4.953  -8.686  0.00  0.00    -0.344 N 
HETATM    4  O           1     -20.546  -3.801  -8.256  0.00  0.00    -0.271 OA
ENDROOT
BRANCH   1   5
HETATM    5  C           1     -20.828  -5.723  -6.920  0.00  0.00     0.274 C 
BRANCH   5   6
HETATM    6  C           1     -20.599  -4.966  -5.618  0.00  0.00     0.044 C 
BRANCH   6   7
HETATM    7  C           1     -21.078  -5.813  -4.446  0.00  0.00     0.030 C 
BRANCH   7   8
HETATM    8  C           1     -22.140  -6.792  -4.927  0.00  0.00     0.230 C 
BRANCH   8   9
HETATM    9  N           1     -21.767  -8.183  -4.507  0.00  0.00    -0.079 N 
HETATM   10  H           1     -20.867  -8.158  -3.977  0.00  0.00     0.274 HD
HETATM   11  H           1     -22.520  -8.578  -3.899  0.00  0.00     0.274 HD
HETATM   12  H           1     -21.656  -8.784  -5.356  0.00  0.00     0.274 HD
ENDBRANCH   8   9
ENDBRANCH   7   8
ENDBRANCH   6   7
ENDBRANCH   5   6
BRANCH   5  13
HETATM   13  N           1     -19.558  -6.410  -7.327  0.00  0.00    -0.067 N 
HETATM   14  H           1     -18.772  -6.075  -6.726  0.00  0.00     0.275 HD
HETATM   15  H           1     -19.350  -6.192  -8.327  0.00  0.00     0.275 HD
HETATM   16  H           1     -19.668  -7.443  -7.212  0.00  0.00     0.275 HD
ENDBRANCH   5  13
ENDBRANCH   1   5
BRANCH   3  17
HETATM   17  C           1     -22.809  -4.022  -9.724  0.00  0.00     0.194 C 
BRANCH  17  18
HETATM   18  C           1     -22.368  -4.555 -11.080  0.00  0.00     0.138 C 
BRANCH  18  19
HETATM   19  C           1     -21.867  -3.413 -11.931  0.00  0.00     0.217 C 
HETATM   20  N           1     -22.136  -3.390 -13.274  0.00  0.00    -0.370 N 
HETATM   21  H           1     -21.801  -2.625 -13.844  0.00  0.00     0.159 HD
HETATM   22  H           1     -22.671  -4.139 -13.695  0.00  0.00     0.159 HD
HETATM   23  O           1     -21.229  -2.520 -11.428  0.00  0.00    -0.274 OA
ENDBRANCH  18  19
ENDBRANCH  17  18
BRANCH  17  24
HETATM   24  C           1     -24.310  -3.866  -9.708  0.00  0.00     0.197 C 
HETATM   25  O           1     -24.819  -2.730  -9.585  0.00  0.00    -0.646 OA
HETATM   26  O           1     -25.044  -4.872  -9.817  0.00  0.00    -0.646 OA
ENDBRANCH  17  24
ENDBRANCH   3  17
TORSDOF 10
ENDMDL
MODEL 8
REMARK VINA RESULT:      -5.6     14.410     17.440
REMARK  10 active torsions:
REMARK  status: ('A' for Active; 'I' for Inactive)
REMARK       I    between atoms: C_1  and  N_6 
REMARK    1  A    between atoms: C_1  and  C_2 
REMARK    2  A    between atoms: C_2  and  C_26 
REMARK    3  A    between atoms: C_2  and  N_17 
REMARK    4  A    between atoms: N_6  and  C_10 
REMARK    5  A    between atoms: C_7  and  C_16 
REMARK    6  A    between atoms: C_7  and  N_8 
REMARK    7  A    between atoms: C_9  and  C_24 
REMARK    8  A    between atoms: C_9  and  C_10 
REMARK    9  A    between atoms: C_10  and  C_25 
REMARK       I    between atoms: N_13  and  C_24 
REMARK   10  A    between atoms: C_16  and  C_26 
ROOT
HETATM    1  C           1     -21.440  -5.737  -5.703  0.00  0.00     0.249 C 
HETATM    2  H           1     -19.894  -6.788  -4.816  0.00  0.00     0.163 HD
HETATM    3  N           1     -20.896  -6.646  -4.837  0.00  0.00    -0.344 N 
HETATM    4  O           1     -22.636  -5.567  -5.729  0.00  0.00    -0.271 OA
ENDROOT
BRANCH   1   5
HETATM    5  C           1     -20.546  -4.946  -6.626  0.00  0.00     0.274 C 
BRANCH   5   6
HETATM    6  C           1     -21.349  -3.825  -7.273  0.00  0.00     0.044 C 
BRANCH   6   7
HETATM    7  C           1     -21.462  -4.080  -8.771  0.00  0.00     0.030 C 
BRANCH   7   8
HETATM    8  C           1     -22.911  -3.906  -9.207  0.00  0.00     0.230 C 
BRANCH   8   9
HETATM    9  N           1     -23.813  -4.047  -8.018  0.00  0.00    -0.079 N 
HETATM   10  H           1     -24.754  -4.374  -8.330  0.00  0.00     0.274 HD
HETATM   11  H           1     -23.406  -4.741  -7.350  0.00  0.00     0.274 HD
HETATM   12  H           1     -23.907  -3.121  -7.541  0.00  0.00     0.274 HD
ENDBRANCH   8   9
ENDBRANCH   7   8
ENDBRANCH   6   7
ENDBRANCH   5   6
BRANCH   5  13
HETATM   13  N           1     -20.003  -5.850  -7.692  0.00  0.00    -0.067 N 
HETATM   14  H           1     -20.677  -5.894  -8.489  0.00  0.00     0.275 HD
HETATM   15  H           1     -19.865  -6.808  -7.298  0.00  0.00     0.275 HD
HETATM   16  H           1     -19.087  -5.479  -8.031  0.00  0.00     0.275 HD
ENDBRANCH   5  13
ENDBRANCH   1   5
BRANCH   3  17
HETATM   17  C           1     -21.754  -7.407  -3.950  0.00  0.00     0.194 C 
BRANCH  17  18
HETATM   18  C           1     -21.346  -8.873  -3.984  0.00  0.00     0.138 C 
BRANCH  18  19
HETATM   19  C           1     -19.938  -8.993  -4.511  0.00  0.00     0.217 C 
HETATM   20  N           1     -18.882  -9.040  -3.641  0.00  0.00    -0.370 N 
HETATM   21  H           1     -17.937  -9.120  -3.995  0.00  0.00     0.159 HD
HETATM   22  H           1     -19.046  -8.994  -2.644  0.00  0.00     0.159 HD
HETATM   23  O           1     -19.742  -9.047  -5.702  0.00  0.00    -0.274 OA
ENDBRANCH  18  19
ENDBRANCH  17  18
BRANCH  17  24
HETATM   24  C           1     -21.617  -6.878  -2.543  0.00  0.00     0.197 C 
HETATM   25  O           1     -22.282  -5.883  -2.181  0.00  0.00    -0.646 OA
HETATM   26  O           1     -20.838  -7.435  -1.739  0.00  0.00    -0.646 OA
ENDBRANCH  17  24
ENDBRANCH   3  17
TORSDOF 10
ENDMDL
MODEL 9
REMARK VINA RESULT:      -5.5     11.364     12.996
REMARK  10 active torsions:
REMARK  status: ('A' for Active; 'I' for Inactive)
REMARK       I    between atoms: C_1  and  N_6 
REMARK    1  A    between atoms: C_1  and  C_2 
REMARK    2  A    between atoms: C_2  and  C_26 
REMARK    3  A    between atoms: C_2  and  N_17 
REMARK    4  A    between atoms: N_6  and  C_10 
REMARK    5  A    between atoms: C_7  and  C_16 
REMARK    6  A    between atoms: C_7  and  N_8 
REMARK    7  A    between atoms: C_9  and  C_24 
REMARK    8  A    between atoms: C_9  and  C_10 
REMARK    9  A    between atoms: C_10  and  C_25 
REMARK       I    between atoms: N_13  and  C_24 
REMARK   10  A    between atoms: C_16  and  C_26 
ROOT
HETATM    1  C           1     -23.386  -3.298  -9.570  0.00  0.00     0.249 C 
HETATM    2  H           1     -21.749  -3.561 -10.809  0.00  0.00     0.163 HD
HETATM    3  N           1     -22.725  -3.294 -10.768  0.00  0.00    -0.344 N 
HETATM    4  O           1     -24.550  -2.980  -9.521  0.00  0.00    -0.271 OA
ENDROOT
BRANCH   1   5
HETATM    5  C           1     -22.661  -3.701  -8.310  0.00  0.00     0.274 C 
BRANCH   5   6
HETATM    6  C           1     -21.546  -4.679  -8.656  0.00  0.00     0.044 C 
BRANCH   6   7
HETATM    7  C           1     -20.208  -4.105  -8.206  0.00  0.00     0.030 C 
BRANCH   7   8
HETATM    8  C           1     -19.660  -4.937  -7.054  0.00  0.00     0.230 C 
BRANCH   8   9
HETATM    9  N           1     -20.195  -6.334  -7.146  0.00  0.00    -0.079 N 
HETATM   10  H           1     -21.109  -6.391  -6.643  0.00  0.00     0.274 HD
HETATM   11  H           1     -20.333  -6.591  -8.150  0.00  0.00     0.274 HD
HETATM   12  H           1     -19.515  -6.997  -6.709  0.00  0.00     0.274 HD
ENDBRANCH   8   9
ENDBRANCH   7   8
ENDBRANCH   6   7
ENDBRANCH   5   6
BRANCH   5  13
HETATM   13  N           1     -23.625  -4.358  -7.367  0.00  0.00    -0.067 N 
HETATM   14  H           1     -23.309  -4.205  -6.383  0.00  0.00     0.275 HD
HETATM   15  H           1     -23.663  -5.383  -7.566  0.00  0.00     0.275 HD
HETATM   16  H           1     -24.576  -3.943  -7.496  0.00  0.00     0.275 HD
ENDBRANCH   5  13
ENDBRANCH   1   5
BRANCH   3  17
HETATM   17  C           1     -23.421  -2.907 -11.980  0.00  0.00     0.194 C 
BRANCH  17  18
HETATM   18  C           1     -22.409  -2.450 -13.022  0.00  0.00     0.138 C 
BRANCH  18  19
HETATM   19  C           1     -23.131  -2.057 -14.287  0.00  0.00     0.217 C 
HETATM   20  N           1     -24.137  -1.129 -14.243  0.00  0.00    -0.370 N 
HETATM   21  H           1     -24.621  -0.866 -15.091  0.00  0.00     0.159 HD
HETATM   22  H           1     -24.396  -0.706 -13.360  0.00  0.00     0.159 HD
HETATM   23  O           1     -22.822  -2.562 -15.341  0.00  0.00    -0.274 OA
ENDBRANCH  18  19
ENDBRANCH  17  18
BRANCH  17  24
HETATM   24  C           1     -24.196  -4.087 -12.513  0.00  0.00     0.197 C 
HETATM   25  O           1     -23.788  -5.250 -12.300  0.00  0.00    -0.646 OA
HETATM   26  O           1     -25.244  -3.902 -13.167  0.00  0.00    -0.646 OA
ENDBRANCH  17  24
ENDBRANCH   3  17
TORSDOF 10
ENDMDL
