MODEL 1
REMARK VINA RESULT:      -6.1      0.000      0.000
REMARK  12 active torsions:
REMARK  status: ('A' for Active; 'I' for Inactive)
REMARK    1  A    between atoms: C_3  and  C_23 
REMARK    2  A    between atoms: C_3  and  S_21 
REMARK    3  A    between atoms: C_6  and  C_15 
REMARK    4  A    between atoms: C_6  and  C_9 
REMARK    5  A    between atoms: C_6  and  N_10 
REMARK       I    between atoms: N_10  and  C_13 
REMARK    6  A    between atoms: C_13  and  C_14 
REMARK    7  A    between atoms: C_14  and  C_23 
REMARK    8  A    between atoms: C_14  and  N_25 
REMARK    9  A    between atoms: C_15  and  C_19 
REMARK   10  A    between atoms: N_16  and  C_17 
REMARK   11  A    between atoms: C_17  and  C_18 
REMARK   12  A    between atoms: C_18  and  C_19 
ROOT
HETATM    1  H           1     -32.449  -3.587 -14.330  0.00  0.00     0.163 HD
HETATM    2  N           1     -33.367  -4.011 -14.299  0.00  0.00    -0.345 N 
HETATM    3  C           1     -33.927  -4.518 -15.441  0.00  0.00     0.249 C 
HETATM    4  O           1     -35.022  -5.025 -15.403  0.00  0.00    -0.271 OA
ENDROOT
BRANCH   2   5
HETATM    5  C           1     -34.089  -4.084 -13.043  0.00  0.00     0.185 C 
BRANCH   5   6
HETATM    6  C           1     -33.103  -4.301 -11.903  0.00  0.00     0.036 C 
BRANCH   6   7
HETATM    7  C           1     -33.331  -5.676 -11.289  0.00  0.00     0.004 C 
BRANCH   7   8
HETATM    8  C           1     -34.479  -5.603 -10.291  0.00  0.00     0.027 C 
BRANCH   8   9
HETATM    9  C           1     -34.828  -7.007  -9.813  0.00  0.00     0.229 C 
BRANCH   9  10
HETATM   10  N           1     -34.791  -7.954 -10.976  0.00  0.00    -0.079 N 
HETATM   11  H           1     -34.416  -7.459 -11.817  0.00  0.00     0.274 HD
HETATM   12  H           1     -35.757  -8.298 -11.175  0.00  0.00     0.274 HD
HETATM   13  H           1     -34.174  -8.765 -10.745  0.00  0.00     0.274 HD
ENDBRANCH   9  10
ENDBRANCH   8   9
ENDBRANCH   7   8
ENDBRANCH   6   7
ENDBRANCH   5   6
BRANCH   5  14
HETATM   14  C           1     -34.842  -2.796 -12.821  0.00  0.00     0.196 C 
HETATM   15  O           1     -35.524  -2.641 -11.784  0.00  0.00    -0.646 OA
HETATM   16  O           1     -34.785  -1.883 -13.672  0.00  0.00    -0.646 OA
ENDBRANCH   5  14
ENDBRANCH   2   5
BRANCH   3  17
HETATM   17  C           1     -33.175  -4.442 -16.747  0.00  0.00     0.275 C 
BRANCH  17  18
HETATM   18  C           1     -31.698  -4.714 -16.499  0.00  0.00     0.053 C 
BRANCH  18  19
HETATM   19  C           1     -31.283  -5.979 -17.238  0.00  0.00     0.076 C 
BRANCH  19  20
HETATM   20  S           1     -29.632  -6.491 -16.685  0.00  0.00    -0.173 SA
HETATM   21  C           1     -28.863  -6.498 -18.329  0.00  0.00     0.089 C 
ENDBRANCH  19  20
ENDBRANCH  18  19
ENDBRANCH  17  18
BRANCH  17  22
HETATM   22  N           1     -33.338  -3.073 -17.337  0.00  0.00    -0.066 N 
HETATM   23  H           1     -34.183  -2.615 -16.930  0.00  0.00     0.275 HD
HETATM   24  H           1     -33.449  -3.151 -18.374  0.00  0.00     0.275 HD
HETATM   25  H           1     -32.493  -2.497 -17.122  0.00  0.00     0.275 HD
ENDBRANCH  17  22
ENDBRANCH   3  17
TORSDOF 12
ENDMDL
MODEL 2
REMARK VINA RESULT:      -5.9      4.360      6.399
REMARK  12 active torsions:
REMARK  status: ('A' for Active; 'I' for Inactive)
REMARK    1  A    between atoms: C_3  and  C_23 
REMARK    2  A    between atoms: C_3  and  S_21 
REMARK    3  A    between atoms: C_6  and  C_15 
REMARK    4  A    between atoms: C_6  and  C_9 
REMARK    5  A    between atoms: C_6  and  N_10 
REMARK       I    between atoms: N_10  and  C_13 
REMARK    6  A    between atoms: C_13  and  C_14 
REMARK    7  A    between atoms: C_14  and  C_23 
REMARK    8  A    between atoms: C_14  and  N_25 
REMARK    9  A    between atoms: C_15  and  C_19 
REMARK   10  A    between atoms: N_16  and  C_17 
REMARK   11  A    between atoms: C_17  and  C_18 
REMARK   12  A    between atoms: C_18  and  C_19 
ROOT
HETATM    1  H           1     -36.251  -2.310 -12.547  0.00  0.00     0.163 HD
HETATM    2  N           1     -35.547  -1.830 -12.001  0.00  0.00    -0.345 N 
HETATM    3  C           1     -34.455  -2.514 -11.540  0.00  0.00     0.249 C 
HETATM    4  O           1     -33.614  -1.941 -10.889  0.00  0.00    -0.271 OA
ENDROOT
BRANCH   2   5
HETATM    5  C           1     -35.695  -0.418 -11.708  0.00  0.00     0.185 C 
BRANCH   5   6
HETATM    6  C           1     -35.528   0.386 -12.990  0.00  0.00     0.036 C 
BRANCH   6   7
HETATM    7  C           1     -36.346  -0.256 -14.103  0.00  0.00     0.004 C 
BRANCH   7   8
HETATM    8  C           1     -35.890   0.291 -15.449  0.00  0.00     0.027 C 
BRANCH   8   9
HETATM    9  C           1     -36.035  -0.789 -16.513  0.00  0.00     0.229 C 
BRANCH   9  10
HETATM   10  N           1     -34.876  -1.737 -16.425  0.00  0.00    -0.079 N 
HETATM   11  H           1     -33.982  -1.195 -16.426  0.00  0.00     0.274 HD
HETATM   12  H           1     -34.892  -2.384 -17.245  0.00  0.00     0.274 HD
HETATM   13  H           1     -34.946  -2.293 -15.543  0.00  0.00     0.274 HD
ENDBRANCH   9  10
ENDBRANCH   8   9
ENDBRANCH   7   8
ENDBRANCH   6   7
ENDBRANCH   5   6
BRANCH   5  14
HETATM   14  C           1     -37.066  -0.165 -11.130  0.00  0.00     0.196 C 
HETATM   15  O           1     -37.293   0.890 -10.499  0.00  0.00    -0.646 OA
HETATM   16  O           1     -37.974  -1.009 -11.281  0.00  0.00    -0.646 OA
ENDBRANCH   5  14
ENDBRANCH   2   5
BRANCH   3  17
HETATM   17  C           1     -34.301  -3.984 -11.845  0.00  0.00     0.275 C 
BRANCH  17  18
HETATM   18  C           1     -34.058  -4.748 -10.551  0.00  0.00     0.053 C 
BRANCH  18  19
HETATM   19  C           1     -33.818  -6.218 -10.866  0.00  0.00     0.076 C 
BRANCH  19  20
HETATM   20  S           1     -34.914  -7.245  -9.847  0.00  0.00    -0.173 SA
HETATM   21  C           1     -33.892  -8.744  -9.902  0.00  0.00     0.089 C 
ENDBRANCH  19  20
ENDBRANCH  18  19
ENDBRANCH  17  18
BRANCH  17  22
HETATM   22  N           1     -33.135  -4.183 -12.768  0.00  0.00    -0.066 N 
HETATM   23  H           1     -32.601  -3.289 -12.852  0.00  0.00     0.275 HD
HETATM   24  H           1     -33.483  -4.472 -13.710  0.00  0.00     0.275 HD
HETATM   25  H           1     -32.510  -4.927 -12.385  0.00  0.00     0.275 HD
ENDBRANCH  17  22
ENDBRANCH   3  17
TORSDOF 12
ENDMDL
MODEL 3
REMARK VINA RESULT:      -5.9     12.276     13.972
REMARK  12 active torsions:
REMARK  status: ('A' for Active; 'I' for Inactive)
REMARK    1  A    between atoms: C_3  and  C_23 
REMARK    2  A    between atoms: C_3  and  S_21 
REMARK    3  A    between atoms: C_6  and  C_15 
REMARK    4  A    between atoms: C_6  and  C_9 
REMARK    5  A    between atoms: C_6  and  N_10 
REMARK       I    between atoms: N_10  and  C_13 
REMARK    6  A    between atoms: C_13  and  C_14 
REMARK    7  A    between atoms: C_14  and  C_23 
REMARK    8  A    between atoms: C_14  and  N_25 
REMARK    9  A    between atoms: C_15  and  C_19 
REMARK   10  A    between atoms: N_16  and  C_17 
REMARK   11  A    between atoms: C_17  and  C_18 
REMARK   12  A    between atoms: C_18  and  C_19 
ROOT
HETATM    1  H           1     -22.507  -5.856  -8.933  0.00  0.00     0.163 HD
HETATM    2  N           1     -22.244  -4.926  -8.635  0.00  0.00    -0.345 N 
HETATM    3  C           1     -21.530  -4.753  -7.479  0.00  0.00     0.249 C 
HETATM    4  O           1     -21.214  -3.643  -7.124  0.00  0.00    -0.271 OA
ENDROOT
BRANCH   2   5
HETATM    5  C           1     -22.620  -3.775  -9.432  0.00  0.00     0.185 C 
BRANCH   5   6
HETATM    6  C           1     -21.825  -3.775 -10.731  0.00  0.00     0.036 C 
BRANCH   6   7
HETATM    7  C           1     -22.253  -2.592 -11.589  0.00  0.00     0.004 C 
BRANCH   7   8
HETATM    8  C           1     -22.608  -3.081 -12.987  0.00  0.00     0.027 C 
BRANCH   8   9
HETATM    9  C           1     -24.028  -2.650 -13.332  0.00  0.00     0.229 C 
BRANCH   9  10
HETATM   10  N           1     -23.992  -1.322 -14.027  0.00  0.00    -0.079 N 
HETATM   11  H           1     -24.855  -1.209 -14.607  0.00  0.00     0.274 HD
HETATM   12  H           1     -23.150  -1.274 -14.643  0.00  0.00     0.274 HD
HETATM   13  H           1     -23.948  -0.557 -13.317  0.00  0.00     0.274 HD
ENDBRANCH   9  10
ENDBRANCH   8   9
ENDBRANCH   7   8
ENDBRANCH   6   7
ENDBRANCH   5   6
BRANCH   5  14
HETATM   14  C           1     -24.095  -3.841  -9.745  0.00  0.00     0.196 C 
HETATM   15  O           1     -24.826  -2.850  -9.524  0.00  0.00    -0.646 OA
HETATM   16  O           1     -24.587  -4.885 -10.224  0.00  0.00    -0.646 OA
ENDBRANCH   5  14
ENDBRANCH   2   5
BRANCH   3  17
HETATM   17  C           1     -21.138  -5.951  -6.649  0.00  0.00     0.275 C 
BRANCH  17  18
HETATM   18  C           1     -21.122  -5.566  -5.177  0.00  0.00     0.053 C 
BRANCH  18  19
HETATM   19  C           1     -21.832  -6.638  -4.362  0.00  0.00     0.076 C 
BRANCH  19  20
HETATM   20  S           1     -21.690  -6.252  -2.595  0.00  0.00    -0.173 SA
HETATM   21  C           1     -21.508  -7.967  -2.030  0.00  0.00     0.089 C 
ENDBRANCH  19  20
ENDBRANCH  18  19
ENDBRANCH  17  18
BRANCH  17  22
HETATM   22  N           1     -19.771  -6.416  -7.058  0.00  0.00    -0.066 N 
HETATM   23  H           1     -19.401  -5.791  -7.808  0.00  0.00     0.275 HD
HETATM   24  H           1     -19.829  -7.396  -7.417  0.00  0.00     0.275 HD
HETATM   25  H           1     -19.131  -6.386  -6.233  0.00  0.00     0.275 HD
ENDBRANCH  17  22
ENDBRANCH   3  17
TORSDOF 12
ENDMDL
MODEL 4
REMARK VINA RESULT:      -5.5     14.198     15.032
REMARK  12 active torsions:
REMARK  status: ('A' for Active; 'I' for Inactive)
REMARK    1  A    between atoms: C_3  and  C_23 
REMARK    2  A    between atoms: C_3  and  S_21 
REMARK    3  A    between atoms: C_6  and  C_15 
REMARK    4  A    between atoms: C_6  and  C_9 
REMARK    5  A    between atoms: C_6  and  N_10 
REMARK       I    between atoms: N_10  and  C_13 
REMARK    6  A    between atoms: C_13  and  C_14 
REMARK    7  A    between atoms: C_14  and  C_23 
REMARK    8  A    between atoms: C_14  and  N_25 
REMARK    9  A    between atoms: C_15  and  C_19 
REMARK   10  A    between atoms: N_16  and  C_17 
REMARK   11  A    between atoms: C_17  and  C_18 
REMARK   12  A    between atoms: C_18  and  C_19 
ROOT
HETATM    1  H           1     -22.227  -6.727  -6.743  0.00  0.00     0.163 HD
HETATM    2  N           1     -21.472  -6.209  -6.313  0.00  0.00    -0.345 N 
HETATM    3  C           1     -20.948  -5.113  -6.944  0.00  0.00     0.249 C 
HETATM    4  O           1     -20.047  -4.493  -6.431  0.00  0.00    -0.271 OA
ENDROOT
BRANCH   2   5
HETATM    5  C           1     -20.945  -6.627  -5.029  0.00  0.00     0.185 C 
BRANCH   5   6
HETATM    6  C           1     -22.029  -6.492  -3.968  0.00  0.00     0.036 C 
BRANCH   6   7
HETATM    7  C           1     -21.394  -6.106  -2.638  0.00  0.00     0.004 C 
BRANCH   7   8
HETATM    8  C           1     -22.299  -6.546  -1.496  0.00  0.00     0.027 C 
BRANCH   8   9
HETATM    9  C           1     -21.726  -7.799  -0.846  0.00  0.00     0.229 C 
BRANCH   9  10
HETATM   10  N           1     -20.376  -8.093  -1.432  0.00  0.00    -0.079 N 
HETATM   11  H           1     -19.633  -7.713  -0.801  0.00  0.00     0.274 HD
HETATM   12  H           1     -20.299  -7.644  -2.371  0.00  0.00     0.274 HD
HETATM   13  H           1     -20.255  -9.126  -1.529  0.00  0.00     0.274 HD
ENDBRANCH   9  10
ENDBRANCH   8   9
ENDBRANCH   7   8
ENDBRANCH   6   7
ENDBRANCH   5   6
BRANCH   5  14
HETATM   14  C           1     -20.497  -8.065  -5.112  0.00  0.00     0.196 C 
HETATM   15  O           1     -21.072  -8.854  -5.892  0.00  0.00    -0.646 OA
HETATM   16  O           1     -19.552  -8.468  -4.401  0.00  0.00    -0.646 OA
ENDBRANCH   5  14
ENDBRANCH   2   5
BRANCH   3  17
HETATM   17  C           1     -21.497  -4.678  -8.281  0.00  0.00     0.275 C 
BRANCH  17  18
HETATM   18  C           1     -20.393  -4.015  -9.092  0.00  0.00     0.053 C 
BRANCH  18  19
HETATM   19  C           1     -20.491  -4.459 -10.545  0.00  0.00     0.076 C 
BRANCH  19  20
HETATM   20  S           1     -21.442  -3.236 -11.491  0.00  0.00    -0.173 SA
HETATM   21  C           1     -22.931  -4.253 -11.692  0.00  0.00     0.089 C 
ENDBRANCH  19  20
ENDBRANCH  18  19
ENDBRANCH  17  18
BRANCH  17  22
HETATM   22  N           1     -22.615  -3.701  -8.068  0.00  0.00    -0.066 N 
HETATM   23  H           1     -22.225  -2.793  -7.733  0.00  0.00     0.275 HD
HETATM   24  H           1     -23.278  -4.081  -7.354  0.00  0.00     0.275 HD
HETATM   25  H           1     -23.124  -3.552  -8.968  0.00  0.00     0.275 HD
ENDBRANCH  17  22
ENDBRANCH   3  17
TORSDOF 12
ENDMDL
MODEL 5
REMARK VINA RESULT:      -5.4     14.532     16.188
REMARK  12 active torsions:
REMARK  status: ('A' for Active; 'I' for Inactive)
REMARK    1  A    between atoms: C_3  and  C_23 
REMARK    2  A    between atoms: C_3  and  S_21 
REMARK    3  A    between atoms: C_6  and  C_15 
REMARK    4  A    between atoms: C_6  and  C_9 
REMARK    5  A    between atoms: C_6  and  N_10 
REMARK       I    between atoms: N_10  and  C_13 
REMARK    6  A    between atoms: C_13  and  C_14 
REMARK    7  A    between atoms: C_14  and  C_23 
REMARK    8  A    between atoms: C_14  and  N_25 
REMARK    9  A    between atoms: C_15  and  C_19 
REMARK   10  A    between atoms: N_16  and  C_17 
REMARK   11  A    between atoms: C_17  and  C_18 
REMARK   12  A    between atoms: C_18  and  C_19 
ROOT
HETATM    1  H           1     -20.544  -4.723  -4.534  0.00  0.00     0.163 HD
HETATM    2  N           1     -21.013  -5.476  -5.019  0.00  0.00    -0.345 N 
HETATM    3  C           1     -21.506  -6.542  -4.315  0.00  0.00     0.249 C 
HETATM    4  O           1     -22.068  -7.441  -4.893  0.00  0.00    -0.271 OA
ENDROOT
BRANCH   2   5
HETATM    5  C           1     -21.167  -5.427  -6.460  0.00  0.00     0.185 C 
BRANCH   5   6
HETATM    6  C           1     -21.726  -4.070  -6.864  0.00  0.00     0.036 C 
BRANCH   6   7
HETATM    7  C           1     -22.901  -4.266  -7.813  0.00  0.00     0.004 C 
BRANCH   7   8
HETATM    8  C           1     -22.471  -3.926  -9.233  0.00  0.00     0.027 C 
BRANCH   8   9
HETATM    9  C           1     -23.701  -3.633 -10.082  0.00  0.00     0.229 C 
BRANCH   9  10
HETATM   10  N           1     -24.818  -3.163  -9.198  0.00  0.00    -0.079 N 
HETATM   11  H           1     -24.875  -3.776  -8.353  0.00  0.00     0.274 HD
HETATM   12  H           1     -25.720  -3.207  -9.723  0.00  0.00     0.274 HD
HETATM   13  H           1     -24.637  -2.177  -8.901  0.00  0.00     0.274 HD
ENDBRANCH   9  10
ENDBRANCH   8   9
ENDBRANCH   7   8
ENDBRANCH   6   7
ENDBRANCH   5   6
BRANCH   5  14
HETATM   14  C           1     -19.824  -5.635  -7.116  0.00  0.00     0.196 C 
HETATM   15  O           1     -19.188  -4.656  -7.563  0.00  0.00    -0.646 OA
HETATM   16  O           1     -19.348  -6.786  -7.214  0.00  0.00    -0.646 OA
ENDBRANCH   5  14
ENDBRANCH   2   5
BRANCH   3  17
HETATM   17  C           1     -21.346  -6.593  -2.815  0.00  0.00     0.275 C 
BRANCH  17  18
HETATM   18  C           1     -21.362  -8.043  -2.351  0.00  0.00     0.053 C 
BRANCH  18  19
HETATM   19  C           1     -20.961  -8.113  -0.884  0.00  0.00     0.076 C 
BRANCH  19  20
HETATM   20  S           1     -22.290  -8.895   0.072  0.00  0.00    -0.173 SA
HETATM   21  C           1     -21.426 -10.463   0.369  0.00  0.00     0.089 C 
ENDBRANCH  19  20
ENDBRANCH  18  19
ENDBRANCH  17  18
BRANCH  17  22
HETATM   22  N           1     -22.476  -5.850  -2.167  0.00  0.00    -0.066 N 
HETATM   23  H           1     -23.110  -6.527  -1.688  0.00  0.00     0.275 HD
HETATM   24  H           1     -23.012  -5.326  -2.897  0.00  0.00     0.275 HD
HETATM   25  H           1     -22.094  -5.175  -1.467  0.00  0.00     0.275 HD
ENDBRANCH  17  22
ENDBRANCH   3  17
TORSDOF 12
ENDMDL
MODEL 6
REMARK VINA RESULT:      -5.4     13.095     13.832
REMARK  12 active torsions:
REMARK  status: ('A' for Active; 'I' for Inactive)
REMARK    1  A    between atoms: C_3  and  C_23 
REMARK    2  A    between atoms: C_3  and  S_21 
REMARK    3  A    between atoms: C_6  and  C_15 
REMARK    4  A    between atoms: C_6  and  C_9 
REMARK    5  A    between atoms: C_6  and  N_10 
REMARK       I    between atoms: N_10  and  C_13 
REMARK    6  A    between atoms: C_13  and  C_14 
REMARK    7  A    between atoms: C_14  and  C_23 
REMARK    8  A    between atoms: C_14  and  N_25 
REMARK    9  A    between atoms: C_15  and  C_19 
REMARK   10  A    between atoms: N_16  and  C_17 
REMARK   11  A    between atoms: C_17  and  C_18 
REMARK   12  A    between atoms: C_18  and  C_19 
ROOT
HETATM    1  H           1     -22.668  -6.312  -7.524  0.00  0.00     0.163 HD
HETATM    2  N           1     -22.206  -5.451  -7.264  0.00  0.00    -0.345 N 
HETATM    3  C           1     -22.455  -4.302  -7.966  0.00  0.00     0.249 C 
HETATM    4  O           1     -21.904  -3.273  -7.656  0.00  0.00    -0.271 OA
ENDROOT
BRANCH   2   5
HETATM    5  C           1     -21.282  -5.431  -6.147  0.00  0.00     0.185 C 
BRANCH   5   6
HETATM    6  C           1     -21.775  -6.381  -5.064  0.00  0.00     0.036 C 
BRANCH   6   7
HETATM    7  C           1     -21.204  -5.957  -3.718  0.00  0.00     0.004 C 
BRANCH   7   8
HETATM    8  C           1     -21.539  -7.010  -2.669  0.00  0.00     0.027 C 
BRANCH   8   9
HETATM    9  C           1     -22.201  -6.341  -1.471  0.00  0.00     0.229 C 
BRANCH   9  10
HETATM   10  N           1     -22.574  -7.384  -0.459  0.00  0.00    -0.079 N 
HETATM   11  H           1     -23.299  -8.019  -0.865  0.00  0.00     0.274 HD
HETATM   12  H           1     -22.956  -6.920   0.395  0.00  0.00     0.274 HD
HETATM   13  H           1     -21.728  -7.941  -0.204  0.00  0.00     0.274 HD
ENDBRANCH   9  10
ENDBRANCH   8   9
ENDBRANCH   7   8
ENDBRANCH   6   7
ENDBRANCH   5   6
BRANCH   5  14
HETATM   14  C           1     -19.916  -5.868  -6.617  0.00  0.00     0.196 C 
HETATM   15  O           1     -19.105  -5.023  -7.053  0.00  0.00    -0.646 OA
HETATM   16  O           1     -19.596  -7.075  -6.570  0.00  0.00    -0.646 OA
ENDBRANCH   5  14
ENDBRANCH   2   5
BRANCH   3  17
HETATM   17  C           1     -23.417  -4.322  -9.129  0.00  0.00     0.275 C 
BRANCH  17  18
HETATM   18  C           1     -22.643  -4.169 -10.431  0.00  0.00     0.053 C 
BRANCH  18  19
HETATM   19  C           1     -23.223  -3.012 -11.234  0.00  0.00     0.076 C 
BRANCH  19  20
HETATM   20  S           1     -24.054  -3.655 -12.713  0.00  0.00    -0.173 SA
HETATM   21  C           1     -23.076  -2.713 -13.917  0.00  0.00     0.089 C 
ENDBRANCH  19  20
ENDBRANCH  18  19
ENDBRANCH  17  18
BRANCH  17  22
HETATM   22  N           1     -24.391  -3.189  -8.990  0.00  0.00    -0.066 N 
HETATM   23  H           1     -25.077  -3.222  -9.776  0.00  0.00     0.275 HD
HETATM   24  H           1     -23.874  -2.280  -9.015  0.00  0.00     0.275 HD
HETATM   25  H           1     -24.898  -3.275  -8.081  0.00  0.00     0.275 HD
ENDBRANCH  17  22
ENDBRANCH   3  17
TORSDOF 12
ENDMDL
MODEL 7
REMARK VINA RESULT:      -5.1     14.841     15.942
REMARK  12 active torsions:
REMARK  status: ('A' for Active; 'I' for Inactive)
REMARK    1  A    between atoms: C_3  and  C_23 
REMARK    2  A    between atoms: C_3  and  S_21 
REMARK    3  A    between atoms: C_6  and  C_15 
REMARK    4  A    between atoms: C_6  and  C_9 
REMARK    5  A    between atoms: C_6  and  N_10 
REMARK       I    between atoms: N_10  and  C_13 
REMARK    6  A    between atoms: C_13  and  C_14 
REMARK    7  A    between atoms: C_14  and  C_23 
REMARK    8  A    between atoms: C_14  and  N_25 
REMARK    9  A    between atoms: C_15  and  C_19 
REMARK   10  A    between atoms: N_16  and  C_17 
REMARK   11  A    between atoms: C_17  and  C_18 
REMARK   12  A    between atoms: C_18  and  C_19 
ROOT
HETATM    1  H           1     -21.893  -7.708  -4.423  0.00  0.00     0.163 HD
HETATM    2  N           1     -21.015  -7.869  -4.900  0.00  0.00    -0.345 N 
HETATM    3  C           1     -20.624  -7.035  -5.914  0.00  0.00     0.249 C 
HETATM    4  O           1     -19.576  -7.227  -6.483  0.00  0.00    -0.271 OA
ENDROOT
BRANCH   2   5
HETATM    5  C           1     -20.171  -8.982  -4.511  0.00  0.00     0.185 C 
BRANCH   5   6
HETATM    6  C           1     -20.090  -9.049  -2.992  0.00  0.00     0.036 C 
BRANCH   6   7
HETATM    7  C           1     -20.655  -7.767  -2.395  0.00  0.00     0.004 C 
BRANCH   7   8
HETATM    8  C           1     -21.499  -8.103  -1.173  0.00  0.00     0.027 C 
BRANCH   8   9
HETATM    9  C           1     -22.401  -6.922  -0.837  0.00  0.00     0.229 C 
BRANCH   9  10
HETATM   10  N           1     -22.318  -5.902  -1.933  0.00  0.00    -0.079 N 
HETATM   11  H           1     -21.724  -5.101  -1.619  0.00  0.00     0.274 HD
HETATM   12  H           1     -23.277  -5.556  -2.160  0.00  0.00     0.274 HD
HETATM   13  H           1     -21.895  -6.337  -2.784  0.00  0.00     0.274 HD
ENDBRANCH   9  10
ENDBRANCH   8   9
ENDBRANCH   7   8
ENDBRANCH   6   7
ENDBRANCH   5   6
BRANCH   5  14
HETATM   14  C           1     -20.757 -10.267  -5.042  0.00  0.00     0.196 C 
HETATM   15  O           1     -20.423 -10.686  -6.172  0.00  0.00    -0.646 OA
HETATM   16  O           1     -21.576 -10.912  -4.353  0.00  0.00    -0.646 OA
ENDBRANCH   5  14
ENDBRANCH   2   5
BRANCH   3  17
HETATM   17  C           1     -21.503  -5.877  -6.319  0.00  0.00     0.275 C 
BRANCH  17  18
HETATM   18  C           1     -20.710  -4.581  -6.222  0.00  0.00     0.053 C 
BRANCH  18  19
HETATM   19  C           1     -21.222  -3.593  -7.262  0.00  0.00     0.076 C 
BRANCH  19  20
HETATM   20  S           1     -21.578  -4.471  -8.810  0.00  0.00    -0.173 SA
HETATM   21  C           1     -23.300  -3.916  -8.962  0.00  0.00     0.089 C 
ENDBRANCH  19  20
ENDBRANCH  18  19
ENDBRANCH  17  18
BRANCH  17  22
HETATM   22  N           1     -22.689  -5.806  -5.403  0.00  0.00    -0.066 N 
HETATM   23  H           1     -22.439  -5.257  -4.551  0.00  0.00     0.275 HD
HETATM   24  H           1     -22.972  -6.774  -5.125  0.00  0.00     0.275 HD
HETATM   25  H           1     -23.484  -5.341  -5.897  0.00  0.00     0.275 HD
ENDBRANCH  17  22
ENDBRANCH   3  17
TORSDOF 12
ENDMDL
MODEL 8
REMARK VINA RESULT:      -5.1     15.363     16.548
REMARK  12 active torsions:
REMARK  status: ('A' for Active; 'I' for Inactive)
REMARK    1  A    between atoms: C_3  and  C_23 
REMARK    2  A    between atoms: C_3  and  S_21 
REMARK    3  A    between atoms: C_6  and  C_15 
REMARK    4  A    between atoms: C_6  and  C_9 
REMARK    5  A    between atoms: C_6  and  N_10 
REMARK       I    between atoms: N_10  and  C_13 
REMARK    6  A    between atoms: C_13  and  C_14 
REMARK    7  A    between atoms: C_14  and  C_23 
REMARK    8  A    between atoms: C_14  and  N_25 
REMARK    9  A    between atoms: C_15  and  C_19 
REMARK   10  A    between atoms: N_16  and  C_17 
REMARK   11  A    between atoms: C_17  and  C_18 
REMARK   12  A    between atoms: C_18  and  C_19 
ROOT
HETATM    1  H           1     -21.365  -8.501  -6.361  0.00  0.00     0.163 HD
HETATM    2  N           1     -20.709  -8.152  -5.675  0.00  0.00    -0.345 N 
HETATM    3  C           1     -19.890  -9.021  -5.007  0.00  0.00     0.249 C 
HETATM    4  O           1     -19.105  -8.604  -4.188  0.00  0.00    -0.271 OA
ENDROOT
BRANCH   2   5
HETATM    5  C           1     -20.636  -6.730  -5.400  0.00  0.00     0.185 C 
BRANCH   5   6
HETATM    6  C           1     -20.612  -5.960  -6.713  0.00  0.00     0.036 C 
BRANCH   6   7
HETATM    7  C           1     -20.258  -4.503  -6.442  0.00  0.00     0.004 C 
BRANCH   7   8
HETATM    8  C           1     -21.254  -3.598  -7.154  0.00  0.00     0.027 C 
BRANCH   8   9
HETATM    9  C           1     -22.215  -4.446  -7.978  0.00  0.00     0.229 C 
BRANCH   9  10
HETATM   10  N           1     -23.614  -4.250  -7.473  0.00  0.00    -0.079 N 
HETATM   11  H           1     -23.676  -3.338  -6.965  0.00  0.00     0.274 HD
HETATM   12  H           1     -23.861  -5.029  -6.822  0.00  0.00     0.274 HD
HETATM   13  H           1     -24.278  -4.246  -8.279  0.00  0.00     0.274 HD
ENDBRANCH   9  10
ENDBRANCH   8   9
ENDBRANCH   7   8
ENDBRANCH   6   7
ENDBRANCH   5   6
BRANCH   5  14
HETATM   14  C           1     -21.840  -6.311  -4.593  0.00  0.00     0.196 C 
HETATM   15  O           1     -22.969  -6.272  -5.128  0.00  0.00    -0.646 OA
HETATM   16  O           1     -21.709  -6.002  -3.389  0.00  0.00    -0.646 OA
ENDBRANCH   5  14
ENDBRANCH   2   5
BRANCH   3  17
HETATM   17  C           1     -19.966 -10.500  -5.293  0.00  0.00     0.275 C 
BRANCH  17  18
HETATM   18  C           1     -18.669 -10.959  -5.945  0.00  0.00     0.053 C 
BRANCH  18  19
HETATM   19  C           1     -17.867 -11.791  -4.953  0.00  0.00     0.076 C 
BRANCH  19  20
HETATM   20  S           1     -16.099 -11.658  -5.340  0.00  0.00    -0.173 SA
HETATM   21  C           1     -15.879  -9.976  -4.692  0.00  0.00     0.089 C 
ENDBRANCH  19  20
ENDBRANCH  18  19
ENDBRANCH  17  18
BRANCH  17  22
HETATM   22  N           1     -21.114 -10.771  -6.220  0.00  0.00    -0.066 N 
HETATM   23  H           1     -21.123 -11.783  -6.477  0.00  0.00     0.275 HD
HETATM   24  H           1     -21.007 -10.192  -7.085  0.00  0.00     0.275 HD
HETATM   25  H           1     -22.011 -10.523  -5.746  0.00  0.00     0.275 HD
ENDBRANCH  17  22
ENDBRANCH   3  17
TORSDOF 12
ENDMDL
MODEL 9
REMARK VINA RESULT:      -5.0     15.013     16.120
REMARK  12 active torsions:
REMARK  status: ('A' for Active; 'I' for Inactive)
REMARK    1  A    between atoms: C_3  and  C_23 
REMARK    2  A    between atoms: C_3  and  S_21 
REMARK    3  A    between atoms: C_6  and  C_15 
REMARK    4  A    between atoms: C_6  and  C_9 
REMARK    5  A    between atoms: C_6  and  N_10 
REMARK       I    between atoms: N_10  and  C_13 
REMARK    6  A    between atoms: C_13  and  C_14 
REMARK    7  A    between atoms: C_14  and  C_23 
REMARK    8  A    between atoms: C_14  and  N_25 
REMARK    9  A    between atoms: C_15  and  C_19 
REMARK   10  A    between atoms: N_16  and  C_17 
REMARK   11  A    between atoms: C_17  and  C_18 
REMARK   12  A    between atoms: C_18  and  C_19 
ROOT
HETATM    1  H           1     -20.247  -5.853  -3.371  0.00  0.00     0.163 HD
HETATM    2  N           1     -20.816  -6.627  -3.687  0.00  0.00    -0.345 N 
HETATM    3  C           1     -21.140  -6.743  -5.013  0.00  0.00     0.249 C 
HETATM    4  O           1     -21.818  -7.667  -5.391  0.00  0.00    -0.271 OA
ENDROOT
BRANCH   2   5
HETATM    5  C           1     -21.289  -7.616  -2.738  0.00  0.00     0.185 C 
BRANCH   5   6
HETATM    6  C           1     -20.098  -8.352  -2.138  0.00  0.00     0.036 C 
BRANCH   6   7
HETATM    7  C           1     -19.762  -9.562  -3.000  0.00  0.00     0.004 C 
BRANCH   7   8
HETATM    8  C           1     -18.407  -9.353  -3.663  0.00  0.00     0.027 C 
BRANCH   8   9
HETATM    9  C           1     -18.564  -9.425  -5.176  0.00  0.00     0.229 C 
BRANCH   9  10
HETATM   10  N           1     -19.894 -10.031  -5.513  0.00  0.00    -0.079 N 
HETATM   11  H           1     -19.774 -11.053  -5.700  0.00  0.00     0.274 HD
HETATM   12  H           1     -20.284  -9.564  -6.362  0.00  0.00     0.274 HD
HETATM   13  H           1     -20.551  -9.898  -4.711  0.00  0.00     0.274 HD
ENDBRANCH   9  10
ENDBRANCH   8   9
ENDBRANCH   7   8
ENDBRANCH   6   7
ENDBRANCH   5   6
BRANCH   5  14
HETATM   14  C           1     -22.061  -6.928  -1.639  0.00  0.00     0.196 C 
HETATM   15  O           1     -22.304  -7.534  -0.572  0.00  0.00    -0.646 OA
HETATM   16  O           1     -22.459  -5.754  -1.794  0.00  0.00    -0.646 OA
ENDBRANCH   5  14
ENDBRANCH   2   5
BRANCH   3  17
HETATM   17  C           1     -20.648  -5.714  -6.001  0.00  0.00     0.275 C 
BRANCH  17  18
HETATM   18  C           1     -21.839  -5.044  -6.672  0.00  0.00     0.053 C 
BRANCH  18  19
HETATM   19  C           1     -21.354  -3.880  -7.525  0.00  0.00     0.076 C 
BRANCH  19  20
HETATM   20  S           1     -21.872  -4.132  -9.246  0.00  0.00    -0.173 SA
HETATM   21  C           1     -23.654  -3.960  -8.945  0.00  0.00     0.089 C 
ENDBRANCH  19  20
ENDBRANCH  18  19
ENDBRANCH  17  18
BRANCH  17  22
HETATM   22  N           1     -19.802  -6.386  -7.042  0.00  0.00    -0.066 N 
HETATM   23  H           1     -20.123  -6.096  -7.992  0.00  0.00     0.275 HD
HETATM   24  H           1     -19.890  -7.424  -6.945  0.00  0.00     0.275 HD
HETATM   25  H           1     -18.803  -6.109  -6.912  0.00  0.00     0.275 HD
ENDBRANCH  17  22
ENDBRANCH   3  17
TORSDOF 12
ENDMDL
