MODEL 1
REMARK VINA RESULT:      -5.9      0.000      0.000
REMARK  11 active torsions:
REMARK  status: ('A' for Active; 'I' for Inactive)
REMARK    1  A    between atoms: C_2  and  N_19 
REMARK    2  A    between atoms: C_2  and  C_17 
REMARK    3  A    between atoms: C_4  and  C_10 
REMARK    4  A    between atoms: C_4  and  O_5 
REMARK    5  A    between atoms: N_6  and  C_10 
REMARK       I    between atoms: C_7  and  N_8 
REMARK    6  A    between atoms: C_7  and  C_10 
REMARK    7  A    between atoms: N_8  and  C_21 
REMARK    8  A    between atoms: C_9  and  C_17 
REMARK    9  A    between atoms: C_9  and  C_22 
REMARK   10  A    between atoms: C_21  and  C_22 
REMARK   11  A    between atoms: C_21  and  C_24 
ROOT
HETATM    1  C           1     -36.773  -0.262 -13.621  0.00  0.00     0.251 C 
HETATM    2  N           1     -36.012  -0.295 -12.484  0.00  0.00    -0.345 N 
HETATM    3  O           1     -37.862  -0.785 -13.635  0.00  0.00    -0.271 OA
HETATM    4  H           1     -35.100   0.142 -12.472  0.00  0.00     0.163 HD
ENDROOT
BRANCH   2   5
HETATM    5  C           1     -36.514  -0.957 -11.295  0.00  0.00     0.185 C 
BRANCH   5   6
HETATM    6  C           1     -35.425  -1.847 -10.712  0.00  0.00     0.036 C 
BRANCH   6   7
HETATM    7  C           1     -34.290  -1.987 -11.718  0.00  0.00     0.004 C 
BRANCH   7   8
HETATM    8  C           1     -33.221  -2.911 -11.152  0.00  0.00     0.027 C 
BRANCH   8   9
HETATM    9  C           1     -33.132  -4.170 -12.006  0.00  0.00     0.229 C 
BRANCH   9  10
HETATM   10  N           1     -33.694  -3.890 -13.368  0.00  0.00    -0.079 N 
HETATM   11  H           1     -33.463  -2.910 -13.645  0.00  0.00     0.274 HD
HETATM   12  H           1     -33.277  -4.555 -14.059  0.00  0.00     0.274 HD
HETATM   13  H           1     -34.731  -4.012 -13.350  0.00  0.00     0.274 HD
ENDBRANCH   9  10
ENDBRANCH   8   9
ENDBRANCH   7   8
ENDBRANCH   6   7
ENDBRANCH   5   6
BRANCH   5  14
HETATM   14  C           1     -36.918   0.081 -10.274  0.00  0.00     0.196 C 
HETATM   15  O           1     -36.215   0.262  -9.258  0.00  0.00    -0.646 OA
HETATM   16  O           1     -37.953   0.757 -10.448  0.00  0.00    -0.646 OA
ENDBRANCH   5  14
ENDBRANCH   2   5
BRANCH   1  17
HETATM   17  C           1     -36.250   0.426 -14.858  0.00  0.00     0.297 C 
BRANCH  17  18
HETATM   18  C           1     -35.621  -0.605 -15.787  0.00  0.00     0.206 C 
BRANCH  18  19
HETATM   19  O           1     -35.229  -1.726 -15.043  0.00  0.00    -0.398 OA
HETATM   20  H           1     -34.707  -1.409 -14.325  0.00  0.00     0.209 HD
ENDBRANCH  18  19
ENDBRANCH  17  18
BRANCH  17  21
HETATM   21  N           1     -35.217   1.441 -14.467  0.00  0.00    -0.064 N 
HETATM   22  H           1     -34.471   1.480 -15.197  0.00  0.00     0.275 HD
HETATM   23  H           1     -35.668   2.381 -14.380  0.00  0.00     0.275 HD
HETATM   24  H           1     -34.794   1.171 -13.551  0.00  0.00     0.275 HD
ENDBRANCH  17  21
ENDBRANCH   1  17
TORSDOF 11
ENDMDL
MODEL 2
REMARK VINA RESULT:      -5.8     11.597     12.962
REMARK  11 active torsions:
REMARK  status: ('A' for Active; 'I' for Inactive)
REMARK    1  A    between atoms: C_2  and  N_19 
REMARK    2  A    between atoms: C_2  and  C_17 
REMARK    3  A    between atoms: C_4  and  C_10 
REMARK    4  A    between atoms: C_4  and  O_5 
REMARK    5  A    between atoms: N_6  and  C_10 
REMARK       I    between atoms: C_7  and  N_8 
REMARK    6  A    between atoms: C_7  and  C_10 
REMARK    7  A    between atoms: N_8  and  C_21 
REMARK    8  A    between atoms: C_9  and  C_17 
REMARK    9  A    between atoms: C_9  and  C_22 
REMARK   10  A    between atoms: C_21  and  C_22 
REMARK   11  A    between atoms: C_21  and  C_24 
ROOT
HETATM    1  C           1     -23.527  -3.250 -13.188  0.00  0.00     0.251 C 
HETATM    2  N           1     -23.128  -3.231 -11.878  0.00  0.00    -0.345 N 
HETATM    3  O           1     -24.333  -4.068 -13.561  0.00  0.00    -0.271 OA
HETATM    4  H           1     -22.452  -2.546 -11.565  0.00  0.00     0.163 HD
ENDROOT
BRANCH   2   5
HETATM    5  C           1     -23.674  -4.192 -10.940  0.00  0.00     0.185 C 
BRANCH   5   6
HETATM    6  C           1     -22.539  -4.839 -10.158  0.00  0.00     0.036 C 
BRANCH   6   7
HETATM    7  C           1     -21.257  -4.046 -10.374  0.00  0.00     0.004 C 
BRANCH   7   8
HETATM    8  C           1     -20.353  -4.201  -9.158  0.00  0.00     0.027 C 
BRANCH   8   9
HETATM    9  C           1     -21.193  -4.572  -7.943  0.00  0.00     0.229 C 
BRANCH   9  10
HETATM   10  N           1     -21.605  -3.323  -7.220  0.00  0.00    -0.079 N 
HETATM   11  H           1     -22.647  -3.265  -7.193  0.00  0.00     0.274 HD
HETATM   12  H           1     -21.230  -3.347  -6.244  0.00  0.00     0.274 HD
HETATM   13  H           1     -21.223  -2.489  -7.720  0.00  0.00     0.274 HD
ENDBRANCH   9  10
ENDBRANCH   8   9
ENDBRANCH   7   8
ENDBRANCH   6   7
ENDBRANCH   5   6
BRANCH   5  14
HETATM   14  C           1     -24.606  -3.487  -9.983  0.00  0.00     0.196 C 
HETATM   15  O           1     -24.226  -3.221  -8.823  0.00  0.00    -0.646 OA
HETATM   16  O           1     -25.756  -3.168 -10.353  0.00  0.00    -0.646 OA
ENDBRANCH   5  14
ENDBRANCH   2   5
BRANCH   1  17
HETATM   17  C           1     -22.958  -2.250 -14.164  0.00  0.00     0.297 C 
BRANCH  17  18
HETATM   18  C           1     -24.077  -1.361 -14.692  0.00  0.00     0.206 C 
BRANCH  18  19
HETATM   19  O           1     -25.165  -1.406 -13.809  0.00  0.00    -0.398 OA
HETATM   20  H           1     -24.809  -1.406 -12.937  0.00  0.00     0.209 HD
ENDBRANCH  18  19
ENDBRANCH  17  18
BRANCH  17  21
HETATM   21  N           1     -22.318  -2.978 -15.309  0.00  0.00    -0.064 N 
HETATM   22  H           1     -21.518  -2.416 -15.677  0.00  0.00     0.275 HD
HETATM   23  H           1     -21.968  -3.907 -14.979  0.00  0.00     0.275 HD
HETATM   24  H           1     -23.022  -3.121 -16.068  0.00  0.00     0.275 HD
ENDBRANCH  17  21
ENDBRANCH   1  17
TORSDOF 11
ENDMDL
MODEL 3
REMARK VINA RESULT:      -5.7      2.615      4.537
REMARK  11 active torsions:
REMARK  status: ('A' for Active; 'I' for Inactive)
REMARK    1  A    between atoms: C_2  and  N_19 
REMARK    2  A    between atoms: C_2  and  C_17 
REMARK    3  A    between atoms: C_4  and  C_10 
REMARK    4  A    between atoms: C_4  and  O_5 
REMARK    5  A    between atoms: N_6  and  C_10 
REMARK       I    between atoms: C_7  and  N_8 
REMARK    6  A    between atoms: C_7  and  C_10 
REMARK    7  A    between atoms: N_8  and  C_21 
REMARK    8  A    between atoms: C_9  and  C_17 
REMARK    9  A    between atoms: C_9  and  C_22 
REMARK   10  A    between atoms: C_21  and  C_22 
REMARK   11  A    between atoms: C_21  and  C_24 
ROOT
HETATM    1  C           1     -35.582  -1.287 -10.965  0.00  0.00     0.251 C 
HETATM    2  N           1     -35.183  -2.583 -11.153  0.00  0.00    -0.345 N 
HETATM    3  O           1     -34.976  -0.385 -11.492  0.00  0.00    -0.271 OA
HETATM    4  H           1     -35.692  -3.338 -10.712  0.00  0.00     0.163 HD
ENDROOT
BRANCH   2   5
HETATM    5  C           1     -34.032  -2.873 -11.986  0.00  0.00     0.185 C 
BRANCH   5   6
HETATM    6  C           1     -33.261  -4.045 -11.395  0.00  0.00     0.036 C 
BRANCH   6   7
HETATM    7  C           1     -34.173  -4.837 -10.467  0.00  0.00     0.004 C 
BRANCH   7   8
HETATM    8  C           1     -34.231  -6.288 -10.928  0.00  0.00     0.027 C 
BRANCH   8   9
HETATM    9  C           1     -34.803  -7.154  -9.813  0.00  0.00     0.229 C 
BRANCH   9  10
HETATM   10  N           1     -34.287  -8.555  -9.954  0.00  0.00    -0.079 N 
HETATM   11  H           1     -34.033  -8.734 -10.951  0.00  0.00     0.274 HD
HETATM   12  H           1     -33.442  -8.678  -9.350  0.00  0.00     0.274 HD
HETATM   13  H           1     -35.028  -9.231  -9.658  0.00  0.00     0.274 HD
ENDBRANCH   9  10
ENDBRANCH   8   9
ENDBRANCH   7   8
ENDBRANCH   6   7
ENDBRANCH   5   6
BRANCH   5  14
HETATM   14  C           1     -34.496  -3.227 -13.379  0.00  0.00     0.196 C 
HETATM   15  O           1     -34.546  -4.423 -13.736  0.00  0.00    -0.646 OA
HETATM   16  O           1     -34.831  -2.323 -14.174  0.00  0.00    -0.646 OA
ENDBRANCH   5  14
ENDBRANCH   2   5
BRANCH   1  17
HETATM   17  C           1     -36.780  -0.985 -10.098  0.00  0.00     0.297 C 
BRANCH  17  18
HETATM   18  C           1     -37.863  -0.321 -10.940  0.00  0.00     0.206 C 
BRANCH  18  19
HETATM   19  O           1     -37.697  -0.682 -12.284  0.00  0.00    -0.398 OA
HETATM   20  H           1     -37.976   0.054 -12.801  0.00  0.00     0.209 HD
ENDBRANCH  18  19
ENDBRANCH  17  18
BRANCH  17  21
HETATM   21  N           1     -36.374  -0.060  -8.989  0.00  0.00    -0.064 N 
HETATM   22  H           1     -35.661  -0.529  -8.386  0.00  0.00     0.275 HD
HETATM   23  H           1     -35.965   0.813  -9.396  0.00  0.00     0.275 HD
HETATM   24  H           1     -37.212   0.183  -8.414  0.00  0.00     0.275 HD
ENDBRANCH  17  21
ENDBRANCH   1  17
TORSDOF 11
ENDMDL
MODEL 4
REMARK VINA RESULT:      -5.6     12.433     14.809
REMARK  11 active torsions:
REMARK  status: ('A' for Active; 'I' for Inactive)
REMARK    1  A    between atoms: C_2  and  N_19 
REMARK    2  A    between atoms: C_2  and  C_17 
REMARK    3  A    between atoms: C_4  and  C_10 
REMARK    4  A    between atoms: C_4  and  O_5 
REMARK    5  A    between atoms: N_6  and  C_10 
REMARK       I    between atoms: C_7  and  N_8 
REMARK    6  A    between atoms: C_7  and  C_10 
REMARK    7  A    between atoms: N_8  and  C_21 
REMARK    8  A    between atoms: C_9  and  C_17 
REMARK    9  A    between atoms: C_9  and  C_22 
REMARK   10  A    between atoms: C_21  and  C_22 
REMARK   11  A    between atoms: C_21  and  C_24 
ROOT
HETATM    1  C           1     -21.668  -4.348  -7.012  0.00  0.00     0.251 C 
HETATM    2  N           1     -22.596  -4.641  -7.974  0.00  0.00    -0.345 N 
HETATM    3  O           1     -21.028  -3.326  -7.080  0.00  0.00    -0.271 OA
HETATM    4  H           1     -23.131  -5.497  -7.917  0.00  0.00     0.163 HD
ENDROOT
BRANCH   2   5
HETATM    5  C           1     -22.812  -3.722  -9.076  0.00  0.00     0.185 C 
BRANCH   5   6
HETATM    6  C           1     -21.870  -4.072 -10.220  0.00  0.00     0.036 C 
BRANCH   6   7
HETATM    7  C           1     -21.969  -3.007 -11.303  0.00  0.00     0.004 C 
BRANCH   7   8
HETATM    8  C           1     -22.088  -3.677 -12.666  0.00  0.00     0.027 C 
BRANCH   8   9
HETATM    9  C           1     -23.064  -2.895 -13.535  0.00  0.00     0.229 C 
BRANCH   9  10
HETATM   10  N           1     -24.241  -2.470 -12.707  0.00  0.00    -0.079 N 
HETATM   11  H           1     -23.916  -1.850 -11.932  0.00  0.00     0.274 HD
HETATM   12  H           1     -24.921  -1.951 -13.308  0.00  0.00     0.274 HD
HETATM   13  H           1     -24.707  -3.315 -12.304  0.00  0.00     0.274 HD
ENDBRANCH   9  10
ENDBRANCH   8   9
ENDBRANCH   7   8
ENDBRANCH   6   7
ENDBRANCH   5   6
BRANCH   5  14
HETATM   14  C           1     -24.242  -3.831  -9.548  0.00  0.00     0.196 C 
HETATM   15  O           1     -24.682  -4.927  -9.957  0.00  0.00    -0.646 OA
HETATM   16  O           1     -24.984  -2.827  -9.530  0.00  0.00    -0.646 OA
ENDBRANCH   5  14
ENDBRANCH   2   5
BRANCH   1  17
HETATM   17  C           1     -21.443  -5.304  -5.866  0.00  0.00     0.297 C 
BRANCH  17  18
HETATM   18  C           1     -20.450  -6.380  -6.288  0.00  0.00     0.206 C 
BRANCH  18  19
HETATM   19  O           1     -20.027  -6.136  -7.601  0.00  0.00    -0.398 OA
HETATM   20  H           1     -19.719  -5.246  -7.628  0.00  0.00     0.209 HD
ENDBRANCH  18  19
ENDBRANCH  17  18
BRANCH  17  21
HETATM   21  N           1     -22.745  -5.947  -5.489  0.00  0.00    -0.064 N 
HETATM   22  H           1     -23.062  -6.575  -6.262  0.00  0.00     0.275 HD
HETATM   23  H           1     -22.615  -6.509  -4.616  0.00  0.00     0.275 HD
HETATM   24  H           1     -23.463  -5.208  -5.323  0.00  0.00     0.275 HD
ENDBRANCH  17  21
ENDBRANCH   1  17
TORSDOF 11
ENDMDL
MODEL 5
REMARK VINA RESULT:      -5.5     12.347     14.210
REMARK  11 active torsions:
REMARK  status: ('A' for Active; 'I' for Inactive)
REMARK    1  A    between atoms: C_2  and  N_19 
REMARK    2  A    between atoms: C_2  and  C_17 
REMARK    3  A    between atoms: C_4  and  C_10 
REMARK    4  A    between atoms: C_4  and  O_5 
REMARK    5  A    between atoms: N_6  and  C_10 
REMARK       I    between atoms: C_7  and  N_8 
REMARK    6  A    between atoms: C_7  and  C_10 
REMARK    7  A    between atoms: N_8  and  C_21 
REMARK    8  A    between atoms: C_9  and  C_17 
REMARK    9  A    between atoms: C_9  and  C_22 
REMARK   10  A    between atoms: C_21  and  C_22 
REMARK   11  A    between atoms: C_21  and  C_24 
ROOT
HETATM    1  C           1     -22.669  -3.787 -11.592  0.00  0.00     0.251 C 
HETATM    2  N           1     -22.238  -3.326 -10.378  0.00  0.00    -0.345 N 
HETATM    3  O           1     -22.875  -4.966 -11.753  0.00  0.00    -0.271 OA
HETATM    4  H           1     -22.066  -2.338 -10.243  0.00  0.00     0.163 HD
ENDROOT
BRANCH   2   5
HETATM    5  C           1     -22.028  -4.253  -9.283  0.00  0.00     0.185 C 
BRANCH   5   6
HETATM    6  C           1     -20.767  -3.864  -8.523  0.00  0.00     0.036 C 
BRANCH   6   7
HETATM    7  C           1     -20.019  -5.123  -8.103  0.00  0.00     0.004 C 
BRANCH   7   8
HETATM    8  C           1     -19.530  -4.968  -6.669  0.00  0.00     0.027 C 
BRANCH   8   9
HETATM    9  C           1     -20.250  -5.969  -5.775  0.00  0.00     0.229 C 
BRANCH   9  10
HETATM   10  N           1     -21.063  -6.902  -6.622  0.00  0.00    -0.079 N 
HETATM   11  H           1     -20.774  -6.807  -7.621  0.00  0.00     0.274 HD
HETATM   12  H           1     -20.906  -7.887  -6.306  0.00  0.00     0.274 HD
HETATM   13  H           1     -22.077  -6.665  -6.529  0.00  0.00     0.274 HD
ENDBRANCH   9  10
ENDBRANCH   8   9
ENDBRANCH   7   8
ENDBRANCH   6   7
ENDBRANCH   5   6
BRANCH   5  14
HETATM   14  C           1     -23.214  -4.206  -8.349  0.00  0.00     0.196 C 
HETATM   15  O           1     -23.074  -4.513  -7.146  0.00  0.00    -0.646 OA
HETATM   16  O           1     -24.334  -3.858  -8.780  0.00  0.00    -0.646 OA
ENDBRANCH   5  14
ENDBRANCH   2   5
BRANCH   1  17
HETATM   17  C           1     -22.887  -2.821 -12.731  0.00  0.00     0.297 C 
BRANCH  17  18
HETATM   18  C           1     -24.381  -2.598 -12.930  0.00  0.00     0.206 C 
BRANCH  18  19
HETATM   19  O           1     -25.075  -3.037 -11.794  0.00  0.00    -0.398 OA
HETATM   20  H           1     -24.697  -3.864 -11.547  0.00  0.00     0.209 HD
ENDBRANCH  18  19
ENDBRANCH  17  18
BRANCH  17  21
HETATM   21  N           1     -22.297  -3.389 -13.988  0.00  0.00    -0.064 N 
HETATM   22  H           1     -21.630  -2.700 -14.404  0.00  0.00     0.275 HD
HETATM   23  H           1     -21.787  -4.275 -13.764  0.00  0.00     0.275 HD
HETATM   24  H           1     -23.061  -3.591 -14.671  0.00  0.00     0.275 HD
ENDBRANCH  17  21
ENDBRANCH   1  17
TORSDOF 11
ENDMDL
MODEL 6
REMARK VINA RESULT:      -5.5      2.309      4.762
REMARK  11 active torsions:
REMARK  status: ('A' for Active; 'I' for Inactive)
REMARK    1  A    between atoms: C_2  and  N_19 
REMARK    2  A    between atoms: C_2  and  C_17 
REMARK    3  A    between atoms: C_4  and  C_10 
REMARK    4  A    between atoms: C_4  and  O_5 
REMARK    5  A    between atoms: N_6  and  C_10 
REMARK       I    between atoms: C_7  and  N_8 
REMARK    6  A    between atoms: C_7  and  C_10 
REMARK    7  A    between atoms: N_8  and  C_21 
REMARK    8  A    between atoms: C_9  and  C_17 
REMARK    9  A    between atoms: C_9  and  C_22 
REMARK   10  A    between atoms: C_21  and  C_22 
REMARK   11  A    between atoms: C_21  and  C_24 
ROOT
HETATM    1  C           1     -36.663  -0.205  -8.973  0.00  0.00     0.251 C 
HETATM    2  N           1     -36.638  -0.776 -10.217  0.00  0.00    -0.345 N 
HETATM    3  O           1     -35.634  -0.043  -8.362  0.00  0.00    -0.271 OA
HETATM    4  H           1     -37.500  -0.912 -10.729  0.00  0.00     0.163 HD
ENDROOT
BRANCH   2   5
HETATM    5  C           1     -35.376  -1.184 -10.802  0.00  0.00     0.185 C 
BRANCH   5   6
HETATM    6  C           1     -35.224  -2.694 -10.678  0.00  0.00     0.036 C 
BRANCH   6   7
HETATM    7  C           1     -33.747  -3.062 -10.734  0.00  0.00     0.004 C 
BRANCH   7   8
HETATM    8  C           1     -33.600  -4.502 -11.208  0.00  0.00     0.027 C 
BRANCH   8   9
HETATM    9  C           1     -34.473  -4.725 -12.436  0.00  0.00     0.229 C 
BRANCH   9  10
HETATM   10  N           1     -33.851  -4.049 -13.622  0.00  0.00    -0.079 N 
HETATM   11  H           1     -33.142  -3.355 -13.294  0.00  0.00     0.274 HD
HETATM   12  H           1     -33.385  -4.765 -14.226  0.00  0.00     0.274 HD
HETATM   13  H           1     -34.591  -3.557 -14.171  0.00  0.00     0.274 HD
ENDBRANCH   9  10
ENDBRANCH   8   9
ENDBRANCH   7   8
ENDBRANCH   6   7
ENDBRANCH   5   6
BRANCH   5  14
HETATM   14  C           1     -35.348  -0.793 -12.261  0.00  0.00     0.196 C 
HETATM   15  O           1     -34.868   0.309 -12.603  0.00  0.00    -0.646 OA
HETATM   16  O           1     -35.803  -1.572 -13.125  0.00  0.00    -0.646 OA
ENDBRANCH   5  14
ENDBRANCH   2   5
BRANCH   1  17
HETATM   17  C           1     -37.977   0.219  -8.364  0.00  0.00     0.297 C 
BRANCH  17  18
HETATM   18  C           1     -38.057   1.741  -8.337  0.00  0.00     0.206 C 
BRANCH  18  19
HETATM   19  O           1     -37.018   2.249  -7.546  0.00  0.00    -0.398 OA
HETATM   20  H           1     -37.354   3.014  -7.111  0.00  0.00     0.209 HD
ENDBRANCH  18  19
ENDBRANCH  17  18
BRANCH  17  21
HETATM   21  N           1     -38.073  -0.310  -6.963  0.00  0.00    -0.064 N 
HETATM   22  H           1     -37.591   0.346  -6.308  0.00  0.00     0.275 HD
HETATM   23  H           1     -39.080  -0.396  -6.693  0.00  0.00     0.275 HD
HETATM   24  H           1     -37.618  -1.249  -6.914  0.00  0.00     0.275 HD
ENDBRANCH  17  21
ENDBRANCH   1  17
TORSDOF 11
ENDMDL
MODEL 7
REMARK VINA RESULT:      -5.3      2.446      4.850
REMARK  11 active torsions:
REMARK  status: ('A' for Active; 'I' for Inactive)
REMARK    1  A    between atoms: C_2  and  N_19 
REMARK    2  A    between atoms: C_2  and  C_17 
REMARK    3  A    between atoms: C_4  and  C_10 
REMARK    4  A    between atoms: C_4  and  O_5 
REMARK    5  A    between atoms: N_6  and  C_10 
REMARK       I    between atoms: C_7  and  N_8 
REMARK    6  A    between atoms: C_7  and  C_10 
REMARK    7  A    between atoms: N_8  and  C_21 
REMARK    8  A    between atoms: C_9  and  C_17 
REMARK    9  A    between atoms: C_9  and  C_22 
REMARK   10  A    between atoms: C_21  and  C_22 
REMARK   11  A    between atoms: C_21  and  C_24 
ROOT
HETATM    1  C           1     -34.507  -2.862 -13.111  0.00  0.00     0.251 C 
HETATM    2  N           1     -35.066  -1.758 -12.524  0.00  0.00    -0.345 N 
HETATM    3  O           1     -34.672  -3.069 -14.289  0.00  0.00    -0.271 OA
HETATM    4  H           1     -34.926  -1.585 -11.537  0.00  0.00     0.163 HD
ENDROOT
BRANCH   2   5
HETATM    5  C           1     -35.856  -0.838 -13.318  0.00  0.00     0.185 C 
BRANCH   5   6
HETATM    6  C           1     -36.925  -0.201 -12.440  0.00  0.00     0.036 C 
BRANCH   6   7
HETATM    7  C           1     -36.742  -0.662 -11.000  0.00  0.00     0.004 C 
BRANCH   7   8
HETATM    8  C           1     -37.775   0.020 -10.113  0.00  0.00     0.027 C 
BRANCH   8   9
HETATM    9  C           1     -37.233   0.129  -8.693  0.00  0.00     0.229 C 
BRANCH   9  10
HETATM   10  N           1     -36.347   1.335  -8.587  0.00  0.00    -0.079 N 
HETATM   11  H           1     -36.503   1.802  -7.666  0.00  0.00     0.274 HD
HETATM   12  H           1     -35.347   1.039  -8.664  0.00  0.00     0.274 HD
HETATM   13  H           1     -36.572   2.003  -9.359  0.00  0.00     0.274 HD
ENDBRANCH   9  10
ENDBRANCH   8   9
ENDBRANCH   7   8
ENDBRANCH   6   7
ENDBRANCH   5   6
BRANCH   5  14
HETATM   14  C           1     -34.960   0.238 -13.881  0.00  0.00     0.196 C 
HETATM   15  O           1     -34.551   1.160 -13.143  0.00  0.00    -0.646 OA
HETATM   16  O           1     -34.626   0.206 -15.084  0.00  0.00    -0.646 OA
ENDBRANCH   5  14
ENDBRANCH   2   5
BRANCH   1  17
HETATM   17  C           1     -33.684  -3.820 -12.284  0.00  0.00     0.297 C 
BRANCH  17  18
HETATM   18  C           1     -34.526  -5.038 -11.929  0.00  0.00     0.206 C 
BRANCH  18  19
HETATM   19  O           1     -35.080  -5.580 -13.097  0.00  0.00    -0.398 OA
HETATM   20  H           1     -36.015  -5.490 -13.023  0.00  0.00     0.209 HD
ENDBRANCH  18  19
ENDBRANCH  17  18
BRANCH  17  21
HETATM   21  N           1     -33.237  -3.138 -11.025  0.00  0.00    -0.064 N 
HETATM   22  H           1     -33.500  -3.722 -10.199  0.00  0.00     0.275 HD
HETATM   23  H           1     -32.199  -3.012 -11.047  0.00  0.00     0.275 HD
HETATM   24  H           1     -33.700  -2.204 -10.952  0.00  0.00     0.275 HD
ENDBRANCH  17  21
ENDBRANCH   1  17
TORSDOF 11
ENDMDL
MODEL 8
REMARK VINA RESULT:      -4.9     14.389     16.897
REMARK  11 active torsions:
REMARK  status: ('A' for Active; 'I' for Inactive)
REMARK    1  A    between atoms: C_2  and  N_19 
REMARK    2  A    between atoms: C_2  and  C_17 
REMARK    3  A    between atoms: C_4  and  C_10 
REMARK    4  A    between atoms: C_4  and  O_5 
REMARK    5  A    between atoms: N_6  and  C_10 
REMARK       I    between atoms: C_7  and  N_8 
REMARK    6  A    between atoms: C_7  and  C_10 
REMARK    7  A    between atoms: N_8  and  C_21 
REMARK    8  A    between atoms: C_9  and  C_17 
REMARK    9  A    between atoms: C_9  and  C_22 
REMARK   10  A    between atoms: C_21  and  C_22 
REMARK   11  A    between atoms: C_21  and  C_24 
ROOT
HETATM    1  C           1     -21.573  -6.390  -4.440  0.00  0.00     0.251 C 
HETATM    2  N           1     -21.082  -5.404  -5.253  0.00  0.00    -0.345 N 
HETATM    3  O           1     -22.250  -7.276  -4.905  0.00  0.00    -0.271 OA
HETATM    4  H           1     -20.516  -4.662  -4.863  0.00  0.00     0.163 HD
ENDROOT
BRANCH   2   5
HETATM    5  C           1     -21.373  -5.424  -6.674  0.00  0.00     0.185 C 
BRANCH   5   6
HETATM    6  C           1     -21.916  -4.067  -7.099  0.00  0.00     0.036 C 
BRANCH   6   7
HETATM    7  C           1     -23.207  -4.260  -7.884  0.00  0.00     0.004 C 
BRANCH   7   8
HETATM    8  C           1     -22.955  -3.964  -9.357  0.00  0.00     0.027 C 
BRANCH   8   9
HETATM    9  C           1     -24.186  -4.345 -10.170  0.00  0.00     0.229 C 
BRANCH   9  10
HETATM   10  N           1     -25.379  -3.600  -9.650  0.00  0.00    -0.079 N 
HETATM   11  H           1     -25.808  -4.136  -8.862  0.00  0.00     0.274 HD
HETATM   12  H           1     -25.080  -2.658  -9.309  0.00  0.00     0.274 HD
HETATM   13  H           1     -26.081  -3.487 -10.415  0.00  0.00     0.274 HD
ENDBRANCH   9  10
ENDBRANCH   8   9
ENDBRANCH   7   8
ENDBRANCH   6   7
ENDBRANCH   5   6
BRANCH   5  14
HETATM   14  C           1     -20.108  -5.725  -7.442  0.00  0.00     0.196 C 
HETATM   15  O           1     -19.458  -6.762  -7.192  0.00  0.00    -0.646 OA
HETATM   16  O           1     -19.714  -4.937  -8.327  0.00  0.00    -0.646 OA
ENDBRANCH   5  14
ENDBRANCH   2   5
BRANCH   1  17
HETATM   17  C           1     -21.271  -6.369  -2.962  0.00  0.00     0.297 C 
BRANCH  17  18
HETATM   18  C           1     -20.928  -7.777  -2.492  0.00  0.00     0.206 C 
BRANCH  18  19
HETATM   19  O           1     -20.016  -8.358  -3.384  0.00  0.00    -0.398 OA
HETATM   20  H           1     -19.344  -8.762  -2.863  0.00  0.00     0.209 HD
ENDBRANCH  18  19
ENDBRANCH  17  18
BRANCH  17  21
HETATM   21  N           1     -22.472  -5.872  -2.213  0.00  0.00    -0.064 N 
HETATM   22  H           1     -23.178  -6.638  -2.137  0.00  0.00     0.275 HD
HETATM   23  H           1     -22.183  -5.569  -1.254  0.00  0.00     0.275 HD
HETATM   24  H           1     -22.889  -5.062  -2.722  0.00  0.00     0.275 HD
ENDBRANCH  17  21
ENDBRANCH   1  17
TORSDOF 11
ENDMDL
MODEL 9
REMARK VINA RESULT:      -4.9     25.346     26.634
REMARK  11 active torsions:
REMARK  status: ('A' for Active; 'I' for Inactive)
REMARK    1  A    between atoms: C_2  and  N_19 
REMARK    2  A    between atoms: C_2  and  C_17 
REMARK    3  A    between atoms: C_4  and  C_10 
REMARK    4  A    between atoms: C_4  and  O_5 
REMARK    5  A    between atoms: N_6  and  C_10 
REMARK       I    between atoms: C_7  and  N_8 
REMARK    6  A    between atoms: C_7  and  C_10 
REMARK    7  A    between atoms: N_8  and  C_21 
REMARK    8  A    between atoms: C_9  and  C_17 
REMARK    9  A    between atoms: C_9  and  C_22 
REMARK   10  A    between atoms: C_21  and  C_22 
REMARK   11  A    between atoms: C_21  and  C_24 
ROOT
HETATM    1  C           1     -12.235   4.377 -21.686  0.00  0.00     0.251 C 
HETATM    2  N           1     -11.590   5.531 -21.329  0.00  0.00    -0.345 N 
HETATM    3  O           1     -11.745   3.305 -21.424  0.00  0.00    -0.271 OA
HETATM    4  H           1     -12.001   6.429 -21.548  0.00  0.00     0.163 HD
ENDROOT
BRANCH   2   5
HETATM    5  C           1     -10.319   5.464 -20.635  0.00  0.00     0.185 C 
BRANCH   5   6
HETATM    6  C           1      -9.474   6.675 -21.008  0.00  0.00     0.036 C 
BRANCH   6   7
HETATM    7  C           1     -10.382   7.799 -21.490  0.00  0.00     0.004 C 
BRANCH   7   8
HETATM    8  C           1     -10.090   9.065 -20.695  0.00  0.00     0.027 C 
BRANCH   8   9
HETATM    9  C           1     -10.959   9.090 -19.443  0.00  0.00     0.229 C 
BRANCH   9  10
HETATM   10  N           1     -10.087   8.982 -18.227  0.00  0.00    -0.079 N 
HETATM   11  H           1     -10.624   8.531 -17.453  0.00  0.00     0.274 HD
HETATM   12  H           1      -9.246   8.403 -18.453  0.00  0.00     0.274 HD
HETATM   13  H           1      -9.783   9.937 -17.930  0.00  0.00     0.274 HD
ENDBRANCH   9  10
ENDBRANCH   8   9
ENDBRANCH   7   8
ENDBRANCH   6   7
ENDBRANCH   5   6
BRANCH   5  14
HETATM   14  C           1     -10.560   5.458 -19.144  0.00  0.00     0.196 C 
HETATM   15  O           1      -9.629   5.743 -18.360  0.00  0.00    -0.646 OA
HETATM   16  O           1     -11.689   5.168 -18.695  0.00  0.00    -0.646 OA
ENDBRANCH   5  14
ENDBRANCH   2   5
BRANCH   1  17
HETATM   17  C           1     -13.558   4.446 -22.409  0.00  0.00     0.297 C 
BRANCH  17  18
HETATM   18  C           1     -14.633   4.954 -21.456  0.00  0.00     0.206 C 
BRANCH  18  19
HETATM   19  O           1     -14.256   4.673 -20.135  0.00  0.00    -0.398 OA
HETATM   20  H           1     -14.992   4.891 -19.589  0.00  0.00     0.209 HD
ENDBRANCH  18  19
ENDBRANCH  17  18
BRANCH  17  21
HETATM   21  N           1     -13.932   3.078 -22.899  0.00  0.00    -0.064 N 
HETATM   22  H           1     -14.191   2.474 -22.086  0.00  0.00     0.275 HD
HETATM   23  H           1     -14.748   3.153 -23.550  0.00  0.00     0.275 HD
HETATM   24  H           1     -13.121   2.655 -23.403  0.00  0.00     0.275 HD
ENDBRANCH  17  21
ENDBRANCH   1  17
TORSDOF 11
ENDMDL
