MODEL 1
REMARK VINA RESULT:      -7.2      0.000      0.000
REMARK  12 active torsions:
REMARK  status: ('A' for Active; 'I' for Inactive)
REMARK    1  A    between atoms: C_1  and  C_22 
REMARK    2  A    between atoms: C_1  and  C_10 
REMARK    3  A    between atoms: C_2  and  O_25 
REMARK    4  A    between atoms: N_3  and  C_10 
REMARK    5  A    between atoms: C_6  and  C_20 
REMARK    6  A    between atoms: C_6  and  C_24 
REMARK    7  A    between atoms: C_8  and  C_24 
REMARK    8  A    between atoms: C_9  and  C_13 
REMARK    9  A    between atoms: C_9  and  C_23 
REMARK   10  A    between atoms: C_9  and  N_18 
REMARK       I    between atoms: C_13  and  N_15 
REMARK   11  A    between atoms: N_15  and  C_24 
REMARK   12  A    between atoms: C_22  and  C_23 
ROOT
HETATM    1  C           1     -34.845  -2.318 -11.377  0.00  0.00     0.249 C 
HETATM    2  O           1     -33.895  -1.598 -11.179  0.00  0.00    -0.271 OA
HETATM    3  N           1     -36.115  -1.824 -11.260  0.00  0.00    -0.344 N 
HETATM    4  H           1     -36.910  -2.427 -11.427  0.00  0.00     0.163 HD
ENDROOT
BRANCH   1   5
HETATM    5  C           1     -34.629  -3.764 -11.753  0.00  0.00     0.274 C 
BRANCH   5   6
HETATM    6  C           1     -33.837  -4.462 -10.655  0.00  0.00     0.042 C 
BRANCH   6   7
HETATM    7  C           1     -33.804  -5.960 -10.925  0.00  0.00     0.004 C 
BRANCH   7   8
HETATM    8  C           1     -34.528  -6.695  -9.804  0.00  0.00     0.027 C 
BRANCH   8   9
HETATM    9  C           1     -34.676  -8.164 -10.172  0.00  0.00     0.229 C 
BRANCH   9  10
HETATM   10  N           1     -33.327  -8.821 -10.165  0.00  0.00    -0.079 N 
HETATM   11  H           1     -33.436  -9.845 -10.347  0.00  0.00     0.274 HD
HETATM   12  H           1     -32.730  -8.397 -10.909  0.00  0.00     0.274 HD
HETATM   13  H           1     -32.877  -8.680  -9.232  0.00  0.00     0.274 HD
ENDBRANCH   9  10
ENDBRANCH   8   9
ENDBRANCH   7   8
ENDBRANCH   6   7
ENDBRANCH   5   6
BRANCH   5  14
HETATM   14  N           1     -33.865  -3.836 -13.042  0.00  0.00    -0.067 N 
HETATM   15  H           1     -34.333  -4.511 -13.688  0.00  0.00     0.275 HD
HETATM   16  H           1     -33.842  -2.889 -13.485  0.00  0.00     0.275 HD
HETATM   17  H           1     -32.889  -4.156 -12.851  0.00  0.00     0.275 HD
ENDBRANCH   5  14
ENDBRANCH   1   5
BRANCH   3  18
HETATM   18  C           1     -36.323  -0.435 -10.900  0.00  0.00     0.189 C 
BRANCH  18  19
HETATM   19  C           1     -37.448   0.146 -11.746  0.00  0.00     0.074 C 
BRANCH  19  20
HETATM   20  C           1     -37.099   0.017 -13.196  0.00  0.00    -0.056 A 
HETATM   21  C           1     -38.075  -0.365 -14.118  0.00  0.00     0.010 A 
HETATM   22  C           1     -37.748  -0.485 -15.469  0.00  0.00     0.037 A 
HETATM   23  C           1     -36.447  -0.223 -15.898  0.00  0.00     0.065 A 
HETATM   24  C           1     -35.473   0.161 -14.977  0.00  0.00     0.037 A 
HETATM   25  C           1     -35.799   0.281 -13.625  0.00  0.00     0.010 A 
BRANCH  23  26
HETATM   26  O           1     -36.131  -0.338 -17.211  0.00  0.00    -0.361 OA
HETATM   27  H           1     -36.300   0.518 -17.637  0.00  0.00     0.217 HD
ENDBRANCH  23  26
ENDBRANCH  19  20
ENDBRANCH  18  19
BRANCH  18  28
HETATM   28  C           1     -36.694  -0.346  -9.440  0.00  0.00     0.197 C 
HETATM   29  O           1     -35.799  -0.266  -8.571  0.00  0.00    -0.646 OA
HETATM   30  O           1     -37.897  -0.352  -9.098  0.00  0.00    -0.646 OA
ENDBRANCH  18  28
ENDBRANCH   3  18
TORSDOF 12
ENDMDL
MODEL 2
REMARK VINA RESULT:      -7.2     13.838     16.192
REMARK  12 active torsions:
REMARK  status: ('A' for Active; 'I' for Inactive)
REMARK    1  A    between atoms: C_1  and  C_22 
REMARK    2  A    between atoms: C_1  and  C_10 
REMARK    3  A    between atoms: C_2  and  O_25 
REMARK    4  A    between atoms: N_3  and  C_10 
REMARK    5  A    between atoms: C_6  and  C_20 
REMARK    6  A    between atoms: C_6  and  C_24 
REMARK    7  A    between atoms: C_8  and  C_24 
REMARK    8  A    between atoms: C_9  and  C_13 
REMARK    9  A    between atoms: C_9  and  C_23 
REMARK   10  A    between atoms: C_9  and  N_18 
REMARK       I    between atoms: C_13  and  N_15 
REMARK   11  A    between atoms: N_15  and  C_24 
REMARK   12  A    between atoms: C_22  and  C_23 
ROOT
HETATM    1  C           1     -21.279  -6.247  -4.400  0.00  0.00     0.249 C 
HETATM    2  O           1     -21.546  -7.294  -4.941  0.00  0.00    -0.271 OA
HETATM    3  N           1     -21.001  -5.139  -5.153  0.00  0.00    -0.344 N 
HETATM    4  H           1     -20.777  -4.262  -4.700  0.00  0.00     0.163 HD
ENDROOT
BRANCH   1   5
HETATM    5  C           1     -21.250  -6.162  -2.893  0.00  0.00     0.274 C 
BRANCH   5   6
HETATM    6  C           1     -20.730  -7.475  -2.321  0.00  0.00     0.042 C 
BRANCH   6   7
HETATM    7  C           1     -21.837  -8.158  -1.529  0.00  0.00     0.004 C 
BRANCH   7   8
HETATM    8  C           1     -21.286  -8.635  -0.192  0.00  0.00     0.027 C 
BRANCH   8   9
HETATM    9  C           1     -22.051  -7.967   0.942  0.00  0.00     0.229 C 
BRANCH   9  10
HETATM   10  N           1     -23.522  -8.011   0.648  0.00  0.00    -0.079 N 
HETATM   11  H           1     -23.669  -8.070  -0.386  0.00  0.00     0.274 HD
HETATM   12  H           1     -23.942  -8.849   1.107  0.00  0.00     0.274 HD
HETATM   13  H           1     -23.976  -7.145   1.016  0.00  0.00     0.274 HD
ENDBRANCH   9  10
ENDBRANCH   8   9
ENDBRANCH   7   8
ENDBRANCH   6   7
ENDBRANCH   5   6
BRANCH   5  14
HETATM   14  N           1     -22.637  -5.909  -2.381  0.00  0.00    -0.067 N 
HETATM   15  H           1     -23.269  -6.682  -2.692  0.00  0.00     0.275 HD
HETATM   16  H           1     -22.620  -5.872  -1.337  0.00  0.00     0.275 HD
HETATM   17  H           1     -22.987  -5.000  -2.758  0.00  0.00     0.275 HD
ENDBRANCH   5  14
ENDBRANCH   1   5
BRANCH   3  18
HETATM   18  C           1     -21.029  -5.220  -6.600  0.00  0.00     0.189 C 
BRANCH  18  19
HETATM   19  C           1     -21.500  -3.889  -7.174  0.00  0.00     0.074 C 
BRANCH  19  20
HETATM   20  C           1     -22.064  -4.109  -8.543  0.00  0.00    -0.056 A 
HETATM   21  C           1     -21.220  -4.105  -9.654  0.00  0.00     0.010 A 
HETATM   22  C           1     -21.747  -4.309 -10.930  0.00  0.00     0.037 A 
HETATM   23  C           1     -23.116  -4.517 -11.095  0.00  0.00     0.065 A 
HETATM   24  C           1     -23.959  -4.522  -9.984  0.00  0.00     0.037 A 
HETATM   25  C           1     -23.434  -4.317  -8.708  0.00  0.00     0.010 A 
BRANCH  23  26
HETATM   26  O           1     -23.627  -4.717 -12.334  0.00  0.00    -0.361 OA
HETATM   27  H           1     -24.046  -5.593 -12.348  0.00  0.00     0.217 HD
ENDBRANCH  23  26
ENDBRANCH  19  20
ENDBRANCH  18  19
BRANCH  18  28
HETATM   28  C           1     -19.643  -5.526  -7.113  0.00  0.00     0.197 C 
HETATM   29  O           1     -18.815  -4.602  -7.265  0.00  0.00    -0.646 OA
HETATM   30  O           1     -19.323  -6.703  -7.385  0.00  0.00    -0.646 OA
ENDBRANCH  18  28
ENDBRANCH   3  18
TORSDOF 12
ENDMDL
MODEL 3
REMARK VINA RESULT:      -7.0      2.578      5.874
REMARK  12 active torsions:
REMARK  status: ('A' for Active; 'I' for Inactive)
REMARK    1  A    between atoms: C_1  and  C_22 
REMARK    2  A    between atoms: C_1  and  C_10 
REMARK    3  A    between atoms: C_2  and  O_25 
REMARK    4  A    between atoms: N_3  and  C_10 
REMARK    5  A    between atoms: C_6  and  C_20 
REMARK    6  A    between atoms: C_6  and  C_24 
REMARK    7  A    between atoms: C_8  and  C_24 
REMARK    8  A    between atoms: C_9  and  C_13 
REMARK    9  A    between atoms: C_9  and  C_23 
REMARK   10  A    between atoms: C_9  and  N_18 
REMARK       I    between atoms: C_13  and  N_15 
REMARK   11  A    between atoms: N_15  and  C_24 
REMARK   12  A    between atoms: C_22  and  C_23 
ROOT
HETATM    1  C           1     -37.016  -0.200 -14.038  0.00  0.00     0.249 C 
HETATM    2  O           1     -37.934  -0.950 -13.807  0.00  0.00    -0.271 OA
HETATM    3  N           1     -36.048   0.008 -13.093  0.00  0.00    -0.344 N 
HETATM    4  H           1     -35.279   0.636 -13.286  0.00  0.00     0.163 HD
ENDROOT
BRANCH   1   5
HETATM    5  C           1     -36.936   0.509 -15.368  0.00  0.00     0.274 C 
BRANCH   5   6
HETATM    6  C           1     -36.685  -0.511 -16.472  0.00  0.00     0.042 C 
BRANCH   6   7
HETATM    7  C           1     -35.224  -0.939 -16.446  0.00  0.00     0.004 C 
BRANCH   7   8
HETATM    8  C           1     -35.140  -2.460 -16.439  0.00  0.00     0.027 C 
BRANCH   8   9
HETATM    9  C           1     -33.893  -2.904 -17.189  0.00  0.00     0.229 C 
BRANCH   9  10
HETATM   10  N           1     -33.292  -4.095 -16.502  0.00  0.00    -0.079 N 
HETATM   11  H           1     -33.953  -4.903 -16.564  0.00  0.00     0.274 HD
HETATM   12  H           1     -32.392  -4.347 -16.967  0.00  0.00     0.274 HD
HETATM   13  H           1     -33.116  -3.866 -15.498  0.00  0.00     0.274 HD
ENDBRANCH   9  10
ENDBRANCH   8   9
ENDBRANCH   7   8
ENDBRANCH   6   7
ENDBRANCH   5   6
BRANCH   5  14
HETATM   14  N           1     -35.810   1.500 -15.339  0.00  0.00    -0.067 N 
HETATM   15  H           1     -34.898   0.992 -15.393  0.00  0.00     0.275 HD
HETATM   16  H           1     -35.897   2.147 -16.155  0.00  0.00     0.275 HD
HETATM   17  H           1     -35.852   2.048 -14.451  0.00  0.00     0.275 HD
ENDBRANCH   5  14
ENDBRANCH   1   5
BRANCH   3  18
HETATM   18  C           1     -36.124  -0.673 -11.815  0.00  0.00     0.189 C 
BRANCH  18  19
HETATM   19  C           1     -34.716  -0.962 -11.310  0.00  0.00     0.074 C 
BRANCH  19  20
HETATM   20  C           1     -34.506  -2.443 -11.243  0.00  0.00    -0.056 A 
HETATM   21  C           1     -33.239  -2.979 -11.478  0.00  0.00     0.010 A 
HETATM   22  C           1     -33.044  -4.359 -11.416  0.00  0.00     0.037 A 
HETATM   23  C           1     -34.115  -5.202 -11.118  0.00  0.00     0.065 A 
HETATM   24  C           1     -35.380  -4.666 -10.882  0.00  0.00     0.037 A 
HETATM   25  C           1     -35.576  -3.286 -10.945  0.00  0.00     0.010 A 
BRANCH  23  26
HETATM   26  O           1     -33.924  -6.542 -11.056  0.00  0.00    -0.361 OA
HETATM   27  H           1     -34.655  -6.926 -10.545  0.00  0.00     0.217 HD
ENDBRANCH  23  26
ENDBRANCH  19  20
ENDBRANCH  18  19
BRANCH  18  28
HETATM   28  C           1     -36.844   0.205 -10.821  0.00  0.00     0.197 C 
HETATM   29  O           1     -36.212   0.734  -9.881  0.00  0.00    -0.646 OA
HETATM   30  O           1     -38.073   0.405 -10.938  0.00  0.00    -0.646 OA
ENDBRANCH  18  28
ENDBRANCH   3  18
TORSDOF 12
ENDMDL
MODEL 4
REMARK VINA RESULT:      -6.9     15.001     18.168
REMARK  12 active torsions:
REMARK  status: ('A' for Active; 'I' for Inactive)
REMARK    1  A    between atoms: C_1  and  C_22 
REMARK    2  A    between atoms: C_1  and  C_10 
REMARK    3  A    between atoms: C_2  and  O_25 
REMARK    4  A    between atoms: N_3  and  C_10 
REMARK    5  A    between atoms: C_6  and  C_20 
REMARK    6  A    between atoms: C_6  and  C_24 
REMARK    7  A    between atoms: C_8  and  C_24 
REMARK    8  A    between atoms: C_9  and  C_13 
REMARK    9  A    between atoms: C_9  and  C_23 
REMARK   10  A    between atoms: C_9  and  N_18 
REMARK       I    between atoms: C_13  and  N_15 
REMARK   11  A    between atoms: N_15  and  C_24 
REMARK   12  A    between atoms: C_22  and  C_23 
ROOT
HETATM    1  C           1     -20.935  -5.529  -6.474  0.00  0.00     0.249 C 
HETATM    2  O           1     -20.729  -4.816  -5.521  0.00  0.00    -0.271 OA
HETATM    3  N           1     -20.827  -6.888  -6.349  0.00  0.00    -0.344 N 
HETATM    4  H           1     -21.000  -7.485  -7.148  0.00  0.00     0.163 HD
ENDROOT
BRANCH   1   5
HETATM    5  C           1     -21.310  -4.921  -7.804  0.00  0.00     0.274 C 
BRANCH   5   6
HETATM    6  C           1     -20.065  -4.356  -8.474  0.00  0.00     0.042 C 
BRANCH   6   7
HETATM    7  C           1     -19.980  -4.868  -9.905  0.00  0.00     0.004 C 
BRANCH   7   8
HETATM    8  C           1     -20.500  -3.801 -10.859  0.00  0.00     0.027 C 
BRANCH   8   9
HETATM    9  C           1     -21.758  -4.308 -11.551  0.00  0.00     0.229 C 
BRANCH   9  10
HETATM   10  N           1     -21.918  -3.612 -12.871  0.00  0.00    -0.079 N 
HETATM   11  H           1     -22.924  -3.370 -13.018  0.00  0.00     0.274 HD
HETATM   12  H           1     -21.346  -2.738 -12.874  0.00  0.00     0.274 HD
HETATM   13  H           1     -21.596  -4.244 -13.639  0.00  0.00     0.274 HD
ENDBRANCH   9  10
ENDBRANCH   8   9
ENDBRANCH   7   8
ENDBRANCH   6   7
ENDBRANCH   5   6
BRANCH   5  14
HETATM   14  N           1     -22.303  -3.818  -7.585  0.00  0.00    -0.067 N 
HETATM   15  H           1     -22.443  -3.293  -8.479  0.00  0.00     0.275 HD
HETATM   16  H           1     -23.214  -4.227  -7.276  0.00  0.00     0.275 HD
HETATM   17  H           1     -21.944  -3.167  -6.852  0.00  0.00     0.275 HD
ENDBRANCH   5  14
ENDBRANCH   1   5
BRANCH   3  18
HETATM   18  C           1     -20.467  -7.472  -5.072  0.00  0.00     0.189 C 
BRANCH  18  19
HETATM   19  C           1     -21.622  -8.324  -4.560  0.00  0.00     0.074 C 
BRANCH  19  20
HETATM   20  C           1     -21.754  -8.146  -3.080  0.00  0.00    -0.056 A 
HETATM   21  C           1     -21.978  -6.876  -2.546  0.00  0.00     0.010 A 
HETATM   22  C           1     -22.101  -6.712  -1.167  0.00  0.00     0.037 A 
HETATM   23  C           1     -22.001  -7.816  -0.321  0.00  0.00     0.065 A 
HETATM   24  C           1     -21.779  -9.085  -0.854  0.00  0.00     0.037 A 
HETATM   25  C           1     -21.655  -9.251  -2.234  0.00  0.00     0.010 A 
BRANCH  23  26
HETATM   26  O           1     -22.122  -7.656   1.019  0.00  0.00    -0.361 OA
HETATM   27  H           1     -22.768  -6.948   1.180  0.00  0.00     0.217 HD
ENDBRANCH  23  26
ENDBRANCH  19  20
ENDBRANCH  18  19
BRANCH  18  28
HETATM   28  C           1     -19.242  -8.337  -5.244  0.00  0.00     0.197 C 
HETATM   29  O           1     -18.693  -8.427  -6.363  0.00  0.00    -0.646 OA
HETATM   30  O           1     -18.777  -8.963  -4.267  0.00  0.00    -0.646 OA
ENDBRANCH  18  28
ENDBRANCH   3  18
TORSDOF 12
ENDMDL
MODEL 5
REMARK VINA RESULT:      -6.8      4.496      7.223
REMARK  12 active torsions:
REMARK  status: ('A' for Active; 'I' for Inactive)
REMARK    1  A    between atoms: C_1  and  C_22 
REMARK    2  A    between atoms: C_1  and  C_10 
REMARK    3  A    between atoms: C_2  and  O_25 
REMARK    4  A    between atoms: N_3  and  C_10 
REMARK    5  A    between atoms: C_6  and  C_20 
REMARK    6  A    between atoms: C_6  and  C_24 
REMARK    7  A    between atoms: C_8  and  C_24 
REMARK    8  A    between atoms: C_9  and  C_13 
REMARK    9  A    between atoms: C_9  and  C_23 
REMARK   10  A    between atoms: C_9  and  N_18 
REMARK       I    between atoms: C_13  and  N_15 
REMARK   11  A    between atoms: N_15  and  C_24 
REMARK   12  A    between atoms: C_22  and  C_23 
ROOT
HETATM    1  C           1     -33.967  -4.490 -15.437  0.00  0.00     0.249 C 
HETATM    2  O           1     -35.030  -5.062 -15.391  0.00  0.00    -0.271 OA
HETATM    3  N           1     -33.481  -3.857 -14.325  0.00  0.00    -0.344 N 
HETATM    4  H           1     -32.591  -3.378 -14.364  0.00  0.00     0.163 HD
ENDROOT
BRANCH   1   5
HETATM    5  C           1     -33.174  -4.472 -16.721  0.00  0.00     0.274 C 
BRANCH   5   6
HETATM    6  C           1     -31.724  -4.836 -16.429  0.00  0.00     0.042 C 
BRANCH   6   7
HETATM    7  C           1     -31.334  -6.064 -17.239  0.00  0.00     0.004 C 
BRANCH   7   8
HETATM    8  C           1     -29.903  -6.463 -16.902  0.00  0.00     0.027 C 
BRANCH   8   9
HETATM    9  C           1     -29.182  -6.892 -18.172  0.00  0.00     0.229 C 
BRANCH   9  10
HETATM   10  N           1     -29.644  -8.263 -18.571  0.00  0.00    -0.079 N 
HETATM   11  H           1     -30.188  -8.689 -17.786  0.00  0.00     0.274 HD
HETATM   12  H           1     -30.251  -8.191 -19.417  0.00  0.00     0.274 HD
HETATM   13  H           1     -28.814  -8.861 -18.785  0.00  0.00     0.274 HD
ENDBRANCH   9  10
ENDBRANCH   8   9
ENDBRANCH   7   8
ENDBRANCH   6   7
ENDBRANCH   5   6
BRANCH   5  14
HETATM   14  N           1     -33.232  -3.100 -17.325  0.00  0.00    -0.067 N 
HETATM   15  H           1     -34.009  -2.558 -16.883  0.00  0.00     0.275 HD
HETATM   16  H           1     -32.325  -2.609 -17.157  0.00  0.00     0.275 HD
HETATM   17  H           1     -33.403  -3.178 -18.352  0.00  0.00     0.275 HD
ENDBRANCH   5  14
ENDBRANCH   1   5
BRANCH   3  18
HETATM   18  C           1     -34.241  -3.874 -13.091  0.00  0.00     0.189 C 
BRANCH  18  19
HETATM   19  C           1     -33.293  -4.059 -11.913  0.00  0.00     0.074 C 
BRANCH  19  20
HETATM   20  C           1     -33.614  -5.342 -11.211  0.00  0.00    -0.056 A 
HETATM   21  C           1     -32.682  -6.380 -11.194  0.00  0.00     0.010 A 
HETATM   22  C           1     -32.982  -7.575 -10.540  0.00  0.00     0.037 A 
HETATM   23  C           1     -34.214  -7.732  -9.903  0.00  0.00     0.065 A 
HETATM   24  C           1     -35.144  -6.694  -9.920  0.00  0.00     0.037 A 
HETATM   25  C           1     -34.845  -5.498 -10.574  0.00  0.00     0.010 A 
BRANCH  23  26
HETATM   26  O           1     -34.504  -8.893  -9.267  0.00  0.00    -0.361 OA
HETATM   27  H           1     -35.426  -9.123  -9.469  0.00  0.00     0.217 HD
ENDBRANCH  23  26
ENDBRANCH  19  20
ENDBRANCH  18  19
BRANCH  18  28
HETATM   28  C           1     -34.982  -2.568 -12.940  0.00  0.00     0.197 C 
HETATM   29  O           1     -34.848  -1.670 -13.800  0.00  0.00    -0.646 OA
HETATM   30  O           1     -35.730  -2.383 -11.956  0.00  0.00    -0.646 OA
ENDBRANCH  18  28
ENDBRANCH   3  18
TORSDOF 12
ENDMDL
MODEL 6
REMARK VINA RESULT:      -6.4     14.130     16.417
REMARK  12 active torsions:
REMARK  status: ('A' for Active; 'I' for Inactive)
REMARK    1  A    between atoms: C_1  and  C_22 
REMARK    2  A    between atoms: C_1  and  C_10 
REMARK    3  A    between atoms: C_2  and  O_25 
REMARK    4  A    between atoms: N_3  and  C_10 
REMARK    5  A    between atoms: C_6  and  C_20 
REMARK    6  A    between atoms: C_6  and  C_24 
REMARK    7  A    between atoms: C_8  and  C_24 
REMARK    8  A    between atoms: C_9  and  C_13 
REMARK    9  A    between atoms: C_9  and  C_23 
REMARK   10  A    between atoms: C_9  and  N_18 
REMARK       I    between atoms: C_13  and  N_15 
REMARK   11  A    between atoms: N_15  and  C_24 
REMARK   12  A    between atoms: C_22  and  C_23 
ROOT
HETATM    1  C           1     -21.356  -6.510  -4.459  0.00  0.00     0.249 C 
HETATM    2  O           1     -21.640  -7.511  -5.074  0.00  0.00    -0.271 OA
HETATM    3  N           1     -21.036  -5.362  -5.131  0.00  0.00    -0.344 N 
HETATM    4  H           1     -20.799  -4.524  -4.615  0.00  0.00     0.163 HD
ENDROOT
BRANCH   1   5
HETATM    5  C           1     -21.354  -6.528  -2.950  0.00  0.00     0.274 C 
BRANCH   5   6
HETATM    6  C           1     -21.348  -7.970  -2.459  0.00  0.00     0.042 C 
BRANCH   6   7
HETATM    7  C           1     -19.920  -8.397  -2.153  0.00  0.00     0.004 C 
BRANCH   7   8
HETATM    8  C           1     -19.587  -9.659  -2.939  0.00  0.00     0.027 C 
BRANCH   8   9
HETATM    9  C           1     -18.855 -10.642  -2.037  0.00  0.00     0.229 C 
BRANCH   9  10
HETATM   10  N           1     -17.376 -10.521  -2.260  0.00  0.00    -0.079 N 
HETATM   11  H           1     -17.193 -10.267  -3.257  0.00  0.00     0.274 HD
HETATM   12  H           1     -16.990  -9.779  -1.635  0.00  0.00     0.274 HD
HETATM   13  H           1     -16.916 -11.434  -2.043  0.00  0.00     0.274 HD
ENDBRANCH   9  10
ENDBRANCH   8   9
ENDBRANCH   7   8
ENDBRANCH   6   7
ENDBRANCH   5   6
BRANCH   5  14
HETATM   14  N           1     -22.583  -5.833  -2.441  0.00  0.00    -0.067 N 
HETATM   15  H           1     -22.667  -5.984  -1.410  0.00  0.00     0.275 HD
HETATM   16  H           1     -22.509  -4.809  -2.638  0.00  0.00     0.275 HD
HETATM   17  H           1     -23.426  -6.221  -2.920  0.00  0.00     0.275 HD
ENDBRANCH   5  14
ENDBRANCH   1   5
BRANCH   3  18
HETATM   18  C           1     -21.038  -5.344  -6.580  0.00  0.00     0.189 C 
BRANCH  18  19
HETATM   19  C           1     -21.549  -3.995  -7.071  0.00  0.00     0.074 C 
BRANCH  19  20
HETATM   20  C           1     -22.094  -4.143  -8.457  0.00  0.00    -0.056 A 
HETATM   21  C           1     -23.462  -4.334  -8.652  0.00  0.00     0.010 A 
HETATM   22  C           1     -23.970  -4.471  -9.944  0.00  0.00     0.037 A 
HETATM   23  C           1     -23.109  -4.418 -11.041  0.00  0.00     0.065 A 
HETATM   24  C           1     -21.742  -4.226 -10.845  0.00  0.00     0.037 A 
HETATM   25  C           1     -21.234  -4.089  -9.553  0.00  0.00     0.010 A 
BRANCH  23  26
HETATM   26  O           1     -23.603  -4.551 -12.296  0.00  0.00    -0.361 OA
HETATM   27  H           1     -23.253  -3.822 -12.834  0.00  0.00     0.217 HD
ENDBRANCH  23  26
ENDBRANCH  19  20
ENDBRANCH  18  19
BRANCH  18  28
HETATM   28  C           1     -19.634  -5.565  -7.086  0.00  0.00     0.197 C 
HETATM   29  O           1     -19.261  -6.712  -7.416  0.00  0.00    -0.646 OA
HETATM   30  O           1     -18.842  -4.601  -7.176  0.00  0.00    -0.646 OA
ENDBRANCH  18  28
ENDBRANCH   3  18
TORSDOF 12
ENDMDL
MODEL 7
REMARK VINA RESULT:      -6.4      1.854      2.730
REMARK  12 active torsions:
REMARK  status: ('A' for Active; 'I' for Inactive)
REMARK    1  A    between atoms: C_1  and  C_22 
REMARK    2  A    between atoms: C_1  and  C_10 
REMARK    3  A    between atoms: C_2  and  O_25 
REMARK    4  A    between atoms: N_3  and  C_10 
REMARK    5  A    between atoms: C_6  and  C_20 
REMARK    6  A    between atoms: C_6  and  C_24 
REMARK    7  A    between atoms: C_8  and  C_24 
REMARK    8  A    between atoms: C_9  and  C_13 
REMARK    9  A    between atoms: C_9  and  C_23 
REMARK   10  A    between atoms: C_9  and  N_18 
REMARK       I    between atoms: C_13  and  N_15 
REMARK   11  A    between atoms: N_15  and  C_24 
REMARK   12  A    between atoms: C_22  and  C_23 
ROOT
HETATM    1  C           1     -34.539  -2.336 -10.552  0.00  0.00     0.249 C 
HETATM    2  O           1     -33.719  -1.452 -10.633  0.00  0.00    -0.271 OA
HETATM    3  N           1     -35.865  -2.028 -10.410  0.00  0.00    -0.344 N 
HETATM    4  H           1     -36.552  -2.768 -10.343  0.00  0.00     0.163 HD
ENDROOT
BRANCH   1   5
HETATM    5  C           1     -34.101  -3.779 -10.607  0.00  0.00     0.274 C 
BRANCH   5   6
HETATM    6  C           1     -33.280  -4.013 -11.869  0.00  0.00     0.042 C 
BRANCH   6   7
HETATM    7  C           1     -34.180  -4.568 -12.965  0.00  0.00     0.004 C 
BRANCH   7   8
HETATM    8  C           1     -34.087  -3.679 -14.199  0.00  0.00     0.027 C 
BRANCH   8   9
HETATM    9  C           1     -34.282  -4.524 -15.450  0.00  0.00     0.229 C 
BRANCH   9  10
HETATM   10  N           1     -33.072  -4.402 -16.329  0.00  0.00    -0.079 N 
HETATM   11  H           1     -32.232  -4.199 -15.741  0.00  0.00     0.274 HD
HETATM   12  H           1     -32.926  -5.298 -16.845  0.00  0.00     0.274 HD
HETATM   13  H           1     -33.215  -3.624 -17.012  0.00  0.00     0.274 HD
ENDBRANCH   9  10
ENDBRANCH   8   9
ENDBRANCH   7   8
ENDBRANCH   6   7
ENDBRANCH   5   6
BRANCH   5  14
HETATM   14  N           1     -35.310  -4.667 -10.626  0.00  0.00    -0.067 N 
HETATM   15  H           1     -35.938  -4.417  -9.829  0.00  0.00     0.275 HD
HETATM   16  H           1     -35.822  -4.536 -11.528  0.00  0.00     0.275 HD
HETATM   17  H           1     -35.011  -5.664 -10.535  0.00  0.00     0.275 HD
ENDBRANCH   5  14
ENDBRANCH   1   5
BRANCH   3  18
HETATM   18  C           1     -36.286  -0.642 -10.358  0.00  0.00     0.189 C 
BRANCH  18  19
HETATM   19  C           1     -37.533  -0.458 -11.215  0.00  0.00     0.074 C 
BRANCH  19  20
HETATM   20  C           1     -37.129  -0.128 -12.618  0.00  0.00    -0.056 A 
HETATM   21  C           1     -38.075  -0.159 -13.643  0.00  0.00     0.010 A 
HETATM   22  C           1     -37.697   0.148 -14.950  0.00  0.00     0.037 A 
HETATM   23  C           1     -36.374   0.488 -15.232  0.00  0.00     0.065 A 
HETATM   24  C           1     -35.429   0.521 -14.208  0.00  0.00     0.037 A 
HETATM   25  C           1     -35.805   0.213 -12.900  0.00  0.00     0.010 A 
BRANCH  23  26
HETATM   26  O           1     -36.008   0.788 -16.502  0.00  0.00    -0.361 OA
HETATM   27  H           1     -36.266   0.045 -17.072  0.00  0.00     0.217 HD
ENDBRANCH  23  26
ENDBRANCH  19  20
ENDBRANCH  18  19
BRANCH  18  28
HETATM   28  C           1     -36.597  -0.266  -8.930  0.00  0.00     0.197 C 
HETATM   29  O           1     -37.712  -0.548  -8.438  0.00  0.00    -0.646 OA
HETATM   30  O           1     -35.741   0.327  -8.239  0.00  0.00    -0.646 OA
ENDBRANCH  18  28
ENDBRANCH   3  18
TORSDOF 12
ENDMDL
MODEL 8
REMARK VINA RESULT:      -6.4     16.433     19.403
REMARK  12 active torsions:
REMARK  status: ('A' for Active; 'I' for Inactive)
REMARK    1  A    between atoms: C_1  and  C_22 
REMARK    2  A    between atoms: C_1  and  C_10 
REMARK    3  A    between atoms: C_2  and  O_25 
REMARK    4  A    between atoms: N_3  and  C_10 
REMARK    5  A    between atoms: C_6  and  C_20 
REMARK    6  A    between atoms: C_6  and  C_24 
REMARK    7  A    between atoms: C_8  and  C_24 
REMARK    8  A    between atoms: C_9  and  C_13 
REMARK    9  A    between atoms: C_9  and  C_23 
REMARK   10  A    between atoms: C_9  and  N_18 
REMARK       I    between atoms: C_13  and  N_15 
REMARK   11  A    between atoms: N_15  and  C_24 
REMARK   12  A    between atoms: C_22  and  C_23 
ROOT
HETATM    1  C           1     -20.887  -8.353  -3.862  0.00  0.00     0.249 C 
HETATM    2  O           1     -21.903  -8.924  -4.178  0.00  0.00    -0.271 OA
HETATM    3  N           1     -20.694  -7.967  -2.563  0.00  0.00    -0.344 N 
HETATM    4  H           1     -19.842  -7.489  -2.299  0.00  0.00     0.163 HD
ENDROOT
BRANCH   1   5
HETATM    5  C           1     -19.829  -8.065  -4.900  0.00  0.00     0.274 C 
BRANCH   5   6
HETATM    6  C           1     -20.378  -7.081  -5.925  0.00  0.00     0.042 C 
BRANCH   6   7
HETATM    7  C           1     -20.755  -5.780  -5.231  0.00  0.00     0.004 C 
BRANCH   7   8
HETATM    8  C           1     -20.068  -4.613  -5.929  0.00  0.00     0.027 C 
BRANCH   8   9
HETATM    9  C           1     -20.658  -4.435  -7.321  0.00  0.00     0.229 C 
BRANCH   9  10
HETATM   10  N           1     -21.792  -3.454  -7.263  0.00  0.00    -0.079 N 
HETATM   11  H           1     -21.450  -2.549  -6.866  0.00  0.00     0.274 HD
HETATM   12  H           1     -22.162  -3.293  -8.226  0.00  0.00     0.274 HD
HETATM   13  H           1     -22.552  -3.836  -6.656  0.00  0.00     0.274 HD
ENDBRANCH   9  10
ENDBRANCH   8   9
ENDBRANCH   7   8
ENDBRANCH   6   7
ENDBRANCH   5   6
BRANCH   5  14
HETATM   14  N           1     -19.445  -9.341  -5.589  0.00  0.00    -0.067 N 
HETATM   15  H           1     -19.955  -9.412  -6.499  0.00  0.00     0.275 HD
HETATM   16  H           1     -18.415  -9.343  -5.766  0.00  0.00     0.275 HD
HETATM   17  H           1     -19.698 -10.153  -4.983  0.00  0.00     0.275 HD
ENDBRANCH   5  14
ENDBRANCH   1   5
BRANCH   3  18
HETATM   18  C           1     -21.709  -8.244  -1.566  0.00  0.00     0.189 C 
BRANCH  18  19
HETATM   19  C           1     -21.057  -8.867  -0.338  0.00  0.00     0.074 C 
BRANCH  19  20
HETATM   20  C           1     -21.729 -10.168  -0.024  0.00  0.00    -0.056 A 
HETATM   21  C           1     -21.008 -11.196   0.585  0.00  0.00     0.010 A 
HETATM   22  C           1     -21.635 -12.408   0.877  0.00  0.00     0.037 A 
HETATM   23  C           1     -22.981 -12.591   0.561  0.00  0.00     0.065 A 
HETATM   24  C           1     -23.701 -11.562  -0.046  0.00  0.00     0.037 A 
HETATM   25  C           1     -23.075 -10.350  -0.339  0.00  0.00     0.010 A 
BRANCH  23  26
HETATM   26  O           1     -23.590 -13.767   0.847  0.00  0.00    -0.361 OA
HETATM   27  H           1     -24.542 -13.660   0.687  0.00  0.00     0.217 HD
ENDBRANCH  23  26
ENDBRANCH  19  20
ENDBRANCH  18  19
BRANCH  18  28
HETATM   28  C           1     -22.392  -6.956  -1.174  0.00  0.00     0.197 C 
HETATM   29  O           1     -22.981  -6.871  -0.075  0.00  0.00    -0.646 OA
HETATM   30  O           1     -22.367  -5.974  -1.948  0.00  0.00    -0.646 OA
ENDBRANCH  18  28
ENDBRANCH   3  18
TORSDOF 12
ENDMDL
MODEL 9
REMARK VINA RESULT:      -6.2      2.495      6.395
REMARK  12 active torsions:
REMARK  status: ('A' for Active; 'I' for Inactive)
REMARK    1  A    between atoms: C_1  and  C_22 
REMARK    2  A    between atoms: C_1  and  C_10 
REMARK    3  A    between atoms: C_2  and  O_25 
REMARK    4  A    between atoms: N_3  and  C_10 
REMARK    5  A    between atoms: C_6  and  C_20 
REMARK    6  A    between atoms: C_6  and  C_24 
REMARK    7  A    between atoms: C_8  and  C_24 
REMARK    8  A    between atoms: C_9  and  C_13 
REMARK    9  A    between atoms: C_9  and  C_23 
REMARK   10  A    between atoms: C_9  and  N_18 
REMARK       I    between atoms: C_13  and  N_15 
REMARK   11  A    between atoms: N_15  and  C_24 
REMARK   12  A    between atoms: C_22  and  C_23 
ROOT
HETATM    1  C           1     -36.192  -0.651 -13.307  0.00  0.00     0.249 C 
HETATM    2  O           1     -37.172  -0.964 -12.674  0.00  0.00    -0.271 OA
HETATM    3  N           1     -34.991  -1.257 -13.052  0.00  0.00    -0.344 N 
HETATM    4  H           1     -34.170  -0.995 -13.582  0.00  0.00     0.163 HD
ENDROOT
BRANCH   1   5
HETATM    5  C           1     -36.290   0.409 -14.377  0.00  0.00     0.274 C 
BRANCH   5   6
HETATM    6  C           1     -36.693  -0.238 -15.696  0.00  0.00     0.042 C 
BRANCH   6   7
HETATM    7  C           1     -35.445  -0.580 -16.497  0.00  0.00     0.004 C 
BRANCH   7   8
HETATM    8  C           1     -35.492  -2.045 -16.912  0.00  0.00     0.027 C 
BRANCH   8   9
HETATM    9  C           1     -34.098  -2.648 -16.811  0.00  0.00     0.229 C 
BRANCH   9  10
HETATM   10  N           1     -34.169  -3.951 -16.070  0.00  0.00    -0.079 N 
HETATM   11  H           1     -34.725  -4.639 -16.627  0.00  0.00     0.274 HD
HETATM   12  H           1     -33.203  -4.320 -15.924  0.00  0.00     0.274 HD
HETATM   13  H           1     -34.629  -3.800 -15.144  0.00  0.00     0.274 HD
ENDBRANCH   9  10
ENDBRANCH   8   9
ENDBRANCH   7   8
ENDBRANCH   6   7
ENDBRANCH   5   6
BRANCH   5  14
HETATM   14  N           1     -34.959   1.081 -14.537  0.00  0.00    -0.067 N 
HETATM   15  H           1     -34.208   0.462 -14.156  0.00  0.00     0.275 HD
HETATM   16  H           1     -34.781   1.260 -15.552  0.00  0.00     0.275 HD
HETATM   17  H           1     -34.961   1.987 -14.017  0.00  0.00     0.275 HD
ENDBRANCH   5  14
ENDBRANCH   1   5
BRANCH   3  18
HETATM   18  C           1     -34.896  -2.276 -12.025  0.00  0.00     0.189 C 
BRANCH  18  19
HETATM   19  C           1     -33.874  -3.325 -12.444  0.00  0.00     0.074 C 
BRANCH  19  20
HETATM   20  C           1     -34.226  -4.640 -11.821  0.00  0.00    -0.056 A 
HETATM   21  C           1     -34.914  -5.602 -12.561  0.00  0.00     0.010 A 
HETATM   22  C           1     -35.241  -6.826 -11.978  0.00  0.00     0.037 A 
HETATM   23  C           1     -34.880  -7.089 -10.657  0.00  0.00     0.065 A 
HETATM   24  C           1     -34.191  -6.128  -9.918  0.00  0.00     0.037 A 
HETATM   25  C           1     -33.864  -4.903 -10.499  0.00  0.00     0.010 A 
BRANCH  23  26
HETATM   26  O           1     -35.197  -8.280 -10.092  0.00  0.00    -0.361 OA
HETATM   27  H           1     -34.391  -8.646  -9.692  0.00  0.00     0.217 HD
ENDBRANCH  23  26
ENDBRANCH  19  20
ENDBRANCH  18  19
BRANCH  18  28
HETATM   28  C           1     -34.461  -1.640 -10.727  0.00  0.00     0.197 C 
HETATM   29  O           1     -35.317  -1.193  -9.933  0.00  0.00    -0.646 OA
HETATM   30  O           1     -33.245  -1.560 -10.446  0.00  0.00    -0.646 OA
ENDBRANCH  18  28
ENDBRANCH   3  18
TORSDOF 12
ENDMDL
