MODEL 1
REMARK VINA RESULT:      -5.3      0.000      0.000
REMARK  6 active torsions:
REMARK  status: ('A' for Active; 'I' for Inactive)
REMARK    1  A    between atoms: C_7  and  C_8 
REMARK       I    between atoms: C_8  and  N_9 
REMARK    2  A    between atoms: N_9  and  C_13 
REMARK    3  A    between atoms: C_12  and  C_13 
REMARK    4  A    between atoms: C_13  and  C_15 
REMARK    5  A    between atoms: C_15  and  C_16 
REMARK    6  A    between atoms: C_16  and  S_17 
ROOT
HETATM    1  O           1     -21.108  -6.716  -7.108  0.00  0.00    -0.271 OA
HETATM    2  C           1     -20.733  -5.775  -6.450  0.00  0.00     0.249 C 
HETATM    3  N           1     -20.798  -5.827  -5.083  0.00  0.00    -0.345 N 
HETATM    4  H           1     -20.483  -5.039  -4.531  0.00  0.00     0.163 HD
ENDROOT
BRANCH   2   5
HETATM    5  C           1     -20.195  -4.542  -7.134  0.00  0.00     0.274 C 
HETATM    6  N           1     -19.827  -4.877  -8.548  0.00  0.00    -0.067 N 
HETATM    7  H           1     -19.455  -4.024  -9.023  0.00  0.00     0.275 HD
HETATM    8  H           1     -19.096  -5.624  -8.551  0.00  0.00     0.275 HD
HETATM    9  H           1     -20.674  -5.217  -9.057  0.00  0.00     0.275 HD
HETATM   10 Se           1     -22.016  -4.382  -9.712  0.00  0.00     0.000 Se
HETATM   11  C           1     -23.815  -4.933 -10.221  0.00  0.00     0.000 C 
HETATM   12  C           1     -22.494  -3.947  -7.873  0.00  0.00     0.003 C 
HETATM   13  C           1     -21.260  -3.453  -7.130  0.00  0.00     0.042 C 
ENDBRANCH   2   5
BRANCH   3  14
HETATM   14  C           1     -21.314  -7.012  -4.426  0.00  0.00     0.186 C 
BRANCH  14  15
HETATM   15  C           1     -21.579  -6.704  -2.972  0.00  0.00     0.196 C 
HETATM   16  O           1     -20.867  -7.223  -2.084  0.00  0.00    -0.646 OA
HETATM   17  O           1     -22.509  -5.932  -2.656  0.00  0.00    -0.646 OA
ENDBRANCH  14  15
BRANCH  14  18
HETATM   18  C           1     -20.292  -8.136  -4.530  0.00  0.00     0.046 C 
BRANCH  18  19
HETATM   19  C           1     -21.008  -9.450  -4.807  0.00  0.00     0.076 C 
BRANCH  19  20
HETATM   20  S           1     -19.797 -10.709  -5.299  0.00  0.00    -0.173 SA
HETATM   21  C           1     -20.921 -11.664  -6.357  0.00  0.00     0.089 C 
ENDBRANCH  19  20
ENDBRANCH  18  19
ENDBRANCH  14  18
ENDBRANCH   3  14
TORSDOF 6
ENDMDL
MODEL 2
REMARK VINA RESULT:      -5.0      2.409      2.761
REMARK  6 active torsions:
REMARK  status: ('A' for Active; 'I' for Inactive)
REMARK    1  A    between atoms: C_7  and  C_8 
REMARK       I    between atoms: C_8  and  N_9 
REMARK    2  A    between atoms: N_9  and  C_13 
REMARK    3  A    between atoms: C_12  and  C_13 
REMARK    4  A    between atoms: C_13  and  C_15 
REMARK    5  A    between atoms: C_15  and  C_16 
REMARK    6  A    between atoms: C_16  and  S_17 
ROOT
HETATM    1  O           1     -20.335  -6.466  -7.078  0.00  0.00    -0.271 OA
HETATM    2  C           1     -20.358  -5.370  -6.571  0.00  0.00     0.249 C 
HETATM    3  N           1     -20.676  -5.235  -5.246  0.00  0.00    -0.345 N 
HETATM    4  H           1     -20.695  -4.317  -4.821  0.00  0.00     0.163 HD
ENDROOT
BRANCH   2   5
HETATM    5  C           1     -20.038  -4.149  -7.398  0.00  0.00     0.274 C 
HETATM    6  N           1     -19.751  -4.564  -8.810  0.00  0.00    -0.067 N 
HETATM    7  H           1     -19.530  -3.719  -9.384  0.00  0.00     0.275 HD
HETATM    8  H           1     -18.935  -5.217  -8.823  0.00  0.00     0.275 HD
HETATM    9  H           1     -20.589  -5.045  -9.208  0.00  0.00     0.275 HD
HETATM   10 Se           1     -22.075  -4.437  -9.797  0.00  0.00     0.000 Se
HETATM   11  C           1     -23.827  -5.239 -10.089  0.00  0.00     0.000 C 
HETATM   12  C           1     -22.447  -3.897  -7.962  0.00  0.00     0.003 C 
HETATM   13  C           1     -21.227  -3.197  -7.380  0.00  0.00     0.042 C 
ENDBRANCH   2   5
BRANCH   3  14
HETATM   14  C           1     -20.983  -6.409  -4.451  0.00  0.00     0.186 C 
BRANCH  14  15
HETATM   15  C           1     -22.288  -7.005  -4.920  0.00  0.00     0.196 C 
HETATM   16  O           1     -22.359  -8.227  -5.177  0.00  0.00    -0.646 OA
HETATM   17  O           1     -23.295  -6.278  -5.052  0.00  0.00    -0.646 OA
ENDBRANCH  14  15
BRANCH  14  18
HETATM   18  C           1     -21.104  -6.011  -2.986  0.00  0.00     0.046 C 
BRANCH  18  19
HETATM   19  C           1     -21.061  -7.260  -2.115  0.00  0.00     0.076 C 
BRANCH  19  20
HETATM   20  S           1     -22.304  -7.124  -0.800  0.00  0.00    -0.173 SA
HETATM   21  C           1     -22.454  -8.905  -0.484  0.00  0.00     0.089 C 
ENDBRANCH  19  20
ENDBRANCH  18  19
ENDBRANCH  14  18
ENDBRANCH   3  14
TORSDOF 6
ENDMDL
MODEL 3
REMARK VINA RESULT:      -5.0      1.696      1.980
REMARK  6 active torsions:
REMARK  status: ('A' for Active; 'I' for Inactive)
REMARK    1  A    between atoms: C_7  and  C_8 
REMARK       I    between atoms: C_8  and  N_9 
REMARK    2  A    between atoms: N_9  and  C_13 
REMARK    3  A    between atoms: C_12  and  C_13 
REMARK    4  A    between atoms: C_13  and  C_15 
REMARK    5  A    between atoms: C_15  and  C_16 
REMARK    6  A    between atoms: C_16  and  S_17 
ROOT
HETATM    1  O           1     -21.426  -7.505  -6.264  0.00  0.00    -0.271 OA
HETATM    2  C           1     -20.693  -6.755  -5.664  0.00  0.00     0.249 C 
HETATM    3  N           1     -20.722  -6.719  -4.296  0.00  0.00    -0.345 N 
HETATM    4  H           1     -20.108  -6.091  -3.792  0.00  0.00     0.163 HD
ENDROOT
BRANCH   2   5
HETATM    5  C           1     -19.746  -5.858  -6.422  0.00  0.00     0.274 C 
HETATM    6  N           1     -19.834  -6.165  -7.888  0.00  0.00    -0.067 N 
HETATM    7  H           1     -19.179  -5.544  -8.414  0.00  0.00     0.275 HD
HETATM    8  H           1     -19.573  -7.164  -8.051  0.00  0.00     0.275 HD
HETATM    9  H           1     -20.811  -6.001  -8.219  0.00  0.00     0.275 HD
HETATM   10 Se           1     -21.663  -4.561  -8.575  0.00  0.00     0.000 Se
HETATM   11  C           1     -23.558  -4.129  -8.718  0.00  0.00     0.000 C 
HETATM   12  C           1     -21.548  -4.162  -6.670  0.00  0.00     0.003 C 
HETATM   13  C           1     -20.125  -4.402  -6.185  0.00  0.00     0.042 C 
ENDBRANCH   2   5
BRANCH   3  14
HETATM   14  C           1     -21.632  -7.582  -3.567  0.00  0.00     0.186 C 
BRANCH  14  15
HETATM   15  C           1     -21.999  -6.931  -2.255  0.00  0.00     0.196 C 
HETATM   16  O           1     -22.082  -7.622  -1.217  0.00  0.00    -0.646 OA
HETATM   17  O           1     -22.218  -5.702  -2.208  0.00  0.00    -0.646 OA
ENDBRANCH  14  15
BRANCH  14  18
HETATM   18  C           1     -20.957  -8.920  -3.299  0.00  0.00     0.046 C 
BRANCH  18  19
HETATM   19  C           1     -21.848 -10.048  -3.801  0.00  0.00     0.076 C 
BRANCH  19  20
HETATM   20  S           1     -22.186 -11.203  -2.443  0.00  0.00    -0.173 SA
HETATM   21  C           1     -20.683 -10.839  -1.492  0.00  0.00     0.089 C 
ENDBRANCH  19  20
ENDBRANCH  18  19
ENDBRANCH  14  18
ENDBRANCH   3  14
TORSDOF 6
ENDMDL
MODEL 4
REMARK VINA RESULT:      -4.9      3.746      6.630
REMARK  6 active torsions:
REMARK  status: ('A' for Active; 'I' for Inactive)
REMARK    1  A    between atoms: C_7  and  C_8 
REMARK       I    between atoms: C_8  and  N_9 
REMARK    2  A    between atoms: N_9  and  C_13 
REMARK    3  A    between atoms: C_12  and  C_13 
REMARK    4  A    between atoms: C_13  and  C_15 
REMARK    5  A    between atoms: C_15  and  C_16 
REMARK    6  A    between atoms: C_16  and  S_17 
ROOT
HETATM    1  O           1     -19.809  -7.904  -1.354  0.00  0.00    -0.271 OA
HETATM    2  C           1     -21.011  -7.842  -1.248  0.00  0.00     0.249 C 
HETATM    3  N           1     -21.790  -7.697  -2.364  0.00  0.00    -0.345 N 
HETATM    4  H           1     -22.797  -7.645  -2.276  0.00  0.00     0.163 HD
ENDROOT
BRANCH   2   5
HETATM    5  C           1     -21.653  -7.922   0.115  0.00  0.00     0.274 C 
HETATM    6  N           1     -23.145  -7.939  -0.036  0.00  0.00    -0.067 N 
HETATM    7  H           1     -23.591  -7.996   0.907  0.00  0.00     0.275 HD
HETATM    8  H           1     -23.457  -7.066  -0.517  0.00  0.00     0.275 HD
HETATM    9  H           1     -23.427  -8.770  -0.604  0.00  0.00     0.275 HD
HETATM   10 Se           1     -23.551 -10.429  -0.207  0.00  0.00     0.000 Se
HETATM   11  C           1     -23.587 -12.060  -1.272  0.00  0.00     0.000 C 
HETATM   12  C           1     -21.612 -10.406  -0.010  0.00  0.00     0.003 C 
HETATM   13  C           1     -21.199  -9.196   0.817  0.00  0.00     0.042 C 
ENDBRANCH   2   5
BRANCH   3  14
HETATM   14  C           1     -21.173  -7.620  -3.675  0.00  0.00     0.186 C 
BRANCH  14  15
HETATM   15  C           1     -21.655  -6.378  -4.384  0.00  0.00     0.196 C 
HETATM   16  O           1     -22.879  -6.193  -4.559  0.00  0.00    -0.646 OA
HETATM   17  O           1     -20.830  -5.535  -4.797  0.00  0.00    -0.646 OA
ENDBRANCH  14  15
BRANCH  14  18
HETATM   18  C           1     -21.555  -8.850  -4.487  0.00  0.00     0.046 C 
BRANCH  18  19
HETATM   19  C           1     -20.451  -9.893  -4.379  0.00  0.00     0.076 C 
BRANCH  19  20
HETATM   20  S           1     -18.912  -9.220  -5.066  0.00  0.00    -0.173 SA
HETATM   21  C           1     -17.849  -9.689  -3.672  0.00  0.00     0.089 C 
ENDBRANCH  19  20
ENDBRANCH  18  19
ENDBRANCH  14  18
ENDBRANCH   3  14
TORSDOF 6
ENDMDL
MODEL 5
REMARK VINA RESULT:      -4.8      4.339      7.662
REMARK  6 active torsions:
REMARK  status: ('A' for Active; 'I' for Inactive)
REMARK    1  A    between atoms: C_7  and  C_8 
REMARK       I    between atoms: C_8  and  N_9 
REMARK    2  A    between atoms: N_9  and  C_13 
REMARK    3  A    between atoms: C_12  and  C_13 
REMARK    4  A    between atoms: C_13  and  C_15 
REMARK    5  A    between atoms: C_15  and  C_16 
REMARK    6  A    between atoms: C_16  and  S_17 
ROOT
HETATM    1  O           1     -20.789  -9.864   1.276  0.00  0.00    -0.271 OA
HETATM    2  C           1     -21.423 -10.311   0.349  0.00  0.00     0.249 C 
HETATM    3  N           1     -21.697  -9.522  -0.735  0.00  0.00    -0.345 N 
HETATM    4  H           1     -22.228  -9.896  -1.512  0.00  0.00     0.163 HD
ENDROOT
BRANCH   2   5
HETATM    5  C           1     -21.912 -11.737   0.389  0.00  0.00     0.274 C 
HETATM    6  N           1     -22.774 -12.002  -0.810  0.00  0.00    -0.067 N 
HETATM    7  H           1     -23.113 -12.990  -0.784  0.00  0.00     0.275 HD
HETATM    8  H           1     -23.592 -11.353  -0.802  0.00  0.00     0.275 HD
HETATM    9  H           1     -22.215 -11.849  -1.680  0.00  0.00     0.275 HD
HETATM   10 Se           1     -21.026 -12.808  -2.450  0.00  0.00     0.000 Se
HETATM   11  C           1     -19.624 -12.414  -3.746  0.00  0.00     0.000 C 
HETATM   12  C           1     -19.907 -12.463  -0.891  0.00  0.00     0.003 C 
HETATM   13  C           1     -20.720 -12.685   0.377  0.00  0.00     0.042 C 
ENDBRANCH   2   5
BRANCH   3  14
HETATM   14  C           1     -21.226  -8.151  -0.773  0.00  0.00     0.186 C 
BRANCH  14  15
HETATM   15  C           1     -22.404  -7.212  -0.672  0.00  0.00     0.196 C 
HETATM   16  O           1     -23.345  -7.473   0.109  0.00  0.00    -0.646 OA
HETATM   17  O           1     -22.438  -6.176  -1.370  0.00  0.00    -0.646 OA
ENDBRANCH  14  15
BRANCH  14  18
HETATM   18  C           1     -20.490  -7.904  -2.083  0.00  0.00     0.046 C 
BRANCH  18  19
HETATM   19  C           1     -21.057  -8.815  -3.164  0.00  0.00     0.076 C 
BRANCH  19  20
HETATM   20  S           1     -20.684  -8.120  -4.799  0.00  0.00    -0.173 SA
HETATM   21  C           1     -22.062  -6.939  -4.832  0.00  0.00     0.089 C 
ENDBRANCH  19  20
ENDBRANCH  18  19
ENDBRANCH  14  18
ENDBRANCH   3  14
TORSDOF 6
ENDMDL
MODEL 6
REMARK VINA RESULT:      -4.8      2.448      6.147
REMARK  6 active torsions:
REMARK  status: ('A' for Active; 'I' for Inactive)
REMARK    1  A    between atoms: C_7  and  C_8 
REMARK       I    between atoms: C_8  and  N_9 
REMARK    2  A    between atoms: N_9  and  C_13 
REMARK    3  A    between atoms: C_12  and  C_13 
REMARK    4  A    between atoms: C_13  and  C_15 
REMARK    5  A    between atoms: C_15  and  C_16 
REMARK    6  A    between atoms: C_16  and  S_17 
ROOT
HETATM    1  O           1     -19.724  -8.750  -5.567  0.00  0.00    -0.271 OA
HETATM    2  C           1     -20.733  -9.237  -5.115  0.00  0.00     0.249 C 
HETATM    3  N           1     -21.523  -8.511  -4.266  0.00  0.00    -0.345 N 
HETATM    4  H           1     -22.369  -8.919  -3.887  0.00  0.00     0.163 HD
ENDROOT
BRANCH   2   5
HETATM    5  C           1     -21.122 -10.647  -5.487  0.00  0.00     0.274 C 
HETATM    6  N           1     -20.111 -11.208  -6.442  0.00  0.00    -0.067 N 
HETATM    7  H           1     -20.379 -12.185  -6.700  0.00  0.00     0.275 HD
HETATM    8  H           1     -20.080 -10.617  -7.303  0.00  0.00     0.275 HD
HETATM    9  H           1     -19.170 -11.214  -5.988  0.00  0.00     0.275 HD
HETATM   10 Se           1     -18.481 -12.249  -4.813  0.00  0.00     0.000 Se
HETATM   11  C           1     -16.979 -12.065  -3.585  0.00  0.00     0.000 C 
HETATM   12  C           1     -19.796 -11.519  -3.572  0.00  0.00     0.003 C 
HETATM   13  C           1     -21.168 -11.510  -4.232  0.00  0.00     0.042 C 
ENDBRANCH   2   5
BRANCH   3  14
HETATM   14  C           1     -21.150  -7.155  -3.909  0.00  0.00     0.186 C 
BRANCH  14  15
HETATM   15  C           1     -21.608  -6.863  -2.501  0.00  0.00     0.196 C 
HETATM   16  O           1     -22.418  -5.935  -2.288  0.00  0.00    -0.646 OA
HETATM   17  O           1     -21.177  -7.548  -1.549  0.00  0.00    -0.646 OA
ENDBRANCH  14  15
BRANCH  14  18
HETATM   18  C           1     -21.811  -6.178  -4.872  0.00  0.00     0.046 C 
BRANCH  18  19
HETATM   19  C           1     -20.742  -5.321  -5.538  0.00  0.00     0.076 C 
BRANCH  19  20
HETATM   20  S           1     -20.863  -5.495  -7.340  0.00  0.00    -0.173 SA
HETATM   21  C           1     -21.567  -3.851  -7.653  0.00  0.00     0.089 C 
ENDBRANCH  19  20
ENDBRANCH  18  19
ENDBRANCH  14  18
ENDBRANCH   3  14
TORSDOF 6
ENDMDL
MODEL 7
REMARK VINA RESULT:      -4.8      2.324      6.260
REMARK  6 active torsions:
REMARK  status: ('A' for Active; 'I' for Inactive)
REMARK    1  A    between atoms: C_7  and  C_8 
REMARK       I    between atoms: C_8  and  N_9 
REMARK    2  A    between atoms: N_9  and  C_13 
REMARK    3  A    between atoms: C_12  and  C_13 
REMARK    4  A    between atoms: C_13  and  C_15 
REMARK    5  A    between atoms: C_15  and  C_16 
REMARK    6  A    between atoms: C_16  and  S_17 
ROOT
HETATM    1  O           1     -20.661  -8.245  -6.020  0.00  0.00    -0.271 OA
HETATM    2  C           1     -21.431  -7.711  -5.257  0.00  0.00     0.249 C 
HETATM    3  N           1     -21.800  -6.409  -5.457  0.00  0.00    -0.345 N 
HETATM    4  H           1     -22.445  -5.961  -4.818  0.00  0.00     0.163 HD
ENDROOT
BRANCH   2   5
HETATM    5  C           1     -21.983  -8.481  -4.082  0.00  0.00     0.274 C 
HETATM    6  N           1     -21.582  -9.922  -4.197  0.00  0.00    -0.067 N 
HETATM    7  H           1     -21.964 -10.455  -3.383  0.00  0.00     0.275 HD
HETATM    8  H           1     -21.963 -10.320  -5.084  0.00  0.00     0.275 HD
HETATM    9  H           1     -20.540  -9.993  -4.201  0.00  0.00     0.275 HD
HETATM   10 Se           1     -19.388  -9.879  -2.941  0.00  0.00     0.000 Se
HETATM   11  C           1     -17.474  -9.517  -2.909  0.00  0.00     0.000 C 
HETATM   12  C           1     -19.910  -8.006  -2.793  0.00  0.00     0.003 C 
HETATM   13  C           1     -21.429  -7.900  -2.788  0.00  0.00     0.042 C 
ENDBRANCH   2   5
BRANCH   3  14
HETATM   14  C           1     -21.269  -5.669  -6.586  0.00  0.00     0.186 C 
BRANCH  14  15
HETATM   15  C           1     -20.049  -4.896  -6.150  0.00  0.00     0.196 C 
HETATM   16  O           1     -19.984  -4.432  -4.991  0.00  0.00    -0.646 OA
HETATM   17  O           1     -19.104  -4.719  -6.948  0.00  0.00    -0.646 OA
ENDBRANCH  14  15
BRANCH  14  18
HETATM   18  C           1     -22.327  -4.702  -7.101  0.00  0.00     0.046 C 
BRANCH  18  19
HETATM   19  C           1     -22.250  -4.627  -8.620  0.00  0.00     0.076 C 
BRANCH  19  20
HETATM   20  S           1     -23.790  -3.922  -9.271  0.00  0.00    -0.173 SA
HETATM   21  C           1     -23.390  -4.155 -11.026  0.00  0.00     0.089 C 
ENDBRANCH  19  20
ENDBRANCH  18  19
ENDBRANCH  14  18
ENDBRANCH   3  14
TORSDOF 6
ENDMDL
MODEL 8
REMARK VINA RESULT:      -4.8      2.687      6.492
REMARK  6 active torsions:
REMARK  status: ('A' for Active; 'I' for Inactive)
REMARK    1  A    between atoms: C_7  and  C_8 
REMARK       I    between atoms: C_8  and  N_9 
REMARK    2  A    between atoms: N_9  and  C_13 
REMARK    3  A    between atoms: C_12  and  C_13 
REMARK    4  A    between atoms: C_13  and  C_15 
REMARK    5  A    between atoms: C_15  and  C_16 
REMARK    6  A    between atoms: C_16  and  S_17 
ROOT
HETATM    1  O           1     -19.475  -8.793  -3.488  0.00  0.00    -0.271 OA
HETATM    2  C           1     -20.207  -9.223  -4.348  0.00  0.00     0.249 C 
HETATM    3  N           1     -20.873  -8.358  -5.175  0.00  0.00    -0.345 N 
HETATM    4  H           1     -21.486  -8.717  -5.895  0.00  0.00     0.163 HD
ENDROOT
BRANCH   2   5
HETATM    5  C           1     -20.390 -10.712  -4.509  0.00  0.00     0.274 C 
HETATM    6  N           1     -19.544 -11.430  -3.499  0.00  0.00    -0.067 N 
HETATM    7  H           1     -19.670 -12.461  -3.609  0.00  0.00     0.275 HD
HETATM    8  H           1     -18.540 -11.184  -3.647  0.00  0.00     0.275 HD
HETATM    9  H           1     -19.835 -11.145  -2.537  0.00  0.00     0.275 HD
HETATM   10 Se           1     -21.180 -11.591  -1.578  0.00  0.00     0.000 Se
HETATM   11  C           1     -22.048 -10.780  -0.033  0.00  0.00     0.000 C 
HETATM   12  C           1     -22.277 -10.658  -2.891  0.00  0.00     0.003 C 
HETATM   13  C           1     -21.854 -11.071  -4.293  0.00  0.00     0.042 C 
ENDBRANCH   2   5
BRANCH   3  14
HETATM   14  C           1     -20.697  -6.926  -5.020  0.00  0.00     0.186 C 
BRANCH  14  15
HETATM   15  C           1     -21.914  -6.342  -4.345  0.00  0.00     0.196 C 
HETATM   16  O           1     -22.988  -6.235  -4.976  0.00  0.00    -0.646 OA
HETATM   17  O           1     -21.847  -5.965  -3.156  0.00  0.00    -0.646 OA
ENDBRANCH  14  15
BRANCH  14  18
HETATM   18  C           1     -20.519  -6.287  -6.391  0.00  0.00     0.046 C 
BRANCH  18  19
HETATM   19  C           1     -20.089  -4.836  -6.222  0.00  0.00     0.076 C 
BRANCH  19  20
HETATM   20  S           1     -21.063  -3.782  -7.333  0.00  0.00    -0.173 SA
HETATM   21  C           1     -20.217  -4.271  -8.863  0.00  0.00     0.089 C 
ENDBRANCH  19  20
ENDBRANCH  18  19
ENDBRANCH  14  18
ENDBRANCH   3  14
TORSDOF 6
ENDMDL
MODEL 9
REMARK VINA RESULT:      -4.8      4.487      6.963
REMARK  6 active torsions:
REMARK  status: ('A' for Active; 'I' for Inactive)
REMARK    1  A    between atoms: C_7  and  C_8 
REMARK       I    between atoms: C_8  and  N_9 
REMARK    2  A    between atoms: N_9  and  C_13 
REMARK    3  A    between atoms: C_12  and  C_13 
REMARK    4  A    between atoms: C_13  and  C_15 
REMARK    5  A    between atoms: C_15  and  C_16 
REMARK    6  A    between atoms: C_16  and  S_17 
ROOT
HETATM    1  O           1     -20.913  -8.226  -0.213  0.00  0.00    -0.271 OA
HETATM    2  C           1     -21.624  -8.928  -0.892  0.00  0.00     0.249 C 
HETATM    3  N           1     -21.711  -8.713  -2.242  0.00  0.00    -0.345 N 
HETATM    4  H           1     -22.306  -9.302  -2.811  0.00  0.00     0.163 HD
ENDROOT
BRANCH   2   5
HETATM    5  C           1     -22.417 -10.042  -0.253  0.00  0.00     0.274 C 
HETATM    6  N           1     -23.177 -10.784  -1.311  0.00  0.00    -0.067 N 
HETATM    7  H           1     -23.726 -11.556  -0.870  0.00  0.00     0.275 HD
HETATM    8  H           1     -23.829 -10.128  -1.798  0.00  0.00     0.275 HD
HETATM    9  H           1     -22.506 -11.187  -2.003  0.00  0.00     0.275 HD
HETATM   10 Se           1     -21.479 -12.553  -1.927  0.00  0.00     0.000 Se
HETATM   11  C           1     -19.891 -13.088  -2.921  0.00  0.00     0.000 C 
HETATM   12  C           1     -20.492 -11.587  -0.551  0.00  0.00     0.003 C 
HETATM   13  C           1     -21.469 -10.999   0.457  0.00  0.00     0.042 C 
ENDBRANCH   2   5
BRANCH   3  14
HETATM   14  C           1     -20.948  -7.643  -2.856  0.00  0.00     0.186 C 
BRANCH  14  15
HETATM   15  C           1     -21.855  -6.465  -3.114  0.00  0.00     0.196 C 
HETATM   16  O           1     -22.306  -5.802  -2.155  0.00  0.00    -0.646 OA
HETATM   17  O           1     -22.155  -6.152  -4.286  0.00  0.00    -0.646 OA
ENDBRANCH  14  15
BRANCH  14  18
HETATM   18  C           1     -20.362  -8.131  -4.174  0.00  0.00     0.046 C 
BRANCH  18  19
HETATM   19  C           1     -19.803  -9.536  -3.992  0.00  0.00     0.076 C 
BRANCH  19  20
HETATM   20  S           1     -18.237  -9.452  -3.079  0.00  0.00    -0.173 SA
HETATM   21  C           1     -17.217 -10.235  -4.360  0.00  0.00     0.089 C 
ENDBRANCH  19  20
ENDBRANCH  18  19
ENDBRANCH  14  18
ENDBRANCH   3  14
TORSDOF 6
ENDMDL
