MODEL 1
REMARK VINA RESULT:      -6.1      0.000      0.000
REMARK  9 active torsions:
REMARK  status: ('A' for Active; 'I' for Inactive)
REMARK    1  A    between atoms: Se_7  and  C_8 
REMARK    2  A    between atoms: C_8  and  C_9 
REMARK    3  A    between atoms: C_9  and  C_10 
REMARK    4  A    between atoms: C_10  and  C_11 
REMARK    5  A    between atoms: C_10  and  N_23 
REMARK    6  A    between atoms: N_16  and  C_21 
REMARK       I    between atoms: N_18  and  C_19 
REMARK    7  A    between atoms: C_19  and  C_20 
REMARK    8  A    between atoms: C_20  and  C_21 
REMARK    9  A    between atoms: C_21  and  C_22 
REMARK       I    between atoms: C_22  and  N_23 
ROOT
HETATM    1  H           1     -22.512  -5.869  -9.061  0.00  0.00     0.163 HD
HETATM    2  O           1     -21.304  -3.545  -7.335  0.00  0.00    -0.271 OA
HETATM    3  C           1     -21.564  -4.680  -7.658  0.00  0.00     0.249 C 
HETATM    4  N           1     -22.294  -4.918  -8.791  0.00  0.00    -0.345 N 
ENDROOT
BRANCH   3   5
HETATM    5  C           1     -21.085  -5.834  -6.811  0.00  0.00     0.283 C 
BRANCH   5   6
HETATM    6  N           1     -19.750  -6.299  -7.311  0.00  0.00    -0.066 N 
HETATM    7  H           1     -19.881  -7.126  -7.937  0.00  0.00     0.275 HD
HETATM    8  H           1     -19.290  -5.528  -7.845  0.00  0.00     0.275 HD
HETATM    9  H           1     -19.149  -6.569  -6.499  0.00  0.00     0.275 HD
ENDBRANCH   5   6
BRANCH   5  10
HETATM   10  C           1     -20.955  -5.381  -5.363  0.00  0.00     0.145 C 
BRANCH  10  11
HETATM   11  C           1     -21.663  -6.362  -4.462  0.00  0.00     0.217 C 
HETATM   12  O           1     -22.069  -6.005  -3.381  0.00  0.00    -0.274 OA
HETATM   13  N           1     -21.846  -7.656  -4.868  0.00  0.00    -0.370 N 
HETATM   14  H           1     -22.321  -8.314  -4.262  0.00  0.00     0.159 HD
HETATM   15  H           1     -21.505  -7.956  -5.772  0.00  0.00     0.159 HD
ENDBRANCH  10  11
ENDBRANCH   5  10
ENDBRANCH   3   5
BRANCH   4  16
HETATM   16  C           1     -22.754  -3.810  -9.605  0.00  0.00     0.185 C 
BRANCH  16  17
HETATM   17  C           1     -22.209  -3.959 -11.019  0.00  0.00     0.036 C 
BRANCH  17  18
HETATM   18  C           1     -22.477  -2.681 -11.804  0.00  0.00     0.003 C 
BRANCH  18  19
HETATM   19 Se           1     -23.960  -2.972 -13.035  0.00  0.00     0.000 Se
HETATM   20  C           1     -22.900  -2.666 -14.642  0.00  0.00     0.000 C 
ENDBRANCH  18  19
ENDBRANCH  17  18
ENDBRANCH  16  17
BRANCH  16  21
HETATM   21  C           1     -24.262  -3.808  -9.643  0.00  0.00     0.196 C 
HETATM   22  O           1     -24.883  -4.865  -9.885  0.00  0.00    -0.646 OA
HETATM   23  O           1     -24.892  -2.749  -9.431  0.00  0.00    -0.646 OA
ENDBRANCH  16  21
ENDBRANCH   4  16
TORSDOF 9
ENDMDL
MODEL 2
REMARK VINA RESULT:      -6.1     12.141     14.013
REMARK  9 active torsions:
REMARK  status: ('A' for Active; 'I' for Inactive)
REMARK    1  A    between atoms: Se_7  and  C_8 
REMARK    2  A    between atoms: C_8  and  C_9 
REMARK    3  A    between atoms: C_9  and  C_10 
REMARK    4  A    between atoms: C_10  and  C_11 
REMARK    5  A    between atoms: C_10  and  N_23 
REMARK    6  A    between atoms: N_16  and  C_21 
REMARK       I    between atoms: N_18  and  C_19 
REMARK    7  A    between atoms: C_19  and  C_20 
REMARK    8  A    between atoms: C_20  and  C_21 
REMARK    9  A    between atoms: C_21  and  C_22 
REMARK       I    between atoms: C_22  and  N_23 
ROOT
HETATM    1  H           1     -34.704  -0.834 -11.360  0.00  0.00     0.163 HD
HETATM    2  O           1     -34.487  -3.101 -13.518  0.00  0.00    -0.271 OA
HETATM    3  C           1     -34.265  -2.515 -12.485  0.00  0.00     0.249 C 
HETATM    4  N           1     -34.891  -1.325 -12.225  0.00  0.00    -0.345 N 
ENDROOT
BRANCH   3   5
HETATM    5  C           1     -33.298  -3.094 -11.481  0.00  0.00     0.283 C 
BRANCH   5   6
HETATM    6  N           1     -33.969  -3.197 -10.144  0.00  0.00    -0.066 N 
HETATM    7  H           1     -34.169  -2.238  -9.779  0.00  0.00     0.275 HD
HETATM    8  H           1     -34.866  -3.724 -10.244  0.00  0.00     0.275 HD
HETATM    9  H           1     -33.341  -3.699  -9.476  0.00  0.00     0.275 HD
ENDBRANCH   5   6
BRANCH   5  10
HETATM   10  C           1     -32.862  -4.480 -11.937  0.00  0.00     0.145 C 
BRANCH  10  11
HETATM   11  C           1     -33.909  -5.493 -11.546  0.00  0.00     0.217 C 
HETATM   12  O           1     -33.905  -5.967 -10.434  0.00  0.00    -0.274 OA
HETATM   13  N           1     -34.864  -5.874 -12.449  0.00  0.00    -0.370 N 
HETATM   14  H           1     -35.566  -6.555 -12.187  0.00  0.00     0.159 HD
HETATM   15  H           1     -34.867  -5.478 -13.380  0.00  0.00     0.159 HD
ENDBRANCH  10  11
ENDBRANCH   5  10
ENDBRANCH   3   5
BRANCH   4  16
HETATM   16  C           1     -35.820  -0.768 -13.190  0.00  0.00     0.185 C 
BRANCH  16  17
HETATM   17  C           1     -36.952  -0.064 -12.454  0.00  0.00     0.036 C 
BRANCH  17  18
HETATM   18  C           1     -37.060  -0.617 -11.039  0.00  0.00     0.003 C 
BRANCH  18  19
HETATM   19 Se           1     -37.321   0.851  -9.784  0.00  0.00     0.000 Se
HETATM   20  C           1     -37.384  -0.292  -8.207  0.00  0.00     0.000 C 
ENDBRANCH  18  19
ENDBRANCH  17  18
ENDBRANCH  16  17
BRANCH  16  21
HETATM   21  C           1     -35.096   0.222 -14.068  0.00  0.00     0.196 C 
HETATM   22  O           1     -34.751   1.332 -13.607  0.00  0.00    -0.646 OA
HETATM   23  O           1     -34.841  -0.066 -15.257  0.00  0.00    -0.646 OA
ENDBRANCH  16  21
ENDBRANCH   4  16
TORSDOF 9
ENDMDL
MODEL 3
REMARK VINA RESULT:      -5.8     10.267     12.569
REMARK  9 active torsions:
REMARK  status: ('A' for Active; 'I' for Inactive)
REMARK    1  A    between atoms: Se_7  and  C_8 
REMARK    2  A    between atoms: C_8  and  C_9 
REMARK    3  A    between atoms: C_9  and  C_10 
REMARK    4  A    between atoms: C_10  and  C_11 
REMARK    5  A    between atoms: C_10  and  N_23 
REMARK    6  A    between atoms: N_16  and  C_21 
REMARK       I    between atoms: N_18  and  C_19 
REMARK    7  A    between atoms: C_19  and  C_20 
REMARK    8  A    between atoms: C_20  and  C_21 
REMARK    9  A    between atoms: C_21  and  C_22 
REMARK       I    between atoms: C_22  and  N_23 
ROOT
HETATM    1  H           1     -29.155  -5.063 -17.388  0.00  0.00     0.163 HD
HETATM    2  O           1     -30.320  -7.971 -17.561  0.00  0.00    -0.271 OA
HETATM    3  C           1     -30.327  -6.763 -17.526  0.00  0.00     0.249 C 
HETATM    4  N           1     -29.149  -6.074 -17.417  0.00  0.00    -0.345 N 
ENDROOT
BRANCH   3   5
HETATM    5  C           1     -31.635  -6.014 -17.602  0.00  0.00     0.283 C 
BRANCH   5   6
HETATM    6  N           1     -32.761  -6.939 -17.248  0.00  0.00    -0.066 N 
HETATM    7  H           1     -33.342  -7.123 -18.097  0.00  0.00     0.275 HD
HETATM    8  H           1     -32.372  -7.841 -16.891  0.00  0.00     0.275 HD
HETATM    9  H           1     -33.356  -6.498 -16.509  0.00  0.00     0.275 HD
ENDBRANCH   5   6
BRANCH   5  10
HETATM   10  C           1     -31.609  -4.848 -16.622  0.00  0.00     0.145 C 
BRANCH  10  11
HETATM   11  C           1     -32.127  -3.605 -17.302  0.00  0.00     0.217 C 
HETATM   12  O           1     -31.362  -2.871 -17.882  0.00  0.00    -0.274 OA
HETATM   13  N           1     -33.463  -3.309 -17.262  0.00  0.00    -0.370 N 
HETATM   14  H           1     -33.809  -2.473 -17.717  0.00  0.00     0.159 HD
HETATM   15  H           1     -34.103  -3.923 -16.775  0.00  0.00     0.159 HD
ENDBRANCH  10  11
ENDBRANCH   5  10
ENDBRANCH   3   5
BRANCH   4  16
HETATM   16  C           1     -27.892  -6.794 -17.344  0.00  0.00     0.185 C 
BRANCH  16  17
HETATM   17  C           1     -26.871  -6.124 -18.256  0.00  0.00     0.036 C 
BRANCH  17  18
HETATM   18  C           1     -27.143  -6.523 -19.701  0.00  0.00     0.003 C 
BRANCH  18  19
HETATM   19 Se           1     -25.467  -7.005 -20.569  0.00  0.00     0.000 Se
HETATM   20  C           1     -24.438  -7.067 -18.915  0.00  0.00     0.000 C 
ENDBRANCH  18  19
ENDBRANCH  17  18
ENDBRANCH  16  17
BRANCH  16  21
HETATM   21  C           1     -27.386  -6.776 -15.923  0.00  0.00     0.196 C 
HETATM   22  O           1     -26.437  -6.026 -15.606  0.00  0.00    -0.646 OA
HETATM   23  O           1     -27.916  -7.510 -15.062  0.00  0.00    -0.646 OA
ENDBRANCH  16  21
ENDBRANCH   4  16
TORSDOF 9
ENDMDL
MODEL 4
REMARK VINA RESULT:      -5.8      3.519      7.273
REMARK  9 active torsions:
REMARK  status: ('A' for Active; 'I' for Inactive)
REMARK    1  A    between atoms: Se_7  and  C_8 
REMARK    2  A    between atoms: C_8  and  C_9 
REMARK    3  A    between atoms: C_9  and  C_10 
REMARK    4  A    between atoms: C_10  and  C_11 
REMARK    5  A    between atoms: C_10  and  N_23 
REMARK    6  A    between atoms: N_16  and  C_21 
REMARK       I    between atoms: N_18  and  C_19 
REMARK    7  A    between atoms: C_19  and  C_20 
REMARK    8  A    between atoms: C_20  and  C_21 
REMARK    9  A    between atoms: C_21  and  C_22 
REMARK       I    between atoms: C_22  and  N_23 
ROOT
HETATM    1  H           1     -22.783  -6.203  -7.469  0.00  0.00     0.163 HD
HETATM    2  O           1     -21.830  -3.223  -7.700  0.00  0.00    -0.271 OA
HETATM    3  C           1     -22.435  -4.229  -7.985  0.00  0.00     0.249 C 
HETATM    4  N           1     -22.276  -5.361  -7.230  0.00  0.00    -0.345 N 
ENDROOT
BRANCH   3   5
HETATM    5  C           1     -23.366  -4.240  -9.173  0.00  0.00     0.283 C 
BRANCH   5   6
HETATM    6  N           1     -24.586  -3.426  -8.859  0.00  0.00    -0.066 N 
HETATM    7  H           1     -24.362  -2.410  -8.958  0.00  0.00     0.275 HD
HETATM    8  H           1     -25.354  -3.679  -9.521  0.00  0.00     0.275 HD
HETATM    9  H           1     -24.892  -3.621  -7.878  0.00  0.00     0.275 HD
ENDBRANCH   5   6
BRANCH   5  10
HETATM   10  C           1     -22.655  -3.641 -10.380  0.00  0.00     0.145 C 
BRANCH  10  11
HETATM   11  C           1     -23.565  -3.698 -11.582  0.00  0.00     0.217 C 
HETATM   12  O           1     -24.371  -2.818 -11.771  0.00  0.00    -0.274 OA
HETATM   13  N           1     -23.477  -4.747 -12.457  0.00  0.00    -0.370 N 
HETATM   14  H           1     -24.089  -4.785 -13.263  0.00  0.00     0.159 HD
HETATM   15  H           1     -22.803  -5.484 -12.298  0.00  0.00     0.159 HD
ENDBRANCH  10  11
ENDBRANCH   5  10
ENDBRANCH   3   5
BRANCH   4  16
HETATM   16  C           1     -21.382  -5.351  -6.089  0.00  0.00     0.185 C 
BRANCH  16  17
HETATM   17  C           1     -21.852  -6.380  -5.069  0.00  0.00     0.036 C 
BRANCH  17  18
HETATM   18  C           1     -21.249  -6.058  -3.708  0.00  0.00     0.003 C 
BRANCH  18  19
HETATM   19 Se           1     -21.283  -7.653  -2.587  0.00  0.00     0.000 Se
HETATM   20  C           1     -22.295  -6.818  -1.146  0.00  0.00     0.000 C 
ENDBRANCH  18  19
ENDBRANCH  17  18
ENDBRANCH  16  17
BRANCH  16  21
HETATM   21  C           1     -19.985  -5.694  -6.543  0.00  0.00     0.196 C 
HETATM   22  O           1     -19.117  -4.799  -6.627  0.00  0.00    -0.646 OA
HETATM   23  O           1     -19.695  -6.874  -6.837  0.00  0.00    -0.646 OA
ENDBRANCH  16  21
ENDBRANCH   4  16
TORSDOF 9
ENDMDL
MODEL 5
REMARK VINA RESULT:      -5.8      3.404      6.788
REMARK  9 active torsions:
REMARK  status: ('A' for Active; 'I' for Inactive)
REMARK    1  A    between atoms: Se_7  and  C_8 
REMARK    2  A    between atoms: C_8  and  C_9 
REMARK    3  A    between atoms: C_9  and  C_10 
REMARK    4  A    between atoms: C_10  and  C_11 
REMARK    5  A    between atoms: C_10  and  N_23 
REMARK    6  A    between atoms: N_16  and  C_21 
REMARK       I    between atoms: N_18  and  C_19 
REMARK    7  A    between atoms: C_19  and  C_20 
REMARK    8  A    between atoms: C_20  and  C_21 
REMARK    9  A    between atoms: C_21  and  C_22 
REMARK       I    between atoms: C_22  and  N_23 
ROOT
HETATM    1  H           1     -22.422  -5.894  -8.343  0.00  0.00     0.163 HD
HETATM    2  O           1     -22.769  -2.882  -9.148  0.00  0.00    -0.271 OA
HETATM    3  C           1     -22.989  -4.070  -9.139  0.00  0.00     0.249 C 
HETATM    4  N           1     -22.238  -4.899  -8.350  0.00  0.00    -0.345 N 
ENDROOT
BRANCH   3   5
HETATM    5  C           1     -24.091  -4.641  -9.999  0.00  0.00     0.283 C 
BRANCH   5   6
HETATM    6  N           1     -25.318  -3.789  -9.867  0.00  0.00    -0.066 N 
HETATM    7  H           1     -25.857  -3.812 -10.762  0.00  0.00     0.275 HD
HETATM    8  H           1     -25.916  -4.156  -9.092  0.00  0.00     0.275 HD
HETATM    9  H           1     -25.039  -2.804  -9.655  0.00  0.00     0.275 HD
ENDBRANCH   5   6
BRANCH   5  10
HETATM   10  C           1     -23.642  -4.659 -11.454  0.00  0.00     0.145 C 
BRANCH  10  11
HETATM   11  C           1     -24.046  -3.369 -12.124  0.00  0.00     0.217 C 
HETATM   12  O           1     -25.147  -3.260 -12.610  0.00  0.00    -0.274 OA
HETATM   13  N           1     -23.166  -2.322 -12.181  0.00  0.00    -0.370 N 
HETATM   14  H           1     -23.437  -1.457 -12.631  0.00  0.00     0.159 HD
HETATM   15  H           1     -22.244  -2.414 -11.774  0.00  0.00     0.159 HD
ENDBRANCH  10  11
ENDBRANCH   5  10
ENDBRANCH   3   5
BRANCH   4  16
HETATM   16  C           1     -21.179  -4.352  -7.524  0.00  0.00     0.185 C 
BRANCH  16  17
HETATM   17  C           1     -21.135  -5.099  -6.197  0.00  0.00     0.036 C 
BRANCH  17  18
HETATM   18  C           1     -21.173  -6.599  -6.457  0.00  0.00     0.003 C 
BRANCH  18  19
HETATM   19 Se           1     -20.687  -7.554  -4.829  0.00  0.00     0.000 Se
HETATM   20  C           1     -21.420  -6.208  -3.625  0.00  0.00     0.000 C 
ENDBRANCH  18  19
ENDBRANCH  17  18
ENDBRANCH  16  17
BRANCH  16  21
HETATM   21  C           1     -19.858  -4.508  -8.235  0.00  0.00     0.196 C 
HETATM   22  O           1     -19.831  -4.832  -9.442  0.00  0.00    -0.646 OA
HETATM   23  O           1     -18.789  -4.313  -7.618  0.00  0.00    -0.646 OA
ENDBRANCH  16  21
ENDBRANCH   4  16
TORSDOF 9
ENDMDL
MODEL 6
REMARK VINA RESULT:      -5.8     13.810     15.262
REMARK  9 active torsions:
REMARK  status: ('A' for Active; 'I' for Inactive)
REMARK    1  A    between atoms: Se_7  and  C_8 
REMARK    2  A    between atoms: C_8  and  C_9 
REMARK    3  A    between atoms: C_9  and  C_10 
REMARK    4  A    between atoms: C_10  and  C_11 
REMARK    5  A    between atoms: C_10  and  N_23 
REMARK    6  A    between atoms: N_16  and  C_21 
REMARK       I    between atoms: N_18  and  C_19 
REMARK    7  A    between atoms: C_19  and  C_20 
REMARK    8  A    between atoms: C_20  and  C_21 
REMARK    9  A    between atoms: C_21  and  C_22 
REMARK       I    between atoms: C_22  and  N_23 
ROOT
HETATM    1  H           1     -34.737  -0.408 -10.472  0.00  0.00     0.163 HD
HETATM    2  O           1     -37.777  -1.065 -10.879  0.00  0.00    -0.271 OA
HETATM    3  C           1     -36.763  -0.790 -10.285  0.00  0.00     0.249 C 
HETATM    4  N           1     -35.587  -0.639 -10.971  0.00  0.00    -0.345 N 
ENDROOT
BRANCH   3   5
HETATM    5  C           1     -36.790  -0.612  -8.786  0.00  0.00     0.283 C 
BRANCH   5   6
HETATM    6  N           1     -35.609   0.208  -8.360  0.00  0.00    -0.066 N 
HETATM    7  H           1     -35.505   0.156  -7.321  0.00  0.00     0.275 HD
HETATM    8  H           1     -34.744  -0.164  -8.814  0.00  0.00     0.275 HD
HETATM    9  H           1     -35.754   1.203  -8.645  0.00  0.00     0.275 HD
ENDBRANCH   5   6
BRANCH   5  10
HETATM   10  C           1     -38.074   0.101  -8.383  0.00  0.00     0.145 C 
BRANCH  10  11
HETATM   11  C           1     -37.747   1.486  -7.882  0.00  0.00     0.217 C 
HETATM   12  O           1     -37.249   1.632  -6.791  0.00  0.00    -0.274 OA
HETATM   13  N           1     -38.014   2.578  -8.664  0.00  0.00    -0.370 N 
HETATM   14  H           1     -37.795   3.507  -8.327  0.00  0.00     0.159 HD
HETATM   15  H           1     -38.431   2.456  -9.577  0.00  0.00     0.159 HD
ENDBRANCH  10  11
ENDBRANCH   5  10
ENDBRANCH   3   5
BRANCH   4  16
HETATM   16  C           1     -35.560  -0.810 -12.410  0.00  0.00     0.185 C 
BRANCH  16  17
HETATM   17  C           1     -34.921   0.414 -13.054  0.00  0.00     0.036 C 
BRANCH  17  18
HETATM   18  C           1     -35.665   0.759 -14.337  0.00  0.00     0.003 C 
BRANCH  18  19
HETATM   19 Se           1     -37.444  -0.036 -14.293  0.00  0.00     0.000 Se
HETATM   20  C           1     -37.392  -0.655 -16.140  0.00  0.00     0.000 C 
ENDBRANCH  18  19
ENDBRANCH  17  18
ENDBRANCH  16  17
BRANCH  16  21
HETATM   21  C           1     -34.755  -2.038 -12.754  0.00  0.00     0.196 C 
HETATM   22  O           1     -34.818  -2.528 -13.902  0.00  0.00    -0.646 OA
HETATM   23  O           1     -34.022  -2.568 -11.890  0.00  0.00    -0.646 OA
ENDBRANCH  16  21
ENDBRANCH   4  16
TORSDOF 9
ENDMDL
MODEL 7
REMARK VINA RESULT:      -5.7     12.739     14.662
REMARK  9 active torsions:
REMARK  status: ('A' for Active; 'I' for Inactive)
REMARK    1  A    between atoms: Se_7  and  C_8 
REMARK    2  A    between atoms: C_8  and  C_9 
REMARK    3  A    between atoms: C_9  and  C_10 
REMARK    4  A    between atoms: C_10  and  C_11 
REMARK    5  A    between atoms: C_10  and  N_23 
REMARK    6  A    between atoms: N_16  and  C_21 
REMARK       I    between atoms: N_18  and  C_19 
REMARK    7  A    between atoms: C_19  and  C_20 
REMARK    8  A    between atoms: C_20  and  C_21 
REMARK    9  A    between atoms: C_21  and  C_22 
REMARK       I    between atoms: C_22  and  N_23 
ROOT
HETATM    1  H           1     -34.372  -1.162 -11.686  0.00  0.00     0.163 HD
HETATM    2  O           1     -36.256  -3.481 -10.730  0.00  0.00    -0.271 OA
HETATM    3  C           1     -35.220  -2.914 -10.984  0.00  0.00     0.249 C 
HETATM    4  N           1     -35.240  -1.636 -11.474  0.00  0.00    -0.345 N 
ENDROOT
BRANCH   3   5
HETATM    5  C           1     -33.902  -3.616 -10.761  0.00  0.00     0.283 C 
BRANCH   5   6
HETATM    6  N           1     -34.155  -4.996 -10.232  0.00  0.00    -0.066 N 
HETATM    7  H           1     -35.069  -5.012  -9.724  0.00  0.00     0.275 HD
HETATM    8  H           1     -34.187  -5.674 -11.026  0.00  0.00     0.275 HD
HETATM    9  H           1     -33.387  -5.264  -9.574  0.00  0.00     0.275 HD
ENDBRANCH   5   6
BRANCH   5  10
HETATM   10  C           1     -33.148  -3.710 -12.081  0.00  0.00     0.145 C 
BRANCH  10  11
HETATM   11  C           1     -34.109  -4.071 -13.186  0.00  0.00     0.217 C 
HETATM   12  O           1     -34.353  -3.273 -14.061  0.00  0.00    -0.274 OA
HETATM   13  N           1     -34.706  -5.304 -13.199  0.00  0.00    -0.370 N 
HETATM   14  H           1     -35.352  -5.545 -13.940  0.00  0.00     0.159 HD
HETATM   15  H           1     -34.503  -5.972 -12.467  0.00  0.00     0.159 HD
ENDBRANCH  10  11
ENDBRANCH   5  10
ENDBRANCH   3   5
BRANCH   4  16
HETATM   16  C           1     -36.506  -0.961 -11.688  0.00  0.00     0.185 C 
BRANCH  16  17
HETATM   17  C           1     -36.621   0.217 -10.730  0.00  0.00     0.036 C 
BRANCH  17  18
HETATM   18  C           1     -37.958   0.152 -10.003  0.00  0.00     0.003 C 
BRANCH  18  19
HETATM   19 Se           1     -38.074   1.617  -8.722  0.00  0.00     0.000 Se
HETATM   20  C           1     -36.734   0.882  -7.513  0.00  0.00     0.000 C 
ENDBRANCH  18  19
ENDBRANCH  17  18
ENDBRANCH  16  17
BRANCH  16  21
HETATM   21  C           1     -36.574  -0.463 -13.110  0.00  0.00     0.196 C 
HETATM   22  O           1     -35.625   0.195 -13.589  0.00  0.00    -0.646 OA
HETATM   23  O           1     -37.579  -0.708 -13.811  0.00  0.00    -0.646 OA
ENDBRANCH  16  21
ENDBRANCH   4  16
TORSDOF 9
ENDMDL
MODEL 8
REMARK VINA RESULT:      -5.5      3.897      7.509
REMARK  9 active torsions:
REMARK  status: ('A' for Active; 'I' for Inactive)
REMARK    1  A    between atoms: Se_7  and  C_8 
REMARK    2  A    between atoms: C_8  and  C_9 
REMARK    3  A    between atoms: C_9  and  C_10 
REMARK    4  A    between atoms: C_10  and  C_11 
REMARK    5  A    between atoms: C_10  and  N_23 
REMARK    6  A    between atoms: N_16  and  C_21 
REMARK       I    between atoms: N_18  and  C_19 
REMARK    7  A    between atoms: C_19  and  C_20 
REMARK    8  A    between atoms: C_20  and  C_21 
REMARK    9  A    between atoms: C_21  and  C_22 
REMARK       I    between atoms: C_22  and  N_23 
ROOT
HETATM    1  H           1     -21.742  -7.171  -7.379  0.00  0.00     0.163 HD
HETATM    2  O           1     -20.729  -4.369  -6.398  0.00  0.00    -0.271 OA
HETATM    3  C           1     -21.232  -5.180  -7.139  0.00  0.00     0.249 C 
HETATM    4  N           1     -21.322  -6.492  -6.758  0.00  0.00    -0.345 N 
ENDROOT
BRANCH   3   5
HETATM    5  C           1     -21.760  -4.747  -8.485  0.00  0.00     0.283 C 
BRANCH   5   6
HETATM    6  N           1     -22.778  -3.663  -8.297  0.00  0.00    -0.066 N 
HETATM    7  H           1     -22.307  -2.731  -8.337  0.00  0.00     0.275 HD
HETATM    8  H           1     -23.495  -3.723  -9.055  0.00  0.00     0.275 HD
HETATM    9  H           1     -23.242  -3.778  -7.367  0.00  0.00     0.275 HD
ENDBRANCH   5   6
BRANCH   5  10
HETATM   10  C           1     -20.611  -4.222  -9.335  0.00  0.00     0.145 C 
BRANCH  10  11
HETATM   11  C           1     -21.055  -4.114 -10.773  0.00  0.00     0.217 C 
HETATM   12  O           1     -22.097  -4.616 -11.123  0.00  0.00    -0.274 OA
HETATM   13  N           1     -20.277  -3.449 -11.682  0.00  0.00    -0.370 N 
HETATM   14  H           1     -20.575  -3.378 -12.647  0.00  0.00     0.159 HD
HETATM   15  H           1     -19.404  -3.029 -11.390  0.00  0.00     0.159 HD
ENDBRANCH  10  11
ENDBRANCH   5  10
ENDBRANCH   3   5
BRANCH   4  16
HETATM   16  C           1     -20.814  -6.908  -5.465  0.00  0.00     0.185 C 
BRANCH  16  17
HETATM   17  C           1     -21.939  -6.858  -4.439  0.00  0.00     0.036 C 
BRANCH  17  18
HETATM   18  C           1     -21.382  -6.401  -3.097  0.00  0.00     0.003 C 
BRANCH  18  19
HETATM   19 Se           1     -21.197  -7.937  -1.912  0.00  0.00     0.000 Se
HETATM   20  C           1     -22.412  -7.244  -0.555  0.00  0.00     0.000 C 
ENDBRANCH  18  19
ENDBRANCH  17  18
ENDBRANCH  16  17
BRANCH  16  21
HETATM   21  C           1     -20.286  -8.318  -5.564  0.00  0.00     0.196 C 
HETATM   22  O           1     -21.080  -9.283  -5.603  0.00  0.00    -0.646 OA
HETATM   23  O           1     -19.053  -8.522  -5.607  0.00  0.00    -0.646 OA
ENDBRANCH  16  21
ENDBRANCH   4  16
TORSDOF 9
ENDMDL
MODEL 9
REMARK VINA RESULT:      -5.3     12.224     14.145
REMARK  9 active torsions:
REMARK  status: ('A' for Active; 'I' for Inactive)
REMARK    1  A    between atoms: Se_7  and  C_8 
REMARK    2  A    between atoms: C_8  and  C_9 
REMARK    3  A    between atoms: C_9  and  C_10 
REMARK    4  A    between atoms: C_10  and  C_11 
REMARK    5  A    between atoms: C_10  and  N_23 
REMARK    6  A    between atoms: N_16  and  C_21 
REMARK       I    between atoms: N_18  and  C_19 
REMARK    7  A    between atoms: C_19  and  C_20 
REMARK    8  A    between atoms: C_20  and  C_21 
REMARK    9  A    between atoms: C_21  and  C_22 
REMARK       I    between atoms: C_22  and  N_23 
ROOT
HETATM    1  H           1     -35.146  -2.246 -13.273  0.00  0.00     0.163 HD
HETATM    2  O           1     -33.106  -2.516 -10.904  0.00  0.00    -0.271 OA
HETATM    3  C           1     -33.683  -2.814 -11.923  0.00  0.00     0.249 C 
HETATM    4  N           1     -34.662  -1.996 -12.420  0.00  0.00    -0.345 N 
ENDROOT
BRANCH   3   5
HETATM    5  C           1     -33.327  -4.090 -12.647  0.00  0.00     0.283 C 
BRANCH   5   6
HETATM    6  N           1     -33.186  -5.205 -11.654  0.00  0.00    -0.066 N 
HETATM    7  H           1     -32.185  -5.498 -11.598  0.00  0.00     0.275 HD
HETATM    8  H           1     -33.505  -4.876 -10.714  0.00  0.00     0.275 HD
HETATM    9  H           1     -33.770  -6.017 -11.956  0.00  0.00     0.275 HD
ENDBRANCH   5   6
BRANCH   5  10
HETATM   10  C           1     -34.428  -4.433 -13.641  0.00  0.00     0.145 C 
BRANCH  10  11
HETATM   11  C           1     -34.044  -3.932 -15.012  0.00  0.00     0.217 C 
HETATM   12  O           1     -34.718  -3.091 -15.558  0.00  0.00    -0.274 OA
HETATM   13  N           1     -32.933  -4.431 -15.637  0.00  0.00    -0.370 N 
HETATM   14  H           1     -32.677  -4.095 -16.557  0.00  0.00     0.159 HD
HETATM   15  H           1     -32.370  -5.136 -15.180  0.00  0.00     0.159 HD
ENDBRANCH  10  11
ENDBRANCH   5  10
ENDBRANCH   3   5
BRANCH   4  16
HETATM   16  C           1     -35.005  -0.770 -11.725  0.00  0.00     0.185 C 
BRANCH  16  17
HETATM   17  C           1     -35.466   0.273 -12.734  0.00  0.00     0.036 C 
BRANCH  17  18
HETATM   18  C           1     -35.999  -0.425 -13.978  0.00  0.00     0.003 C 
BRANCH  18  19
HETATM   19 Se           1     -37.917  -0.111 -14.128  0.00  0.00     0.000 Se
HETATM   20  C           1     -37.993  -0.481 -16.040  0.00  0.00     0.000 C 
ENDBRANCH  18  19
ENDBRANCH  17  18
ENDBRANCH  16  17
BRANCH  16  21
HETATM   21  C           1     -36.116  -1.046 -10.742  0.00  0.00     0.196 C 
HETATM   22  O           1     -36.938  -1.961 -10.967  0.00  0.00    -0.646 OA
HETATM   23  O           1     -36.217  -0.359  -9.703  0.00  0.00    -0.646 OA
ENDBRANCH  16  21
ENDBRANCH   4  16
TORSDOF 9
ENDMDL
