MODEL 1
REMARK VINA RESULT:      -7.5      0.000      0.000
REMARK  6 active torsions:
REMARK  status: ('A' for Active; 'I' for Inactive)
REMARK    1  A    between atoms: C_6  and  C_19 
REMARK    2  A    between atoms: C_6  and  C_14 
REMARK    3  A    between atoms: C_9  and  C_21 
REMARK    4  A    between atoms: N_11  and  C_14 
REMARK       I    between atoms: N_11  and  C_21 
REMARK    5  A    between atoms: C_14  and  C_23 
REMARK    6  A    between atoms: C_15  and  O_16 
ROOT
HETATM    1  C           1     -35.195  -1.141 -11.668  0.00  0.00     0.189 C 
ENDROOT
BRANCH   1   2
HETATM    2  C           1     -33.980  -1.737 -10.970  0.00  0.00     0.074 C 
BRANCH   2   3
HETATM    3  C           1     -34.070  -3.231 -10.999  0.00  0.00    -0.056 A 
HETATM    4  C           1     -35.262  -3.865 -10.647  0.00  0.00     0.010 A 
HETATM    5  C           1     -35.346  -5.256 -10.674  0.00  0.00     0.037 A 
HETATM    6  C           1     -34.238  -6.015 -11.053  0.00  0.00     0.065 A 
HETATM    7  C           1     -33.047  -5.381 -11.404  0.00  0.00     0.037 A 
HETATM    8  C           1     -32.963  -3.989 -11.377  0.00  0.00     0.010 A 
BRANCH   6   9
HETATM    9  O           1     -34.319  -7.368 -11.079  0.00  0.00    -0.361 OA
HETATM   10  H           1     -33.420  -7.724 -10.987  0.00  0.00     0.217 HD
ENDBRANCH   6   9
ENDBRANCH   2   3
ENDBRANCH   1   2
BRANCH   1  11
HETATM   11  N           1     -34.826   0.114 -12.293  0.00  0.00    -0.344 N 
HETATM   12  H           1     -34.331   0.818 -11.760  0.00  0.00     0.163 HD
HETATM   13  C           1     -35.144   0.347 -13.603  0.00  0.00     0.251 C 
HETATM   14  O           1     -34.837   1.393 -14.124  0.00  0.00    -0.271 OA
BRANCH  13  15
HETATM   15  C           1     -35.881  -0.703 -14.399  0.00  0.00     0.311 C 
HETATM   16  C           1     -35.795  -0.413 -15.887  0.00  0.00     0.047 C 
HETATM   17  C           1     -37.065   0.362 -16.215  0.00  0.00     0.033 C 
HETATM   18  C           1     -37.815   0.468 -14.898  0.00  0.00     0.271 C 
HETATM   19  N           1     -37.313  -0.658 -14.118  0.00  0.00     0.097 N 
HETATM   20  H           1     -37.769  -1.517 -14.428  0.00  0.00     0.317 HD
ENDBRANCH  13  15
ENDBRANCH   1  11
BRANCH   1  21
HETATM   21  C           1     -36.287  -0.896 -10.657  0.00  0.00     0.197 C 
HETATM   22  O           1     -37.483  -1.077 -10.972  0.00  0.00    -0.646 OA
HETATM   23  O           1     -35.997  -0.511  -9.503  0.00  0.00    -0.646 OA
ENDBRANCH   1  21
TORSDOF 6
ENDMDL
MODEL 2
REMARK VINA RESULT:      -6.9     13.456     16.512
REMARK  6 active torsions:
REMARK  status: ('A' for Active; 'I' for Inactive)
REMARK    1  A    between atoms: C_6  and  C_19 
REMARK    2  A    between atoms: C_6  and  C_14 
REMARK    3  A    between atoms: C_9  and  C_21 
REMARK    4  A    between atoms: N_11  and  C_14 
REMARK       I    between atoms: N_11  and  C_21 
REMARK    5  A    between atoms: C_14  and  C_23 
REMARK    6  A    between atoms: C_15  and  O_16 
ROOT
HETATM    1  C           1     -21.013  -5.047  -6.855  0.00  0.00     0.189 C 
ENDROOT
BRANCH   1   2
HETATM    2  C           1     -21.578  -3.766  -7.451  0.00  0.00     0.074 C 
BRANCH   2   3
HETATM    3  C           1     -22.129  -4.050  -8.815  0.00  0.00    -0.056 A 
HETATM    4  C           1     -23.476  -4.378  -8.968  0.00  0.00     0.010 A 
HETATM    5  C           1     -23.988  -4.642 -10.238  0.00  0.00     0.037 A 
HETATM    6  C           1     -23.154  -4.578 -11.355  0.00  0.00     0.065 A 
HETATM    7  C           1     -21.807  -4.250 -11.200  0.00  0.00     0.037 A 
HETATM    8  C           1     -21.294  -3.986  -9.930  0.00  0.00     0.010 A 
BRANCH   6   9
HETATM    9  O           1     -23.652  -4.834 -12.589  0.00  0.00    -0.361 OA
HETATM   10  H           1     -24.622  -4.827 -12.529  0.00  0.00     0.217 HD
ENDBRANCH   6   9
ENDBRANCH   2   3
ENDBRANCH   1   2
BRANCH   1  11
HETATM   11  N           1     -20.953  -4.923  -5.412  0.00  0.00    -0.344 N 
HETATM   12  H           1     -20.762  -4.024  -4.989  0.00  0.00     0.163 HD
HETATM   13  C           1     -21.155  -6.022  -4.621  0.00  0.00     0.251 C 
HETATM   14  O           1     -21.105  -5.919  -3.419  0.00  0.00    -0.271 OA
BRANCH  13  15
HETATM   15  C           1     -21.441  -7.363  -5.251  0.00  0.00     0.311 C 
HETATM   16  C           1     -22.002  -8.333  -4.226  0.00  0.00     0.047 C 
HETATM   17  C           1     -20.797  -9.115  -3.717  0.00  0.00     0.033 C 
HETATM   18  C           1     -19.610  -8.555  -4.483  0.00  0.00     0.271 C 
HETATM   19  N           1     -20.206  -8.002  -5.695  0.00  0.00     0.097 N 
HETATM   20  H           1     -20.406  -8.758  -6.351  0.00  0.00     0.317 HD
ENDBRANCH  13  15
ENDBRANCH   1  11
BRANCH   1  21
HETATM   21  C           1     -19.625  -5.286  -7.396  0.00  0.00     0.197 C 
HETATM   22  O           1     -18.789  -4.355  -7.406  0.00  0.00    -0.646 OA
HETATM   23  O           1     -19.309  -6.413  -7.835  0.00  0.00    -0.646 OA
ENDBRANCH   1  21
TORSDOF 6
ENDMDL
MODEL 3
REMARK VINA RESULT:      -6.9      2.410      4.573
REMARK  6 active torsions:
REMARK  status: ('A' for Active; 'I' for Inactive)
REMARK    1  A    between atoms: C_6  and  C_19 
REMARK    2  A    between atoms: C_6  and  C_14 
REMARK    3  A    between atoms: C_9  and  C_21 
REMARK    4  A    between atoms: N_11  and  C_14 
REMARK       I    between atoms: N_11  and  C_21 
REMARK    5  A    between atoms: C_14  and  C_23 
REMARK    6  A    between atoms: C_15  and  O_16 
ROOT
HETATM    1  C           1     -35.867  -0.505 -11.471  0.00  0.00     0.189 C 
ENDROOT
BRANCH   1   2
HETATM    2  C           1     -36.338  -1.828 -10.883  0.00  0.00     0.074 C 
BRANCH   2   3
HETATM    3  C           1     -35.264  -2.859 -11.050  0.00  0.00    -0.056 A 
HETATM    4  C           1     -35.577  -4.215 -10.945  0.00  0.00     0.010 A 
HETATM    5  C           1     -34.578  -5.175 -11.100  0.00  0.00     0.037 A 
HETATM    6  C           1     -33.265  -4.780 -11.360  0.00  0.00     0.065 A 
HETATM    7  C           1     -32.953  -3.425 -11.465  0.00  0.00     0.037 A 
HETATM    8  C           1     -33.953  -2.464 -11.309  0.00  0.00     0.010 A 
BRANCH   6   9
HETATM    9  O           1     -32.293  -5.713 -11.511  0.00  0.00    -0.361 OA
HETATM   10  H           1     -31.714  -5.671 -10.732  0.00  0.00     0.217 HD
ENDBRANCH   6   9
ENDBRANCH   2   3
ENDBRANCH   1   2
BRANCH   1  11
HETATM   11  N           1     -36.830   0.532 -11.158  0.00  0.00    -0.344 N 
HETATM   12  H           1     -37.174   1.141 -11.890  0.00  0.00     0.163 HD
HETATM   13  C           1     -37.273   0.689  -9.873  0.00  0.00     0.251 C 
HETATM   14  O           1     -38.075   1.554  -9.611  0.00  0.00    -0.271 OA
BRANCH  13  15
HETATM   15  C           1     -36.761  -0.218  -8.781  0.00  0.00     0.311 C 
HETATM   16  C           1     -37.885  -0.631  -7.848  0.00  0.00     0.047 C 
HETATM   17  C           1     -37.831   0.365  -6.695  0.00  0.00     0.033 C 
HETATM   18  C           1     -36.673   1.291  -7.026  0.00  0.00     0.271 C 
HETATM   19  N           1     -35.829   0.493  -7.910  0.00  0.00     0.097 N 
HETATM   20  H           1     -35.281  -0.165  -7.354  0.00  0.00     0.317 HD
ENDBRANCH  13  15
ENDBRANCH   1  11
BRANCH   1  21
HETATM   21  C           1     -35.741  -0.636 -12.969  0.00  0.00     0.197 C 
HETATM   22  O           1     -34.682  -0.294 -13.539  0.00  0.00    -0.646 OA
HETATM   23  O           1     -36.694  -1.087 -13.640  0.00  0.00    -0.646 OA
ENDBRANCH   1  21
TORSDOF 6
ENDMDL
MODEL 4
REMARK VINA RESULT:      -6.7     15.661     17.815
REMARK  6 active torsions:
REMARK  status: ('A' for Active; 'I' for Inactive)
REMARK    1  A    between atoms: C_6  and  C_19 
REMARK    2  A    between atoms: C_6  and  C_14 
REMARK    3  A    between atoms: C_9  and  C_21 
REMARK    4  A    between atoms: N_11  and  C_14 
REMARK       I    between atoms: N_11  and  C_21 
REMARK    5  A    between atoms: C_14  and  C_23 
REMARK    6  A    between atoms: C_15  and  O_16 
ROOT
HETATM    1  C           1     -20.233  -8.715  -4.455  0.00  0.00     0.189 C 
ENDROOT
BRANCH   1   2
HETATM    2  C           1     -19.692  -8.862  -3.040  0.00  0.00     0.074 C 
BRANCH   2   3
HETATM    3  C           1     -20.788  -8.591  -2.055  0.00  0.00    -0.056 A 
HETATM    4  C           1     -21.077  -7.279  -1.678  0.00  0.00     0.010 A 
HETATM    5  C           1     -22.097  -7.027  -0.761  0.00  0.00     0.037 A 
HETATM    6  C           1     -22.829  -8.085  -0.222  0.00  0.00     0.065 A 
HETATM    7  C           1     -22.538  -9.396  -0.600  0.00  0.00     0.037 A 
HETATM    8  C           1     -21.518  -9.649  -1.517  0.00  0.00     0.010 A 
BRANCH   6   9
HETATM    9  O           1     -23.820  -7.841   0.669  0.00  0.00    -0.361 OA
HETATM   10  H           1     -24.630  -7.644   0.170  0.00  0.00     0.217 HD
ENDBRANCH   6   9
ENDBRANCH   2   3
ENDBRANCH   1   2
BRANCH   1  11
HETATM   11  N           1     -21.463  -7.949  -4.425  0.00  0.00    -0.344 N 
HETATM   12  H           1     -22.275  -8.316  -3.945  0.00  0.00     0.163 HD
HETATM   13  C           1     -21.528  -6.731  -5.045  0.00  0.00     0.251 C 
HETATM   14  O           1     -22.553  -6.093  -5.021  0.00  0.00    -0.271 OA
BRANCH  13  15
HETATM   15  C           1     -20.317  -6.183  -5.761  0.00  0.00     0.311 C 
HETATM   16  C           1     -20.248  -4.672  -5.630  0.00  0.00     0.047 C 
HETATM   17  C           1     -20.919  -4.133  -6.887  0.00  0.00     0.033 C 
HETATM   18  C           1     -21.330  -5.365  -7.676  0.00  0.00     0.271 C 
HETATM   19  N           1     -20.421  -6.403  -7.201  0.00  0.00     0.097 N 
HETATM   20  H           1     -19.512  -6.291  -7.650  0.00  0.00     0.317 HD
ENDBRANCH  13  15
ENDBRANCH   1  11
BRANCH   1  21
HETATM   21  C           1     -20.505 -10.080  -5.035  0.00  0.00     0.197 C 
HETATM   22  O           1     -21.090 -10.187  -6.135  0.00  0.00    -0.646 OA
HETATM   23  O           1     -20.146 -11.106  -4.416  0.00  0.00    -0.646 OA
ENDBRANCH   1  21
TORSDOF 6
ENDMDL
MODEL 5
REMARK VINA RESULT:      -6.3     12.725     15.628
REMARK  6 active torsions:
REMARK  status: ('A' for Active; 'I' for Inactive)
REMARK    1  A    between atoms: C_6  and  C_19 
REMARK    2  A    between atoms: C_6  and  C_14 
REMARK    3  A    between atoms: C_9  and  C_21 
REMARK    4  A    between atoms: N_11  and  C_14 
REMARK       I    between atoms: N_11  and  C_21 
REMARK    5  A    between atoms: C_14  and  C_23 
REMARK    6  A    between atoms: C_15  and  O_16 
ROOT
HETATM    1  C           1     -21.197  -4.447  -8.493  0.00  0.00     0.189 C 
ENDROOT
BRANCH   1   2
HETATM    2  C           1     -22.438  -3.593  -8.711  0.00  0.00     0.074 C 
BRANCH   2   3
HETATM    3  C           1     -22.912  -3.751 -10.123  0.00  0.00    -0.056 A 
HETATM    4  C           1     -22.836  -2.676 -11.008  0.00  0.00     0.010 A 
HETATM    5  C           1     -23.278  -2.823 -12.323  0.00  0.00     0.037 A 
HETATM    6  C           1     -23.796  -4.045 -12.753  0.00  0.00     0.065 A 
HETATM    7  C           1     -23.872  -5.119 -11.866  0.00  0.00     0.037 A 
HETATM    8  C           1     -23.430  -4.973 -10.551  0.00  0.00     0.010 A 
BRANCH   6   9
HETATM    9  O           1     -24.225  -4.188 -14.030  0.00  0.00    -0.361 OA
HETATM   10  H           1     -25.151  -3.898 -14.070  0.00  0.00     0.217 HD
ENDBRANCH   6   9
ENDBRANCH   2   3
ENDBRANCH   1   2
BRANCH   1  11
HETATM   11  N           1     -20.571  -4.078  -7.239  0.00  0.00    -0.344 N 
HETATM   12  H           1     -20.006  -3.240  -7.184  0.00  0.00     0.163 HD
HETATM   13  C           1     -20.743  -4.862  -6.130  0.00  0.00     0.251 C 
HETATM   14  O           1     -20.220  -4.554  -5.086  0.00  0.00    -0.271 OA
BRANCH  13  15
HETATM   15  C           1     -21.585  -6.111  -6.212  0.00  0.00     0.311 C 
HETATM   16  C           1     -22.250  -6.404  -4.879  0.00  0.00     0.047 C 
HETATM   17  C           1     -21.319  -7.385  -4.178  0.00  0.00     0.033 C 
HETATM   18  C           1     -20.173  -7.607  -5.150  0.00  0.00     0.271 C 
HETATM   19  N           1     -20.751  -7.286  -6.451  0.00  0.00     0.097 N 
HETATM   20  H           1     -21.317  -8.071  -6.776  0.00  0.00     0.317 HD
ENDBRANCH  13  15
ENDBRANCH   1  11
BRANCH   1  21
HETATM   21  C           1     -20.226  -4.222  -9.625  0.00  0.00     0.197 C 
HETATM   22  O           1     -19.932  -5.164 -10.394  0.00  0.00    -0.646 OA
HETATM   23  O           1     -19.713  -3.095  -9.795  0.00  0.00    -0.646 OA
ENDBRANCH   1  21
TORSDOF 6
ENDMDL
MODEL 6
REMARK VINA RESULT:      -6.2     12.738     14.755
REMARK  6 active torsions:
REMARK  status: ('A' for Active; 'I' for Inactive)
REMARK    1  A    between atoms: C_6  and  C_19 
REMARK    2  A    between atoms: C_6  and  C_14 
REMARK    3  A    between atoms: C_9  and  C_21 
REMARK    4  A    between atoms: N_11  and  C_14 
REMARK       I    between atoms: N_11  and  C_21 
REMARK    5  A    between atoms: C_14  and  C_23 
REMARK    6  A    between atoms: C_15  and  O_16 
ROOT
HETATM    1  C           1     -21.169  -5.134  -8.217  0.00  0.00     0.189 C 
ENDROOT
BRANCH   1   2
HETATM    2  C           1     -20.016  -5.635  -7.359  0.00  0.00     0.074 C 
BRANCH   2   3
HETATM    3  C           1     -20.548  -6.156  -6.060  0.00  0.00    -0.056 A 
HETATM    4  C           1     -20.474  -5.370  -4.910  0.00  0.00     0.010 A 
HETATM    5  C           1     -20.970  -5.855  -3.700  0.00  0.00     0.037 A 
HETATM    6  C           1     -21.541  -7.127  -3.640  0.00  0.00     0.065 A 
HETATM    7  C           1     -21.614  -7.912  -4.790  0.00  0.00     0.037 A 
HETATM    8  C           1     -21.118  -7.427  -6.000  0.00  0.00     0.010 A 
BRANCH   6   9
HETATM    9  O           1     -22.023  -7.599  -2.465  0.00  0.00    -0.361 OA
HETATM   10  H           1     -22.069  -6.857  -1.839  0.00  0.00     0.217 HD
ENDBRANCH   6   9
ENDBRANCH   2   3
ENDBRANCH   1   2
BRANCH   1  11
HETATM   11  N           1     -20.644  -4.503  -9.412  0.00  0.00    -0.344 N 
HETATM   12  H           1     -19.674  -4.215  -9.447  0.00  0.00     0.163 HD
HETATM   13  C           1     -21.458  -4.298 -10.492  0.00  0.00     0.251 C 
HETATM   14  O           1     -21.020  -3.772 -11.488  0.00  0.00    -0.271 OA
BRANCH  13  15
HETATM   15  C           1     -22.903  -4.729 -10.441  0.00  0.00     0.311 C 
HETATM   16  C           1     -23.368  -5.229 -11.797  0.00  0.00     0.047 C 
HETATM   17  C           1     -24.015  -4.023 -12.466  0.00  0.00     0.033 C 
HETATM   18  C           1     -23.894  -2.897 -11.453  0.00  0.00     0.271 C 
HETATM   19  N           1     -23.776  -3.589 -10.174  0.00  0.00     0.097 N 
HETATM   20  H           1     -24.698  -3.903  -9.870  0.00  0.00     0.317 HD
ENDBRANCH  13  15
ENDBRANCH   1  11
BRANCH   1  21
HETATM   21  C           1     -21.980  -4.131  -7.435  0.00  0.00     0.197 C 
HETATM   22  O           1     -23.156  -4.400  -7.103  0.00  0.00    -0.646 OA
HETATM   23  O           1     -21.478  -3.031  -7.118  0.00  0.00    -0.646 OA
ENDBRANCH   1  21
TORSDOF 6
ENDMDL
MODEL 7
REMARK VINA RESULT:      -6.2     15.972     18.729
REMARK  6 active torsions:
REMARK  status: ('A' for Active; 'I' for Inactive)
REMARK    1  A    between atoms: C_6  and  C_19 
REMARK    2  A    between atoms: C_6  and  C_14 
REMARK    3  A    between atoms: C_9  and  C_21 
REMARK    4  A    between atoms: N_11  and  C_14 
REMARK       I    between atoms: N_11  and  C_21 
REMARK    5  A    between atoms: C_14  and  C_23 
REMARK    6  A    between atoms: C_15  and  O_16 
ROOT
HETATM    1  C           1     -20.599  -8.887  -4.961  0.00  0.00     0.189 C 
ENDROOT
BRANCH   1   2
HETATM    2  C           1     -19.686  -8.905  -3.744  0.00  0.00     0.074 C 
BRANCH   2   3
HETATM    3  C           1     -18.344  -9.447  -4.132  0.00  0.00    -0.056 A 
HETATM    4  C           1     -17.982  -9.511  -5.478  0.00  0.00     0.010 A 
HETATM    5  C           1     -16.733 -10.016  -5.840  0.00  0.00     0.037 A 
HETATM    6  C           1     -15.846 -10.455  -4.857  0.00  0.00     0.065 A 
HETATM    7  C           1     -16.210 -10.391  -3.512  0.00  0.00     0.037 A 
HETATM    8  C           1     -17.459  -9.887  -3.149  0.00  0.00     0.010 A 
BRANCH   6   9
HETATM    9  O           1     -14.633 -10.945  -5.208  0.00  0.00    -0.361 OA
HETATM   10  H           1     -13.990 -10.219  -5.160  0.00  0.00     0.217 HD
ENDBRANCH   6   9
ENDBRANCH   2   3
ENDBRANCH   1   2
BRANCH   1  11
HETATM   11  N           1     -21.703  -7.978  -4.724  0.00  0.00    -0.344 N 
HETATM   12  H           1     -22.540  -8.310  -4.261  0.00  0.00     0.163 HD
HETATM   13  C           1     -21.614  -6.673  -5.125  0.00  0.00     0.251 C 
HETATM   14  O           1     -22.534  -5.916  -4.927  0.00  0.00    -0.271 OA
BRANCH  13  15
HETATM   15  C           1     -20.366  -6.179  -5.815  0.00  0.00     0.311 C 
HETATM   16  C           1     -20.214  -4.677  -5.647  0.00  0.00     0.047 C 
HETATM   17  C           1     -20.839  -4.072  -6.898  0.00  0.00     0.033 C 
HETATM   18  C           1     -21.309  -5.260  -7.720  0.00  0.00     0.271 C 
HETATM   19  N           1     -20.466  -6.359  -7.260  0.00  0.00     0.097 N 
HETATM   20  H           1     -19.546  -6.288  -7.697  0.00  0.00     0.317 HD
ENDBRANCH  13  15
ENDBRANCH   1  11
BRANCH   1  21
HETATM   21  C           1     -21.136 -10.275  -5.209  0.00  0.00     0.197 C 
HETATM   22  O           1     -21.162 -10.737  -6.371  0.00  0.00    -0.646 OA
HETATM   23  O           1     -21.555 -10.964  -4.253  0.00  0.00    -0.646 OA
ENDBRANCH   1  21
TORSDOF 6
ENDMDL
MODEL 8
REMARK VINA RESULT:      -6.1     17.754     19.092
REMARK  6 active torsions:
REMARK  status: ('A' for Active; 'I' for Inactive)
REMARK    1  A    between atoms: C_6  and  C_19 
REMARK    2  A    between atoms: C_6  and  C_14 
REMARK    3  A    between atoms: C_9  and  C_21 
REMARK    4  A    between atoms: N_11  and  C_14 
REMARK       I    between atoms: N_11  and  C_21 
REMARK    5  A    between atoms: C_14  and  C_23 
REMARK    6  A    between atoms: C_15  and  O_16 
ROOT
HETATM    1  C           1     -21.472  -8.099  -1.830  0.00  0.00     0.189 C 
ENDROOT
BRANCH   1   2
HETATM    2  C           1     -21.312  -8.447  -0.357  0.00  0.00     0.074 C 
BRANCH   2   3
HETATM    3  C           1     -21.919  -9.791  -0.093  0.00  0.00    -0.056 A 
HETATM    4  C           1     -21.139 -10.814   0.446  0.00  0.00     0.010 A 
HETATM    5  C           1     -21.704 -12.065   0.693  0.00  0.00     0.037 A 
HETATM    6  C           1     -23.049 -12.293   0.401  0.00  0.00     0.065 A 
HETATM    7  C           1     -23.827 -11.270  -0.139  0.00  0.00     0.037 A 
HETATM    8  C           1     -23.263 -10.018  -0.386  0.00  0.00     0.010 A 
BRANCH   6   9
HETATM    9  O           1     -23.598 -13.509   0.640  0.00  0.00    -0.361 OA
HETATM   10  H           1     -24.522 -13.485   0.341  0.00  0.00     0.217 HD
ENDBRANCH   6   9
ENDBRANCH   2   3
ENDBRANCH   1   2
BRANCH   1  11
HETATM   11  N           1     -20.189  -8.208  -2.495  0.00  0.00    -0.344 N 
HETATM   12  H           1     -19.364  -7.803  -2.072  0.00  0.00     0.163 HD
HETATM   13  C           1     -20.092  -8.861  -3.694  0.00  0.00     0.251 C 
HETATM   14  O           1     -19.023  -8.952  -4.249  0.00  0.00    -0.271 OA
BRANCH  13  15
HETATM   15  C           1     -21.322  -9.467  -4.326  0.00  0.00     0.311 C 
HETATM   16  C           1     -21.680 -10.783  -3.659  0.00  0.00     0.047 C 
HETATM   17  C           1     -21.022 -11.856  -4.517  0.00  0.00     0.033 C 
HETATM   18  C           1     -20.327 -11.097  -5.635  0.00  0.00     0.271 C 
HETATM   19  N           1     -21.063  -9.839  -5.714  0.00  0.00     0.097 N 
HETATM   20  H           1     -21.939  -9.988  -6.217  0.00  0.00     0.317 HD
ENDBRANCH  13  15
ENDBRANCH   1  11
BRANCH   1  21
HETATM   21  C           1     -21.986  -6.686  -1.961  0.00  0.00     0.197 C 
HETATM   22  O           1     -22.583  -6.147  -1.004  0.00  0.00    -0.646 OA
HETATM   23  O           1     -21.815  -6.054  -3.026  0.00  0.00    -0.646 OA
ENDBRANCH   1  21
TORSDOF 6
ENDMDL
MODEL 9
REMARK VINA RESULT:      -5.9     15.541     18.785
REMARK  6 active torsions:
REMARK  status: ('A' for Active; 'I' for Inactive)
REMARK    1  A    between atoms: C_6  and  C_19 
REMARK    2  A    between atoms: C_6  and  C_14 
REMARK    3  A    between atoms: C_9  and  C_21 
REMARK    4  A    between atoms: N_11  and  C_14 
REMARK       I    between atoms: N_11  and  C_21 
REMARK    5  A    between atoms: C_14  and  C_23 
REMARK    6  A    between atoms: C_15  and  O_16 
ROOT
HETATM    1  C           1     -20.613  -9.673  -4.053  0.00  0.00     0.189 C 
ENDROOT
BRANCH   1   2
HETATM    2  C           1     -19.718  -8.551  -4.560  0.00  0.00     0.074 C 
BRANCH   2   3
HETATM    3  C           1     -20.565  -7.456  -5.132  0.00  0.00    -0.056 A 
HETATM    4  C           1     -20.041  -6.605  -6.105  0.00  0.00     0.010 A 
HETATM    5  C           1     -20.830  -5.586  -6.638  0.00  0.00     0.037 A 
HETATM    6  C           1     -22.143  -5.418  -6.199  0.00  0.00     0.065 A 
HETATM    7  C           1     -22.666  -6.269  -5.226  0.00  0.00     0.037 A 
HETATM    8  C           1     -21.878  -7.289  -4.692  0.00  0.00     0.010 A 
BRANCH   6   9
HETATM    9  O           1     -22.910  -4.427  -6.716  0.00  0.00    -0.361 OA
HETATM   10  H           1     -23.828  -4.744  -6.748  0.00  0.00     0.217 HD
ENDBRANCH   6   9
ENDBRANCH   2   3
ENDBRANCH   1   2
BRANCH   1  11
HETATM   11  N           1     -20.072 -10.201  -2.816  0.00  0.00    -0.344 N 
HETATM   12  H           1     -19.097 -10.467  -2.763  0.00  0.00     0.163 HD
HETATM   13  C           1     -20.878 -10.339  -1.719  0.00  0.00     0.251 C 
HETATM   14  O           1     -20.428 -10.779  -0.688  0.00  0.00    -0.271 OA
BRANCH  13  15
HETATM   15  C           1     -22.332  -9.942  -1.796  0.00  0.00     0.311 C 
HETATM   16  C           1     -22.937  -9.828  -0.409  0.00  0.00     0.047 C 
HETATM   17  C           1     -23.584 -11.182  -0.144  0.00  0.00     0.033 C 
HETATM   18  C           1     -23.322 -11.998  -1.399  0.00  0.00     0.271 C 
HETATM   19  N           1     -23.123 -10.990  -2.436  0.00  0.00     0.097 N 
HETATM   20  H           1     -24.029 -10.627  -2.736  0.00  0.00     0.317 HD
ENDBRANCH  13  15
ENDBRANCH   1  11
BRANCH   1  21
HETATM   21  C           1     -20.674 -10.774  -5.083  0.00  0.00     0.197 C 
HETATM   22  O           1     -21.529 -11.680  -4.980  0.00  0.00    -0.646 OA
HETATM   23  O           1     -19.870 -10.779  -6.041  0.00  0.00    -0.646 OA
ENDBRANCH   1  21
TORSDOF 6
ENDMDL
