MODEL 1
REMARK VINA RESULT:      -6.1      0.000      0.000
REMARK  6 active torsions:
REMARK  status: ('A' for Active; 'I' for Inactive)
REMARK       I    between atoms: C_1  and  N_3 
REMARK    1  A    between atoms: C_1  and  C_2 
REMARK    2  A    between atoms: C_2  and  C_9 
REMARK    3  A    between atoms: C_2  and  N_6 
REMARK    4  A    between atoms: N_3  and  C_4 
REMARK    5  A    between atoms: C_4  and  C_14 
REMARK    6  A    between atoms: C_9  and  O_11 
ROOT
HETATM    1  C           1     -24.086  -3.415  -9.690  0.00  0.00     0.302 C 
ENDROOT
BRANCH   1   2
HETATM    2  C           1     -23.571  -3.799 -11.055  0.00  0.00     0.251 C 
HETATM    3  N           1     -23.075  -2.837 -11.895  0.00  0.00    -0.349 N 
HETATM    4  H           1     -23.054  -1.870 -11.599  0.00  0.00     0.163 HD
HETATM    5  O           1     -23.596  -4.953 -11.408  0.00  0.00    -0.271 OA
BRANCH   3   6
HETATM    6  C           1     -22.579  -3.205 -13.206  0.00  0.00     0.235 C 
BRANCH   6   7
HETATM    7  C           1     -23.306  -2.407 -14.261  0.00  0.00     0.191 C 
HETATM    8  O           1     -22.785  -2.237 -15.385  0.00  0.00    -0.647 OA
HETATM    9  O           1     -24.428  -1.917 -14.011  0.00  0.00    -0.647 OA
ENDBRANCH   6   7
ENDBRANCH   3   6
ENDBRANCH   1   2
BRANCH   1  10
HETATM   10  C           1     -23.402  -4.268  -8.630  0.00  0.00     0.153 C 
HETATM   11  C           1     -21.947  -3.839  -8.495  0.00  0.00     0.042 C 
BRANCH  10  12
HETATM   12  O           1     -24.055  -4.100  -7.402  0.00  0.00    -0.393 OA
HETATM   13  H           1     -23.401  -3.830  -6.779  0.00  0.00     0.210 HD
ENDBRANCH  10  12
ENDBRANCH   1  10
BRANCH   1  14
HETATM   14  N           1     -25.568  -3.642  -9.633  0.00  0.00    -0.064 N 
HETATM   15  H           1     -25.767  -4.516  -9.097  0.00  0.00     0.275 HD
HETATM   16  H           1     -26.026  -2.831  -9.160  0.00  0.00     0.275 HD
HETATM   17  H           1     -25.943  -3.736 -10.605  0.00  0.00     0.275 HD
ENDBRANCH   1  14
TORSDOF 6
ENDMDL
MODEL 2
REMARK VINA RESULT:      -6.0     11.463     12.378
REMARK  6 active torsions:
REMARK  status: ('A' for Active; 'I' for Inactive)
REMARK       I    between atoms: C_1  and  N_3 
REMARK    1  A    between atoms: C_1  and  C_2 
REMARK    2  A    between atoms: C_2  and  C_9 
REMARK    3  A    between atoms: C_2  and  N_6 
REMARK    4  A    between atoms: N_3  and  C_4 
REMARK    5  A    between atoms: C_4  and  C_14 
REMARK    6  A    between atoms: C_9  and  O_11 
ROOT
HETATM    1  C           1     -34.566  -1.504 -11.894  0.00  0.00     0.302 C 
ENDROOT
BRANCH   1   2
HETATM    2  C           1     -35.468  -0.988 -12.988  0.00  0.00     0.251 C 
HETATM    3  N           1     -34.928  -0.377 -14.088  0.00  0.00    -0.349 N 
HETATM    4  H           1     -33.925  -0.271 -14.167  0.00  0.00     0.163 HD
HETATM    5  O           1     -36.665  -1.115 -12.895  0.00  0.00    -0.271 OA
BRANCH   3   6
HETATM    6  C           1     -35.794   0.118 -15.140  0.00  0.00     0.235 C 
BRANCH   6   7
HETATM    7  C           1     -35.877  -0.904 -16.247  0.00  0.00     0.191 C 
HETATM    8  O           1     -36.681  -0.739 -17.191  0.00  0.00    -0.647 OA
HETATM    9  O           1     -35.143  -1.915 -16.220  0.00  0.00    -0.647 OA
ENDBRANCH   6   7
ENDBRANCH   3   6
ENDBRANCH   1   2
BRANCH   1  10
HETATM   10  C           1     -34.195  -2.952 -12.180  0.00  0.00     0.153 C 
HETATM   11  C           1     -35.007  -3.872 -11.278  0.00  0.00     0.042 C 
BRANCH  10  12
HETATM   12  O           1     -34.473  -3.250 -13.521  0.00  0.00    -0.393 OA
HETATM   13  H           1     -34.992  -4.037 -13.525  0.00  0.00     0.210 HD
ENDBRANCH  10  12
ENDBRANCH   1  10
BRANCH   1  14
HETATM   14  N           1     -35.281  -1.423 -10.578  0.00  0.00    -0.064 N 
HETATM   15  H           1     -35.342  -0.425 -10.274  0.00  0.00     0.275 HD
HETATM   16  H           1     -36.245  -1.814 -10.680  0.00  0.00     0.275 HD
HETATM   17  H           1     -34.756  -1.974  -9.862  0.00  0.00     0.275 HD
ENDBRANCH   1  14
TORSDOF 6
ENDMDL
MODEL 3
REMARK VINA RESULT:      -5.9      1.688      5.429
REMARK  6 active torsions:
REMARK  status: ('A' for Active; 'I' for Inactive)
REMARK       I    between atoms: C_1  and  N_3 
REMARK    1  A    between atoms: C_1  and  C_2 
REMARK    2  A    between atoms: C_2  and  C_9 
REMARK    3  A    between atoms: C_2  and  N_6 
REMARK    4  A    between atoms: N_3  and  C_4 
REMARK    5  A    between atoms: C_4  and  C_14 
REMARK    6  A    between atoms: C_9  and  O_11 
ROOT
HETATM    1  C           1     -22.836  -2.810 -12.419  0.00  0.00     0.302 C 
ENDROOT
BRANCH   1   2
HETATM    2  C           1     -23.645  -3.210 -11.211  0.00  0.00     0.251 C 
HETATM    3  N           1     -23.012  -3.626 -10.070  0.00  0.00    -0.349 N 
HETATM    4  H           1     -22.001  -3.665 -10.038  0.00  0.00     0.163 HD
HETATM    5  O           1     -24.851  -3.163 -11.249  0.00  0.00    -0.271 OA
BRANCH   3   6
HETATM    6  C           1     -23.789  -4.011  -8.909  0.00  0.00     0.235 C 
BRANCH   6   7
HETATM    7  C           1     -22.871  -4.184  -7.723  0.00  0.00     0.191 C 
HETATM    8  O           1     -23.306  -4.688  -6.664  0.00  0.00    -0.647 OA
HETATM    9  O           1     -21.677  -3.824  -7.800  0.00  0.00    -0.647 OA
ENDBRANCH   6   7
ENDBRANCH   3   6
ENDBRANCH   1   2
BRANCH   1  10
HETATM   10  C           1     -23.714  -2.869 -13.662  0.00  0.00     0.153 C 
HETATM   11  C           1     -22.905  -2.434 -14.877  0.00  0.00     0.042 C 
BRANCH  10  12
HETATM   12  O           1     -24.170  -4.180 -13.850  0.00  0.00    -0.393 OA
HETATM   13  H           1     -23.751  -4.713 -13.195  0.00  0.00     0.210 HD
ENDBRANCH  10  12
ENDBRANCH   1  10
BRANCH   1  14
HETATM   14  N           1     -21.679  -3.751 -12.581  0.00  0.00    -0.064 N 
HETATM   15  H           1     -21.338  -4.050 -11.639  0.00  0.00     0.275 HD
HETATM   16  H           1     -21.986  -4.590 -13.122  0.00  0.00     0.275 HD
HETATM   17  H           1     -20.906  -3.268 -13.094  0.00  0.00     0.275 HD
ENDBRANCH   1  14
TORSDOF 6
ENDMDL
MODEL 4
REMARK VINA RESULT:      -5.9      1.894      2.290
REMARK  6 active torsions:
REMARK  status: ('A' for Active; 'I' for Inactive)
REMARK       I    between atoms: C_1  and  N_3 
REMARK    1  A    between atoms: C_1  and  C_2 
REMARK    2  A    between atoms: C_2  and  C_9 
REMARK    3  A    between atoms: C_2  and  N_6 
REMARK    4  A    between atoms: N_3  and  C_4 
REMARK    5  A    between atoms: C_4  and  C_14 
REMARK    6  A    between atoms: C_9  and  O_11 
ROOT
HETATM    1  C           1     -21.273  -4.439 -11.065  0.00  0.00     0.302 C 
ENDROOT
BRANCH   1   2
HETATM    2  C           1     -22.553  -4.105 -11.790  0.00  0.00     0.251 C 
HETATM    3  N           1     -22.674  -2.912 -12.452  0.00  0.00    -0.349 N 
HETATM    4  H           1     -21.904  -2.255 -12.454  0.00  0.00     0.163 HD
HETATM    5  O           1     -23.471  -4.890 -11.787  0.00  0.00    -0.271 OA
BRANCH   3   6
HETATM    6  C           1     -23.903  -2.592 -13.149  0.00  0.00     0.235 C 
BRANCH   6   7
HETATM    7  C           1     -23.580  -2.073 -14.528  0.00  0.00     0.191 C 
HETATM    8  O           1     -22.708  -2.640 -15.222  0.00  0.00    -0.647 OA
HETATM    9  O           1     -24.185  -1.076 -14.978  0.00  0.00    -0.647 OA
ENDBRANCH   6   7
ENDBRANCH   3   6
ENDBRANCH   1   2
BRANCH   1  10
HETATM   10  C           1     -21.523  -4.434  -9.563  0.00  0.00     0.153 C 
HETATM   11  C           1     -20.230  -4.096  -8.833  0.00  0.00     0.042 C 
BRANCH  10  12
HETATM   12  O           1     -22.497  -3.475  -9.254  0.00  0.00    -0.393 OA
HETATM   13  H           1     -22.088  -2.841  -8.690  0.00  0.00     0.210 HD
ENDBRANCH  10  12
ENDBRANCH   1  10
BRANCH   1  14
HETATM   14  N           1     -20.227  -3.416 -11.400  0.00  0.00    -0.064 N 
HETATM   15  H           1     -20.684  -2.491 -11.562  0.00  0.00     0.275 HD
HETATM   16  H           1     -19.552  -3.337 -10.606  0.00  0.00     0.275 HD
HETATM   17  H           1     -19.718  -3.710 -12.264  0.00  0.00     0.275 HD
ENDBRANCH   1  14
TORSDOF 6
ENDMDL
MODEL 5
REMARK VINA RESULT:      -5.7     15.780     17.035
REMARK  6 active torsions:
REMARK  status: ('A' for Active; 'I' for Inactive)
REMARK       I    between atoms: C_1  and  N_3 
REMARK    1  A    between atoms: C_1  and  C_2 
REMARK    2  A    between atoms: C_2  and  C_9 
REMARK    3  A    between atoms: C_2  and  N_6 
REMARK    4  A    between atoms: N_3  and  C_4 
REMARK    5  A    between atoms: C_4  and  C_14 
REMARK    6  A    between atoms: C_9  and  O_11 
ROOT
HETATM    1  C           1     -30.368 -15.752 -22.099  0.00  0.00     0.302 C 
ENDROOT
BRANCH   1   2
HETATM    2  C           1     -29.956 -14.784 -21.018  0.00  0.00     0.251 C 
HETATM    3  N           1     -30.523 -14.866 -19.774  0.00  0.00    -0.349 N 
HETATM    4  H           1     -31.218 -15.576 -19.581  0.00  0.00     0.163 HD
HETATM    5  O           1     -29.127 -13.938 -21.249  0.00  0.00    -0.271 OA
BRANCH   3   6
HETATM    6  C           1     -30.128 -13.936 -18.735  0.00  0.00     0.235 C 
BRANCH   6   7
HETATM    7  C           1     -29.437 -14.687 -17.623  0.00  0.00     0.191 C 
HETATM    8  O           1     -29.949 -14.728 -16.483  0.00  0.00    -0.647 OA
HETATM    9  O           1     -28.352 -15.268 -17.842  0.00  0.00    -0.647 OA
ENDBRANCH   6   7
ENDBRANCH   3   6
ENDBRANCH   1   2
BRANCH   1  10
HETATM   10  C           1     -31.521 -15.161 -22.899  0.00  0.00     0.153 C 
HETATM   11  C           1     -32.745 -16.057 -22.760  0.00  0.00     0.042 C 
BRANCH  10  12
HETATM   12  O           1     -31.822 -13.882 -22.411  0.00  0.00    -0.393 OA
HETATM   13  H           1     -32.760 -13.800 -22.417  0.00  0.00     0.210 HD
ENDBRANCH  10  12
ENDBRANCH   1  10
BRANCH   1  14
HETATM   14  N           1     -30.804 -17.044 -21.474  0.00  0.00    -0.064 N 
HETATM   15  H           1     -31.805 -16.972 -21.185  0.00  0.00     0.275 HD
HETATM   16  H           1     -30.697 -17.820 -22.167  0.00  0.00     0.275 HD
HETATM   17  H           1     -30.212 -17.242 -20.636  0.00  0.00     0.275 HD
ENDBRANCH   1  14
TORSDOF 6
ENDMDL
MODEL 6
REMARK VINA RESULT:      -5.7      2.205      2.580
REMARK  6 active torsions:
REMARK  status: ('A' for Active; 'I' for Inactive)
REMARK       I    between atoms: C_1  and  N_3 
REMARK    1  A    between atoms: C_1  and  C_2 
REMARK    2  A    between atoms: C_2  and  C_9 
REMARK    3  A    between atoms: C_2  and  N_6 
REMARK    4  A    between atoms: N_3  and  C_4 
REMARK    5  A    between atoms: C_4  and  C_14 
REMARK    6  A    between atoms: C_9  and  O_11 
ROOT
HETATM    1  C           1     -22.835  -3.378 -10.695  0.00  0.00     0.302 C 
ENDROOT
BRANCH   1   2
HETATM    2  C           1     -23.805  -2.931 -11.761  0.00  0.00     0.251 C 
HETATM    3  N           1     -23.356  -2.215 -12.838  0.00  0.00    -0.349 N 
HETATM    4  H           1     -22.373  -1.986 -12.919  0.00  0.00     0.163 HD
HETATM    5  O           1     -24.977  -3.205 -11.664  0.00  0.00    -0.271 OA
BRANCH   3   6
HETATM    6  C           1     -24.287  -1.786 -13.862  0.00  0.00     0.235 C 
BRANCH   6   7
HETATM    7  C           1     -23.522  -1.219 -15.033  0.00  0.00     0.191 C 
HETATM    8  O           1     -22.632  -1.900 -15.588  0.00  0.00    -0.647 OA
HETATM    9  O           1     -23.779  -0.069 -15.450  0.00  0.00    -0.647 OA
ENDBRANCH   6   7
ENDBRANCH   3   6
ENDBRANCH   1   2
BRANCH   1  10
HETATM   10  C           1     -21.431  -3.444 -11.280  0.00  0.00     0.153 C 
HETATM   11  C           1     -20.487  -4.074 -10.265  0.00  0.00     0.042 C 
BRANCH  10  12
HETATM   12  O           1     -21.446  -4.220 -12.447  0.00  0.00    -0.393 OA
HETATM   13  H           1     -21.438  -5.123 -12.175  0.00  0.00     0.210 HD
ENDBRANCH  10  12
ENDBRANCH   1  10
BRANCH   1  14
HETATM   14  N           1     -23.232  -4.736 -10.195  0.00  0.00    -0.064 N 
HETATM   15  H           1     -22.378  -5.325 -10.070  0.00  0.00     0.275 HD
HETATM   16  H           1     -23.726  -4.639  -9.279  0.00  0.00     0.275 HD
HETATM   17  H           1     -23.869  -5.189 -10.889  0.00  0.00     0.275 HD
ENDBRANCH   1  14
TORSDOF 6
ENDMDL
MODEL 7
REMARK VINA RESULT:      -5.6      2.215      2.861
REMARK  6 active torsions:
REMARK  status: ('A' for Active; 'I' for Inactive)
REMARK       I    between atoms: C_1  and  N_3 
REMARK    1  A    between atoms: C_1  and  C_2 
REMARK    2  A    between atoms: C_2  and  C_9 
REMARK    3  A    between atoms: C_2  and  N_6 
REMARK    4  A    between atoms: N_3  and  C_4 
REMARK    5  A    between atoms: C_4  and  C_14 
REMARK    6  A    between atoms: C_9  and  O_11 
ROOT
HETATM    1  C           1     -21.205  -4.688  -9.168  0.00  0.00     0.302 C 
ENDROOT
BRANCH   1   2
HETATM    2  C           1     -21.616  -4.069 -10.481  0.00  0.00     0.251 C 
HETATM    3  N           1     -22.750  -4.501 -11.116  0.00  0.00    -0.349 N 
HETATM    4  H           1     -23.312  -5.235 -10.704  0.00  0.00     0.163 HD
HETATM    5  O           1     -20.946  -3.193 -10.972  0.00  0.00    -0.271 OA
BRANCH   3   6
HETATM    6  C           1     -23.146  -3.907 -12.377  0.00  0.00     0.235 C 
BRANCH   6   7
HETATM    7  C           1     -24.450  -3.169 -12.199  0.00  0.00     0.191 C 
HETATM    8  O           1     -24.988  -2.604 -13.177  0.00  0.00    -0.647 OA
HETATM    9  O           1     -24.994  -3.122 -11.075  0.00  0.00    -0.647 OA
ENDBRANCH   6   7
ENDBRANCH   3   6
ENDBRANCH   1   2
BRANCH   1  10
HETATM   10  C           1     -22.136  -4.205  -8.064  0.00  0.00     0.153 C 
HETATM   11  C           1     -21.321  -3.521  -6.975  0.00  0.00     0.042 C 
BRANCH  10  12
HETATM   12  O           1     -23.060  -3.295  -8.596  0.00  0.00    -0.393 OA
HETATM   13  H           1     -23.188  -3.531  -9.499  0.00  0.00     0.210 HD
ENDBRANCH  10  12
ENDBRANCH   1  10
BRANCH   1  14
HETATM   14  N           1     -19.797  -4.284  -8.845  0.00  0.00    -0.064 N 
HETATM   15  H           1     -19.283  -4.069  -9.729  0.00  0.00     0.275 HD
HETATM   16  H           1     -19.809  -3.435  -8.235  0.00  0.00     0.275 HD
HETATM   17  H           1     -19.317  -5.066  -8.345  0.00  0.00     0.275 HD
ENDBRANCH   1  14
TORSDOF 6
ENDMDL
MODEL 8
REMARK VINA RESULT:      -5.1      2.338      5.622
REMARK  6 active torsions:
REMARK  status: ('A' for Active; 'I' for Inactive)
REMARK       I    between atoms: C_1  and  N_3 
REMARK    1  A    between atoms: C_1  and  C_2 
REMARK    2  A    between atoms: C_2  and  C_9 
REMARK    3  A    between atoms: C_2  and  N_6 
REMARK    4  A    between atoms: N_3  and  C_4 
REMARK    5  A    between atoms: C_4  and  C_14 
REMARK    6  A    between atoms: C_9  and  O_11 
ROOT
HETATM    1  C           1     -23.769  -4.482 -10.397  0.00  0.00     0.302 C 
ENDROOT
BRANCH   1   2
HETATM    2  C           1     -22.613  -4.431  -9.430  0.00  0.00     0.251 C 
HETATM    3  N           1     -22.840  -4.167  -8.105  0.00  0.00    -0.349 N 
HETATM    4  H           1     -23.783  -4.005  -7.776  0.00  0.00     0.163 HD
HETATM    5  O           1     -21.488  -4.624  -9.822  0.00  0.00    -0.271 OA
BRANCH   3   6
HETATM    6  C           1     -21.730  -4.118  -7.175  0.00  0.00     0.235 C 
BRANCH   6   7
HETATM    7  C           1     -21.590  -5.453  -6.485  0.00  0.00     0.191 C 
HETATM    8  O           1     -22.212  -5.676  -5.424  0.00  0.00    -0.647 OA
HETATM    9  O           1     -20.853  -6.335  -6.976  0.00  0.00    -0.647 OA
ENDBRANCH   6   7
ENDBRANCH   3   6
ENDBRANCH   1   2
BRANCH   1  10
HETATM   10  C           1     -23.778  -3.217 -11.246  0.00  0.00     0.153 C 
HETATM   11  C           1     -22.830  -3.390 -12.425  0.00  0.00     0.042 C 
BRANCH  10  12
HETATM   12  O           1     -25.075  -2.982 -11.721  0.00  0.00    -0.393 OA
HETATM   13  H           1     -25.440  -3.820 -11.948  0.00  0.00     0.210 HD
ENDBRANCH  10  12
ENDBRANCH   1  10
BRANCH   1  14
HETATM   14  N           1     -25.056  -4.580  -9.634  0.00  0.00    -0.064 N 
HETATM   15  H           1     -25.138  -5.530  -9.208  0.00  0.00     0.275 HD
HETATM   16  H           1     -25.069  -3.858  -8.878  0.00  0.00     0.275 HD
HETATM   17  H           1     -25.859  -4.418 -10.284  0.00  0.00     0.275 HD
ENDBRANCH   1  14
TORSDOF 6
ENDMDL
MODEL 9
REMARK VINA RESULT:      -5.1      3.886      6.273
REMARK  6 active torsions:
REMARK  status: ('A' for Active; 'I' for Inactive)
REMARK       I    between atoms: C_1  and  N_3 
REMARK    1  A    between atoms: C_1  and  C_2 
REMARK    2  A    between atoms: C_2  and  C_9 
REMARK    3  A    between atoms: C_2  and  N_6 
REMARK    4  A    between atoms: N_3  and  C_4 
REMARK    5  A    between atoms: C_4  and  C_14 
REMARK    6  A    between atoms: C_9  and  O_11 
ROOT
HETATM    1  C           1     -22.116  -3.600  -9.308  0.00  0.00     0.302 C 
ENDROOT
BRANCH   1   2
HETATM    2  C           1     -21.477  -4.064  -8.022  0.00  0.00     0.251 C 
HETATM    3  N           1     -21.057  -5.362  -7.896  0.00  0.00    -0.349 N 
HETATM    4  H           1     -21.176  -6.009  -8.665  0.00  0.00     0.163 HD
HETATM    5  O           1     -21.335  -3.292  -7.105  0.00  0.00    -0.271 OA
BRANCH   3   6
HETATM    6  C           1     -20.443  -5.808  -6.662  0.00  0.00     0.235 C 
BRANCH   6   7
HETATM    7  C           1     -21.431  -6.636  -5.878  0.00  0.00     0.191 C 
HETATM    8  O           1     -22.308  -6.074  -5.185  0.00  0.00    -0.647 OA
HETATM    9  O           1     -21.374  -7.884  -5.921  0.00  0.00    -0.647 OA
ENDBRANCH   6   7
ENDBRANCH   3   6
ENDBRANCH   1   2
BRANCH   1  10
HETATM   10  C           1     -23.628  -3.754  -9.208  0.00  0.00     0.153 C 
HETATM   11  C           1     -24.095  -4.817 -10.192  0.00  0.00     0.042 C 
BRANCH  10  12
HETATM   12  O           1     -23.974  -4.138  -7.906  0.00  0.00    -0.393 OA
HETATM   13  H           1     -23.816  -5.065  -7.843  0.00  0.00     0.210 HD
ENDBRANCH  10  12
ENDBRANCH   1  10
BRANCH   1  14
HETATM   14  N           1     -21.604  -4.429 -10.448  0.00  0.00    -0.064 N 
HETATM   15  H           1     -20.766  -3.966 -10.867  0.00  0.00     0.275 HD
HETATM   16  H           1     -21.338  -5.377 -10.098  0.00  0.00     0.275 HD
HETATM   17  H           1     -22.351  -4.521 -11.174  0.00  0.00     0.275 HD
ENDBRANCH   1  14
TORSDOF 6
ENDMDL
