MODEL 1
REMARK VINA RESULT:      -6.3      0.000      0.000
REMARK  10 active torsions:
REMARK  status: ('A' for Active; 'I' for Inactive)
REMARK    1  A    between atoms: C_1  and  C_14 
REMARK    2  A    between atoms: C_1  and  C_2 
REMARK    3  A    between atoms: C_1  and  N_8 
REMARK    4  A    between atoms: C_2  and  C_3 
REMARK    5  A    between atoms: C_3  and  C_4 
REMARK    6  A    between atoms: S_6  and  C_7 
REMARK    7  A    between atoms: C_7  and  C_13 
REMARK    8  A    between atoms: C_13  and  C_22 
REMARK       I    between atoms: C_14  and  N_18 
REMARK    9  A    between atoms: N_18  and  C_22 
REMARK   10  A    between atoms: C_21  and  C_22 
ROOT
HETATM    1  O           1     -21.533  -3.611  -7.268  0.00  0.00    -0.271 OA
HETATM    2  H           1     -22.307  -5.900  -9.268  0.00  0.00     0.163 HD
HETATM    3  C           1     -21.639  -4.737  -7.692  0.00  0.00     0.249 C 
HETATM    4  N           1     -22.218  -4.956  -8.913  0.00  0.00    -0.345 N 
ENDROOT
BRANCH   3   5
HETATM    5  C           1     -21.135  -5.901  -6.875  0.00  0.00     0.275 C 
BRANCH   5   6
HETATM    6  C           1     -21.217  -5.558  -5.395  0.00  0.00     0.053 C 
BRANCH   6   7
HETATM    7  C           1     -22.136  -6.550  -4.693  0.00  0.00     0.115 C 
BRANCH   7   8
HETATM    8  C           1     -21.787  -6.610  -3.227  0.00  0.00     0.172 C 
HETATM    9  O           1     -20.848  -7.337  -2.836  0.00  0.00    -0.648 OA
HETATM   10  O           1     -22.437  -5.931  -2.402  0.00  0.00    -0.648 OA
ENDBRANCH   7   8
ENDBRANCH   6   7
ENDBRANCH   5   6
BRANCH   5  11
HETATM   11  N           1     -19.709  -6.188  -7.243  0.00  0.00    -0.066 N 
HETATM   12  H           1     -19.311  -6.888  -6.576  0.00  0.00     0.275 HD
HETATM   13  H           1     -19.670  -6.572  -8.214  0.00  0.00     0.275 HD
HETATM   14  H           1     -19.152  -5.304  -7.194  0.00  0.00     0.275 HD
ENDBRANCH   5  11
ENDBRANCH   3   5
BRANCH   4  15
HETATM   15  C           1     -22.702  -3.837  -9.696  0.00  0.00     0.186 C 
BRANCH  15  16
HETATM   16  C           1     -22.197  -3.964 -11.129  0.00  0.00     0.046 C 
BRANCH  16  17
HETATM   17  C           1     -22.623  -2.741 -11.929  0.00  0.00     0.076 C 
BRANCH  17  18
HETATM   18  S           1     -23.842  -3.231 -13.182  0.00  0.00    -0.173 SA
HETATM   19  C           1     -22.936  -2.571 -14.609  0.00  0.00     0.089 C 
ENDBRANCH  17  18
ENDBRANCH  16  17
ENDBRANCH  15  16
BRANCH  15  20
HETATM   20  C           1     -24.211  -3.836  -9.693  0.00  0.00     0.196 C 
HETATM   21  O           1     -24.836  -2.780  -9.451  0.00  0.00    -0.646 OA
HETATM   22  O           1     -24.838  -4.890  -9.933  0.00  0.00    -0.646 OA
ENDBRANCH  15  20
ENDBRANCH   4  15
TORSDOF 10
ENDMDL
MODEL 2
REMARK VINA RESULT:      -6.0      3.457      7.471
REMARK  10 active torsions:
REMARK  status: ('A' for Active; 'I' for Inactive)
REMARK    1  A    between atoms: C_1  and  C_14 
REMARK    2  A    between atoms: C_1  and  C_2 
REMARK    3  A    between atoms: C_1  and  N_8 
REMARK    4  A    between atoms: C_2  and  C_3 
REMARK    5  A    between atoms: C_3  and  C_4 
REMARK    6  A    between atoms: S_6  and  C_7 
REMARK    7  A    between atoms: C_7  and  C_13 
REMARK    8  A    between atoms: C_13  and  C_22 
REMARK       I    between atoms: C_14  and  N_18 
REMARK    9  A    between atoms: N_18  and  C_22 
REMARK   10  A    between atoms: C_21  and  C_22 
ROOT
HETATM    1  O           1     -23.242  -3.299  -8.318  0.00  0.00    -0.271 OA
HETATM    2  H           1     -22.120  -6.094  -9.193  0.00  0.00     0.163 HD
HETATM    3  C           1     -23.183  -4.338  -8.930  0.00  0.00     0.249 C 
HETATM    4  N           1     -22.168  -5.223  -8.680  0.00  0.00    -0.345 N 
ENDROOT
BRANCH   3   5
HETATM    5  C           1     -24.227  -4.661  -9.971  0.00  0.00     0.275 C 
BRANCH   5   6
HETATM    6  C           1     -23.573  -4.732 -11.343  0.00  0.00     0.053 C 
BRANCH   6   7
HETATM    7  C           1     -23.054  -3.353 -11.731  0.00  0.00     0.115 C 
BRANCH   7   8
HETATM    8  C           1     -23.699  -2.917 -13.023  0.00  0.00     0.172 C 
HETATM    9  O           1     -22.990  -2.666 -14.022  0.00  0.00    -0.648 OA
HETATM   10  O           1     -24.942  -2.807 -13.095  0.00  0.00    -0.648 OA
ENDBRANCH   7   8
ENDBRANCH   6   7
ENDBRANCH   5   6
BRANCH   5  11
HETATM   11  N           1     -25.277  -3.590  -9.973  0.00  0.00    -0.066 N 
HETATM   12  H           1     -24.995  -2.823  -9.320  0.00  0.00     0.275 HD
HETATM   13  H           1     -25.379  -3.204 -10.938  0.00  0.00     0.275 HD
HETATM   14  H           1     -26.189  -3.995  -9.661  0.00  0.00     0.275 HD
ENDBRANCH   5  11
ENDBRANCH   3   5
BRANCH   4  15
HETATM   15  C           1     -21.166  -4.912  -7.680  0.00  0.00     0.186 C 
BRANCH  15  16
HETATM   16  C           1     -20.983  -6.110  -6.756  0.00  0.00     0.046 C 
BRANCH  16  17
HETATM   17  C           1     -21.140  -5.665  -5.309  0.00  0.00     0.076 C 
BRANCH  17  18
HETATM   18  S           1     -21.401  -7.118  -4.253  0.00  0.00    -0.173 SA
HETATM   19  C           1     -21.640  -6.200  -2.706  0.00  0.00     0.089 C 
ENDBRANCH  17  18
ENDBRANCH  16  17
ENDBRANCH  15  16
BRANCH  15  20
HETATM   20  C           1     -19.857  -4.597  -8.361  0.00  0.00     0.196 C 
HETATM   21  O           1     -18.849  -4.316  -7.678  0.00  0.00    -0.646 OA
HETATM   22  O           1     -19.780  -4.619  -9.608  0.00  0.00    -0.646 OA
ENDBRANCH  15  20
ENDBRANCH   4  15
TORSDOF 10
ENDMDL
MODEL 3
REMARK VINA RESULT:      -5.7      3.714      7.565
REMARK  10 active torsions:
REMARK  status: ('A' for Active; 'I' for Inactive)
REMARK    1  A    between atoms: C_1  and  C_14 
REMARK    2  A    between atoms: C_1  and  C_2 
REMARK    3  A    between atoms: C_1  and  N_8 
REMARK    4  A    between atoms: C_2  and  C_3 
REMARK    5  A    between atoms: C_3  and  C_4 
REMARK    6  A    between atoms: S_6  and  C_7 
REMARK    7  A    between atoms: C_7  and  C_13 
REMARK    8  A    between atoms: C_13  and  C_22 
REMARK       I    between atoms: C_14  and  N_18 
REMARK    9  A    between atoms: N_18  and  C_22 
REMARK   10  A    between atoms: C_21  and  C_22 
ROOT
HETATM    1  O           1     -19.515  -4.500  -5.983  0.00  0.00    -0.271 OA
HETATM    2  H           1     -22.172  -6.057  -6.577  0.00  0.00     0.163 HD
HETATM    3  C           1     -20.531  -4.796  -6.564  0.00  0.00     0.249 C 
HETATM    4  N           1     -21.320  -5.810  -6.090  0.00  0.00    -0.345 N 
ENDROOT
BRANCH   3   5
HETATM    5  C           1     -20.931  -4.048  -7.812  0.00  0.00     0.275 C 
BRANCH   5   6
HETATM    6  C           1     -22.425  -4.212  -8.047  0.00  0.00     0.053 C 
BRANCH   6   7
HETATM    7  C           1     -22.799  -3.605  -9.393  0.00  0.00     0.115 C 
BRANCH   7   8
HETATM    8  C           1     -24.277  -3.785  -9.634  0.00  0.00     0.172 C 
HETATM    9  O           1     -25.050  -2.807  -9.534  0.00  0.00    -0.648 OA
HETATM   10  O           1     -24.730  -4.911  -9.933  0.00  0.00    -0.648 OA
ENDBRANCH   7   8
ENDBRANCH   6   7
ENDBRANCH   5   6
BRANCH   5  11
HETATM   11  N           1     -20.177  -4.599  -8.986  0.00  0.00    -0.066 N 
HETATM   12  H           1     -20.837  -4.758  -9.781  0.00  0.00     0.275 HD
HETATM   13  H           1     -19.440  -3.918  -9.278  0.00  0.00     0.275 HD
HETATM   14  H           1     -19.729  -5.505  -8.719  0.00  0.00     0.275 HD
ENDBRANCH   5  11
ENDBRANCH   3   5
BRANCH   4  15
HETATM   15  C           1     -20.936  -6.527  -4.891  0.00  0.00     0.186 C 
BRANCH  15  16
HETATM   16  C           1     -22.130  -6.619  -3.950  0.00  0.00     0.046 C 
BRANCH  16  17
HETATM   17  C           1     -21.698  -6.243  -2.539  0.00  0.00     0.076 C 
BRANCH  17  18
HETATM   18  S           1     -21.316  -7.748  -1.601  0.00  0.00    -0.173 SA
HETATM   19  C           1     -22.545  -7.483  -0.291  0.00  0.00     0.089 C 
ENDBRANCH  17  18
ENDBRANCH  16  17
ENDBRANCH  15  16
BRANCH  15  20
HETATM   20  C           1     -20.479  -7.917  -5.261  0.00  0.00     0.196 C 
HETATM   21  O           1     -19.380  -8.345  -4.848  0.00  0.00    -0.646 OA
HETATM   22  O           1     -21.200  -8.641  -5.981  0.00  0.00    -0.646 OA
ENDBRANCH  15  20
ENDBRANCH   4  15
TORSDOF 10
ENDMDL
MODEL 4
REMARK VINA RESULT:      -5.6     19.176     20.621
REMARK  10 active torsions:
REMARK  status: ('A' for Active; 'I' for Inactive)
REMARK    1  A    between atoms: C_1  and  C_14 
REMARK    2  A    between atoms: C_1  and  C_2 
REMARK    3  A    between atoms: C_1  and  N_8 
REMARK    4  A    between atoms: C_2  and  C_3 
REMARK    5  A    between atoms: C_3  and  C_4 
REMARK    6  A    between atoms: S_6  and  C_7 
REMARK    7  A    between atoms: C_7  and  C_13 
REMARK    8  A    between atoms: C_13  and  C_22 
REMARK       I    between atoms: C_14  and  N_18 
REMARK    9  A    between atoms: N_18  and  C_22 
REMARK   10  A    between atoms: C_21  and  C_22 
ROOT
HETATM    1  O           1     -12.318   7.394 -22.039  0.00  0.00    -0.271 OA
HETATM    2  H           1     -12.519   7.175 -18.916  0.00  0.00     0.163 HD
HETATM    3  C           1     -12.497   6.874 -20.964  0.00  0.00     0.249 C 
HETATM    4  N           1     -12.368   7.611 -19.817  0.00  0.00    -0.345 N 
ENDROOT
BRANCH   3   5
HETATM    5  C           1     -12.862   5.412 -20.884  0.00  0.00     0.275 C 
BRANCH   5   6
HETATM    6  C           1     -12.087   4.755 -19.751  0.00  0.00     0.053 C 
BRANCH   6   7
HETATM    7  C           1     -10.644   4.531 -20.184  0.00  0.00     0.115 C 
BRANCH   7   8
HETATM    8  C           1      -9.751   5.537 -19.502  0.00  0.00     0.172 C 
HETATM    9  O           1      -8.855   6.120 -20.151  0.00  0.00    -0.648 OA
HETATM   10  O           1      -9.906   5.788 -18.287  0.00  0.00    -0.648 OA
ENDBRANCH   7   8
ENDBRANCH   6   7
ENDBRANCH   5   6
BRANCH   5  11
HETATM   11  N           1     -12.516   4.741 -22.180  0.00  0.00    -0.066 N 
HETATM   12  H           1     -13.151   3.923 -22.330  0.00  0.00     0.275 HD
HETATM   13  H           1     -12.633   5.419 -22.966  0.00  0.00     0.275 HD
HETATM   14  H           1     -11.525   4.410 -22.148  0.00  0.00     0.275 HD
ENDBRANCH   5  11
ENDBRANCH   3   5
BRANCH   4  15
HETATM   15  C           1     -12.018   9.016 -19.894  0.00  0.00     0.186 C 
BRANCH  15  16
HETATM   16  C           1     -12.930   9.817 -18.973  0.00  0.00     0.046 C 
BRANCH  16  17
HETATM   17  C           1     -13.548  10.973 -19.747  0.00  0.00     0.076 C 
BRANCH  17  18
HETATM   18  S           1     -14.940  11.658 -18.805  0.00  0.00    -0.173 SA
HETATM   19  C           1     -14.800  10.527 -17.392  0.00  0.00     0.089 C 
ENDBRANCH  17  18
ENDBRANCH  16  17
ENDBRANCH  15  16
BRANCH  15  20
HETATM   20  C           1     -10.583   9.200 -19.467  0.00  0.00     0.196 C 
HETATM   21  O           1      -9.731   9.597 -20.292  0.00  0.00    -0.646 OA
HETATM   22  O           1     -10.245   8.957 -18.289  0.00  0.00    -0.646 OA
ENDBRANCH  15  20
ENDBRANCH   4  15
TORSDOF 10
ENDMDL
MODEL 5
REMARK VINA RESULT:      -5.4     11.046     13.366
REMARK  10 active torsions:
REMARK  status: ('A' for Active; 'I' for Inactive)
REMARK    1  A    between atoms: C_1  and  C_14 
REMARK    2  A    between atoms: C_1  and  C_2 
REMARK    3  A    between atoms: C_1  and  N_8 
REMARK    4  A    between atoms: C_2  and  C_3 
REMARK    5  A    between atoms: C_3  and  C_4 
REMARK    6  A    between atoms: S_6  and  C_7 
REMARK    7  A    between atoms: C_7  and  C_13 
REMARK    8  A    between atoms: C_13  and  C_22 
REMARK       I    between atoms: C_14  and  N_18 
REMARK    9  A    between atoms: N_18  and  C_22 
REMARK   10  A    between atoms: C_21  and  C_22 
ROOT
HETATM    1  O           1     -27.161  -6.189 -16.487  0.00  0.00    -0.271 OA
HETATM    2  H           1     -27.719  -7.099 -19.437  0.00  0.00     0.163 HD
HETATM    3  C           1     -26.917  -6.461 -17.638  0.00  0.00     0.249 C 
HETATM    4  N           1     -27.923  -6.871 -18.472  0.00  0.00    -0.345 N 
ENDROOT
BRANCH   3   5
HETATM    5  C           1     -25.505  -6.351 -18.156  0.00  0.00     0.275 C 
BRANCH   5   6
HETATM    6  C           1     -25.513  -6.434 -19.676  0.00  0.00     0.053 C 
BRANCH   6   7
HETATM    7  C           1     -24.575  -7.544 -20.130  0.00  0.00     0.115 C 
BRANCH   7   8
HETATM    8  C           1     -25.079  -8.133 -21.424  0.00  0.00     0.172 C 
HETATM    9  O           1     -26.246  -8.574 -21.497  0.00  0.00    -0.648 OA
HETATM   10  O           1     -24.330  -8.179 -22.424  0.00  0.00    -0.648 OA
ENDBRANCH   7   8
ENDBRANCH   6   7
ENDBRANCH   5   6
BRANCH   5  11
HETATM   11  N           1     -24.680  -7.473 -17.599  0.00  0.00    -0.066 N 
HETATM   12  H           1     -25.291  -8.113 -17.044  0.00  0.00     0.275 HD
HETATM   13  H           1     -24.242  -8.006 -18.384  0.00  0.00     0.275 HD
HETATM   14  H           1     -23.932  -7.083 -16.981  0.00  0.00     0.275 HD
ENDBRANCH   5  11
ENDBRANCH   3   5
BRANCH   4  15
HETATM   15  C           1     -29.280  -6.976 -17.973  0.00  0.00     0.186 C 
BRANCH  15  16
HETATM   16  C           1     -29.985  -5.635 -18.132  0.00  0.00     0.046 C 
BRANCH  16  17
HETATM   17  C           1     -30.979  -5.444 -16.996  0.00  0.00     0.076 C 
BRANCH  17  18
HETATM   18  S           1     -31.983  -3.965 -17.311  0.00  0.00    -0.173 SA
HETATM   19  C           1     -33.307  -4.369 -16.137  0.00  0.00     0.089 C 
ENDBRANCH  17  18
ENDBRANCH  16  17
ENDBRANCH  15  16
BRANCH  15  20
HETATM   20  C           1     -30.023  -8.031 -18.755  0.00  0.00     0.196 C 
HETATM   21  O           1     -29.388  -8.884 -19.413  0.00  0.00    -0.646 OA
HETATM   22  O           1     -31.272  -8.053 -18.745  0.00  0.00    -0.646 OA
ENDBRANCH  15  20
ENDBRANCH   4  15
TORSDOF 10
ENDMDL
MODEL 6
REMARK VINA RESULT:      -5.4      1.764      2.176
REMARK  10 active torsions:
REMARK  status: ('A' for Active; 'I' for Inactive)
REMARK    1  A    between atoms: C_1  and  C_14 
REMARK    2  A    between atoms: C_1  and  C_2 
REMARK    3  A    between atoms: C_1  and  N_8 
REMARK    4  A    between atoms: C_2  and  C_3 
REMARK    5  A    between atoms: C_3  and  C_4 
REMARK    6  A    between atoms: S_6  and  C_7 
REMARK    7  A    between atoms: C_7  and  C_13 
REMARK    8  A    between atoms: C_13  and  C_22 
REMARK       I    between atoms: C_14  and  N_18 
REMARK    9  A    between atoms: N_18  and  C_22 
REMARK   10  A    between atoms: C_21  and  C_22 
ROOT
HETATM    1  O           1     -20.776  -3.774  -7.320  0.00  0.00    -0.271 OA
HETATM    2  H           1     -23.537  -5.242  -7.570  0.00  0.00     0.163 HD
HETATM    3  C           1     -21.665  -4.539  -7.033  0.00  0.00     0.249 C 
HETATM    4  N           1     -22.792  -4.600  -7.810  0.00  0.00    -0.345 N 
ENDROOT
BRANCH   3   5
HETATM    5  C           1     -21.535  -5.427  -5.820  0.00  0.00     0.275 C 
BRANCH   5   6
HETATM    6  C           1     -20.693  -6.646  -6.170  0.00  0.00     0.053 C 
BRANCH   6   7
HETATM    7  C           1     -20.369  -7.422  -4.900  0.00  0.00     0.115 C 
BRANCH   7   8
HETATM    8  C           1     -21.001  -8.790  -4.971  0.00  0.00     0.172 C 
HETATM    9  O           1     -21.456  -9.322  -3.935  0.00  0.00    -0.648 OA
HETATM   10  O           1     -21.068  -9.392  -6.064  0.00  0.00    -0.648 OA
ENDBRANCH   7   8
ENDBRANCH   6   7
ENDBRANCH   5   6
BRANCH   5  11
HETATM   11  N           1     -22.898  -5.871  -5.378  0.00  0.00    -0.066 N 
HETATM   12  H           1     -23.536  -5.914  -6.205  0.00  0.00     0.275 HD
HETATM   13  H           1     -22.831  -6.817  -4.941  0.00  0.00     0.275 HD
HETATM   14  H           1     -23.277  -5.190  -4.681  0.00  0.00     0.275 HD
ENDBRANCH   5  11
ENDBRANCH   3   5
BRANCH   4  15
HETATM   15  C           1     -22.916  -3.747  -8.975  0.00  0.00     0.186 C 
BRANCH  15  16
HETATM   16  C           1     -21.974  -4.240 -10.067  0.00  0.00     0.046 C 
BRANCH  16  17
HETATM   17  C           1     -21.726  -3.121 -11.069  0.00  0.00     0.076 C 
BRANCH  17  18
HETATM   18  S           1     -22.256  -3.657 -12.720  0.00  0.00    -0.173 SA
HETATM   19  C           1     -23.797  -2.699 -12.755  0.00  0.00     0.089 C 
ENDBRANCH  17  18
ENDBRANCH  16  17
ENDBRANCH  15  16
BRANCH  15  20
HETATM   20  C           1     -24.337  -3.789  -9.479  0.00  0.00     0.196 C 
HETATM   21  O           1     -24.799  -4.846  -9.962  0.00  0.00    -0.646 OA
HETATM   22  O           1     -25.054  -2.768  -9.414  0.00  0.00    -0.646 OA
ENDBRANCH  15  20
ENDBRANCH   4  15
TORSDOF 10
ENDMDL
MODEL 7
REMARK VINA RESULT:      -5.4      9.518     12.807
REMARK  10 active torsions:
REMARK  status: ('A' for Active; 'I' for Inactive)
REMARK    1  A    between atoms: C_1  and  C_14 
REMARK    2  A    between atoms: C_1  and  C_2 
REMARK    3  A    between atoms: C_1  and  N_8 
REMARK    4  A    between atoms: C_2  and  C_3 
REMARK    5  A    between atoms: C_3  and  C_4 
REMARK    6  A    between atoms: S_6  and  C_7 
REMARK    7  A    between atoms: C_7  and  C_13 
REMARK    8  A    between atoms: C_13  and  C_22 
REMARK       I    between atoms: C_14  and  N_18 
REMARK    9  A    between atoms: N_18  and  C_22 
REMARK   10  A    between atoms: C_21  and  C_22 
ROOT
HETATM    1  O           1     -27.347  -5.917 -19.493  0.00  0.00    -0.271 OA
HETATM    2  H           1     -24.862  -7.256 -18.125  0.00  0.00     0.163 HD
HETATM    3  C           1     -26.299  -6.511 -19.415  0.00  0.00     0.249 C 
HETATM    4  N           1     -25.741  -6.758 -18.189  0.00  0.00    -0.345 N 
ENDROOT
BRANCH   3   5
HETATM    5  C           1     -25.603  -6.980 -20.670  0.00  0.00     0.275 C 
BRANCH   5   6
HETATM    6  C           1     -24.331  -7.726 -20.296  0.00  0.00     0.053 C 
BRANCH   6   7
HETATM    7  C           1     -23.696  -8.310 -21.552  0.00  0.00     0.115 C 
BRANCH   7   8
HETATM    8  C           1     -22.230  -8.563 -21.305  0.00  0.00     0.172 C 
HETATM    9  O           1     -21.680  -8.104 -20.280  0.00  0.00    -0.648 OA
HETATM   10  O           1     -21.564  -9.232 -22.125  0.00  0.00    -0.648 OA
ENDBRANCH   7   8
ENDBRANCH   6   7
ENDBRANCH   5   6
BRANCH   5  11
HETATM   11  N           1     -25.256  -5.794 -21.520  0.00  0.00    -0.066 N 
HETATM   12  H           1     -24.633  -5.149 -20.982  0.00  0.00     0.275 HD
HETATM   13  H           1     -24.760  -6.117 -22.382  0.00  0.00     0.275 HD
HETATM   14  H           1     -26.131  -5.289 -21.789  0.00  0.00     0.275 HD
ENDBRANCH   5  11
ENDBRANCH   3   5
BRANCH   4  15
HETATM   15  C           1     -26.410  -6.307 -16.985  0.00  0.00     0.186 C 
BRANCH  15  16
HETATM   16  C           1     -27.637  -7.174 -16.732  0.00  0.00     0.046 C 
BRANCH  16  17
HETATM   17  C           1     -28.648  -6.396 -15.902  0.00  0.00     0.076 C 
BRANCH  17  18
HETATM   18  S           1     -30.171  -6.165 -16.863  0.00  0.00    -0.173 SA
HETATM   19  C           1     -29.965  -7.629 -17.916  0.00  0.00     0.089 C 
ENDBRANCH  17  18
ENDBRANCH  16  17
ENDBRANCH  15  16
BRANCH  15  20
HETATM   20  C           1     -25.465  -6.417 -15.814  0.00  0.00     0.196 C 
HETATM   21  O           1     -25.162  -7.541 -15.358  0.00  0.00    -0.646 OA
HETATM   22  O           1     -24.983  -5.384 -15.300  0.00  0.00    -0.646 OA
ENDBRANCH  15  20
ENDBRANCH   4  15
TORSDOF 10
ENDMDL
MODEL 8
REMARK VINA RESULT:      -5.3      3.612      7.472
REMARK  10 active torsions:
REMARK  status: ('A' for Active; 'I' for Inactive)
REMARK    1  A    between atoms: C_1  and  C_14 
REMARK    2  A    between atoms: C_1  and  C_2 
REMARK    3  A    between atoms: C_1  and  N_8 
REMARK    4  A    between atoms: C_2  and  C_3 
REMARK    5  A    between atoms: C_3  and  C_4 
REMARK    6  A    between atoms: S_6  and  C_7 
REMARK    7  A    between atoms: C_7  and  C_13 
REMARK    8  A    between atoms: C_13  and  C_22 
REMARK       I    between atoms: C_14  and  N_18 
REMARK    9  A    between atoms: N_18  and  C_22 
REMARK   10  A    between atoms: C_21  and  C_22 
ROOT
HETATM    1  O           1     -22.622  -5.463  -5.900  0.00  0.00    -0.271 OA
HETATM    2  H           1     -19.821  -6.218  -4.706  0.00  0.00     0.163 HD
HETATM    3  C           1     -21.427  -5.412  -5.733  0.00  0.00     0.249 C 
HETATM    4  N           1     -20.823  -6.261  -4.845  0.00  0.00    -0.345 N 
ENDROOT
BRANCH   3   5
HETATM    5  C           1     -20.600  -4.411  -6.503  0.00  0.00     0.275 C 
BRANCH   5   6
HETATM    6  C           1     -21.463  -3.751  -7.569  0.00  0.00     0.053 C 
BRANCH   6   7
HETATM    7  C           1     -20.940  -4.125  -8.950  0.00  0.00     0.115 C 
BRANCH   7   8
HETATM    8  C           1     -22.074  -4.088  -9.944  0.00  0.00     0.172 C 
HETATM    9  O           1     -23.040  -4.871  -9.821  0.00  0.00    -0.648 OA
HETATM   10  O           1     -22.047  -3.274 -10.892  0.00  0.00    -0.648 OA
ENDBRANCH   7   8
ENDBRANCH   6   7
ENDBRANCH   5   6
BRANCH   5  11
HETATM   11  N           1     -19.448  -5.114  -7.157  0.00  0.00    -0.066 N 
HETATM   12  H           1     -19.508  -6.139  -6.962  0.00  0.00     0.275 HD
HETATM   13  H           1     -19.483  -4.954  -8.189  0.00  0.00     0.275 HD
HETATM   14  H           1     -18.549  -4.739  -6.776  0.00  0.00     0.275 HD
ENDBRANCH   5  11
ENDBRANCH   3   5
BRANCH   4  15
HETATM   15  C           1     -21.618  -7.223  -4.107  0.00  0.00     0.186 C 
BRANCH  15  16
HETATM   16  C           1     -20.999  -8.608  -4.250  0.00  0.00     0.046 C 
BRANCH  16  17
HETATM   17  C           1     -19.672  -8.500  -4.986  0.00  0.00     0.076 C 
BRANCH  17  18
HETATM   18  S           1     -18.421  -9.500  -4.132  0.00  0.00    -0.173 SA
HETATM   19  C           1     -17.472  -9.942  -5.614  0.00  0.00     0.089 C 
ENDBRANCH  17  18
ENDBRANCH  16  17
ENDBRANCH  15  16
BRANCH  15  20
HETATM   20  C           1     -21.651  -6.834  -2.650  0.00  0.00     0.196 C 
HETATM   21  O           1     -20.918  -7.426  -1.828  0.00  0.00    -0.646 OA
HETATM   22  O           1     -22.410  -5.919  -2.264  0.00  0.00    -0.646 OA
ENDBRANCH  15  20
ENDBRANCH   4  15
TORSDOF 10
ENDMDL
MODEL 9
REMARK VINA RESULT:      -5.2      2.126      2.582
REMARK  10 active torsions:
REMARK  status: ('A' for Active; 'I' for Inactive)
REMARK    1  A    between atoms: C_1  and  C_14 
REMARK    2  A    between atoms: C_1  and  C_2 
REMARK    3  A    between atoms: C_1  and  N_8 
REMARK    4  A    between atoms: C_2  and  C_3 
REMARK    5  A    between atoms: C_3  and  C_4 
REMARK    6  A    between atoms: S_6  and  C_7 
REMARK    7  A    between atoms: C_7  and  C_13 
REMARK    8  A    between atoms: C_13  and  C_22 
REMARK       I    between atoms: C_14  and  N_18 
REMARK    9  A    between atoms: N_18  and  C_22 
REMARK   10  A    between atoms: C_21  and  C_22 
ROOT
HETATM    1  O           1     -21.530  -3.298  -7.921  0.00  0.00    -0.271 OA
HETATM    2  H           1     -23.951  -5.181  -8.581  0.00  0.00     0.163 HD
HETATM    3  C           1     -22.351  -4.166  -7.747  0.00  0.00     0.249 C 
HETATM    4  N           1     -23.264  -4.452  -8.727  0.00  0.00    -0.345 N 
ENDROOT
BRANCH   3   5
HETATM    5  C           1     -22.371  -4.935  -6.449  0.00  0.00     0.275 C 
BRANCH   5   6
HETATM    6  C           1     -21.527  -6.194  -6.590  0.00  0.00     0.053 C 
BRANCH   6   7
HETATM    7  C           1     -20.613  -6.332  -5.380  0.00  0.00     0.115 C 
BRANCH   7   8
HETATM    8  C           1     -20.573  -7.774  -4.940  0.00  0.00     0.172 C 
HETATM    9  O           1     -21.636  -8.379  -4.683  0.00  0.00    -0.648 OA
HETATM   10  O           1     -19.476  -8.365  -4.833  0.00  0.00    -0.648 OA
ENDBRANCH   7   8
ENDBRANCH   6   7
ENDBRANCH   5   6
BRANCH   5  11
HETATM   11  N           1     -23.784  -5.316  -6.117  0.00  0.00    -0.066 N 
HETATM   12  H           1     -24.005  -5.017  -5.139  0.00  0.00     0.275 HD
HETATM   13  H           1     -24.437  -4.843  -6.781  0.00  0.00     0.275 HD
HETATM   14  H           1     -23.894  -6.353  -6.197  0.00  0.00     0.275 HD
ENDBRANCH   5  11
ENDBRANCH   3   5
BRANCH   4  15
HETATM   15  C           1     -23.243  -3.713  -9.974  0.00  0.00     0.186 C 
BRANCH  15  16
HETATM   16  C           1     -22.775  -4.629 -11.099  0.00  0.00     0.046 C 
BRANCH  16  17
HETATM   17  C           1     -21.897  -3.843 -12.063  0.00  0.00     0.076 C 
BRANCH  17  18
HETATM   18  S           1     -20.416  -3.256 -11.193  0.00  0.00    -0.173 SA
HETATM   19  C           1     -19.928  -4.870 -10.520  0.00  0.00     0.089 C 
ENDBRANCH  17  18
ENDBRANCH  16  17
ENDBRANCH  15  16
BRANCH  15  20
HETATM   20  C           1     -24.631  -3.207 -10.281  0.00  0.00     0.196 C 
HETATM   21  O           1     -25.038  -3.178 -11.463  0.00  0.00    -0.646 OA
HETATM   22  O           1     -25.374  -2.819  -9.355  0.00  0.00    -0.646 OA
ENDBRANCH  15  20
ENDBRANCH   4  15
TORSDOF 10
ENDMDL
