MODEL 1
REMARK VINA RESULT:      -6.3      0.000      0.000
REMARK  5 active torsions:
REMARK  status: ('A' for Active; 'I' for Inactive)
REMARK    1  A    between atoms: C_1  and  C_11 
REMARK    2  A    between atoms: C_1  and  C_2 
REMARK    3  A    between atoms: N_5  and  C_11 
REMARK    4  A    between atoms: C_7  and  C_15 
REMARK    5  A    between atoms: C_11  and  C_14 
REMARK       I    between atoms: N_13  and  C_14 
ROOT
HETATM    1  O           1     -20.615  -5.470  -8.504  0.00  0.00    -0.271 OA
HETATM    2  N           1     -22.346  -4.313  -9.314  0.00  0.00    -0.336 N 
HETATM    3  C           1     -21.577  -4.773  -8.279  0.00  0.00     0.251 C 
HETATM    4  C           1     -22.156  -4.560 -10.741  0.00  0.00     0.188 C 
HETATM    5  C           1     -23.535  -3.469  -9.232  0.00  0.00     0.127 C 
HETATM    6  C           1     -24.473  -4.061 -10.269  0.00  0.00     0.022 C 
HETATM    7  C           1     -23.567  -4.783 -11.260  0.00  0.00     0.038 C 
ENDROOT
BRANCH   3   8
HETATM    8  C           1     -21.930  -4.411  -6.858  0.00  0.00     0.275 C 
BRANCH   8   9
HETATM    9  C           1     -20.964  -5.101  -5.903  0.00  0.00     0.046 C 
BRANCH   9  10
HETATM   10  C           1     -21.695  -6.207  -5.153  0.00  0.00    -0.020 C 
HETATM   11  C           1     -21.224  -7.563  -5.664  0.00  0.00     0.009 C 
HETATM   12  C           1     -21.394  -6.095  -3.664  0.00  0.00     0.009 C 
ENDBRANCH   9  10
ENDBRANCH   8   9
BRANCH   8  13
HETATM   13  N           1     -23.331  -4.860  -6.562  0.00  0.00    -0.066 N 
HETATM   14  H           1     -23.922  -4.029  -6.337  0.00  0.00     0.275 HD
HETATM   15  H           1     -23.322  -5.511  -5.744  0.00  0.00     0.275 HD
HETATM   16  H           1     -23.722  -5.352  -7.396  0.00  0.00     0.275 HD
ENDBRANCH   8  13
ENDBRANCH   3   8
BRANCH   4  17
HETATM   17  C           1     -21.519  -3.368 -11.413  0.00  0.00     0.196 C 
HETATM   18  O           1     -20.372  -3.003 -11.080  0.00  0.00    -0.646 OA
HETATM   19  O           1     -22.141  -2.746 -12.302  0.00  0.00    -0.646 OA
ENDBRANCH   4  17
TORSDOF 5
ENDMDL
MODEL 2
REMARK VINA RESULT:      -5.8      2.749      6.328
REMARK  5 active torsions:
REMARK  status: ('A' for Active; 'I' for Inactive)
REMARK    1  A    between atoms: C_1  and  C_11 
REMARK    2  A    between atoms: C_1  and  C_2 
REMARK    3  A    between atoms: N_5  and  C_11 
REMARK    4  A    between atoms: C_7  and  C_15 
REMARK    5  A    between atoms: C_11  and  C_14 
REMARK       I    between atoms: N_13  and  C_14 
ROOT
HETATM    1  O           1     -19.386  -6.687  -6.995  0.00  0.00    -0.271 OA
HETATM    2  N           1     -21.037  -6.830  -5.498  0.00  0.00    -0.336 N 
HETATM    3  C           1     -20.468  -6.298  -6.623  0.00  0.00     0.251 C 
HETATM    4  C           1     -20.487  -7.869  -4.630  0.00  0.00     0.188 C 
HETATM    5  C           1     -22.325  -6.486  -4.904  0.00  0.00     0.127 C 
HETATM    6  C           1     -22.048  -6.485  -3.410  0.00  0.00     0.022 C 
HETATM    7  C           1     -20.837  -7.392  -3.230  0.00  0.00     0.038 C 
ENDROOT
BRANCH   3   8
HETATM    8  C           1     -21.191  -5.223  -7.398  0.00  0.00     0.275 C 
BRANCH   8   9
HETATM    9  C           1     -20.633  -5.156  -8.813  0.00  0.00     0.046 C 
BRANCH   9  10
HETATM   10  C           1     -21.370  -4.079  -9.599  0.00  0.00    -0.020 C 
HETATM   11  C           1     -20.658  -3.843 -10.925  0.00  0.00     0.009 C 
HETATM   12  C           1     -22.799  -4.533  -9.864  0.00  0.00     0.009 C 
ENDBRANCH   9  10
ENDBRANCH   8   9
BRANCH   8  13
HETATM   13  N           1     -20.992  -3.900  -6.719  0.00  0.00    -0.066 N 
HETATM   14  H           1     -20.660  -4.057  -5.741  0.00  0.00     0.275 HD
HETATM   15  H           1     -21.899  -3.380  -6.699  0.00  0.00     0.275 HD
HETATM   16  H           1     -20.283  -3.342  -7.245  0.00  0.00     0.275 HD
ENDBRANCH   8  13
ENDBRANCH   3   8
BRANCH   4  17
HETATM   17  C           1     -21.129  -9.205  -4.918  0.00  0.00     0.196 C 
HETATM   18  O           1     -21.714  -9.825  -4.005  0.00  0.00    -0.646 OA
HETATM   19  O           1     -21.073  -9.690  -6.068  0.00  0.00    -0.646 OA
ENDBRANCH   4  17
TORSDOF 5
ENDMDL
MODEL 3
REMARK VINA RESULT:      -5.8      5.634      7.673
REMARK  5 active torsions:
REMARK  status: ('A' for Active; 'I' for Inactive)
REMARK    1  A    between atoms: C_1  and  C_11 
REMARK    2  A    between atoms: C_1  and  C_2 
REMARK    3  A    between atoms: N_5  and  C_11 
REMARK    4  A    between atoms: C_7  and  C_15 
REMARK    5  A    between atoms: C_11  and  C_14 
REMARK       I    between atoms: N_13  and  C_14 
ROOT
HETATM    1  O           1     -19.812  -8.016  -1.368  0.00  0.00    -0.271 OA
HETATM    2  N           1     -20.966  -8.557  -3.203  0.00  0.00    -0.336 N 
HETATM    3  C           1     -20.478  -8.836  -1.954  0.00  0.00     0.251 C 
HETATM    4  C           1     -20.785  -7.329  -3.973  0.00  0.00     0.188 C 
HETATM    5  C           1     -21.781  -9.419  -4.053  0.00  0.00     0.127 C 
HETATM    6  C           1     -21.215  -9.197  -5.445  0.00  0.00     0.022 C 
HETATM    7  C           1     -20.556  -7.824  -5.391  0.00  0.00     0.038 C 
ENDROOT
BRANCH   3   8
HETATM    8  C           1     -20.771 -10.170  -1.311  0.00  0.00     0.275 C 
BRANCH   8   9
HETATM    9  C           1     -21.522  -9.949  -0.005  0.00  0.00     0.046 C 
BRANCH   9  10
HETATM   10  C           1     -22.928  -9.445  -0.307  0.00  0.00    -0.020 C 
HETATM   11  C           1     -23.933 -10.558  -0.045  0.00  0.00     0.009 C 
HETATM   12  C           1     -23.243  -8.256   0.591  0.00  0.00     0.009 C 
ENDBRANCH   9  10
ENDBRANCH   8   9
BRANCH   8  13
HETATM   13  N           1     -19.480 -10.883  -1.031  0.00  0.00    -0.066 N 
HETATM   14  H           1     -18.679 -10.269  -1.299  0.00  0.00     0.275 HD
HETATM   15  H           1     -19.443 -11.766  -1.587  0.00  0.00     0.275 HD
HETATM   16  H           1     -19.422 -11.109  -0.013  0.00  0.00     0.275 HD
ENDBRANCH   8  13
ENDBRANCH   3   8
BRANCH   4  17
HETATM   17  C           1     -22.018  -6.462  -3.900  0.00  0.00     0.196 C 
HETATM   18  O           1     -22.600  -6.114  -4.950  0.00  0.00    -0.646 OA
HETATM   19  O           1     -22.456  -6.091  -2.789  0.00  0.00    -0.646 OA
ENDBRANCH   4  17
TORSDOF 5
ENDMDL
MODEL 4
REMARK VINA RESULT:      -5.7      8.192     10.576
REMARK  5 active torsions:
REMARK  status: ('A' for Active; 'I' for Inactive)
REMARK    1  A    between atoms: C_1  and  C_11 
REMARK    2  A    between atoms: C_1  and  C_2 
REMARK    3  A    between atoms: N_5  and  C_11 
REMARK    4  A    between atoms: C_7  and  C_15 
REMARK    5  A    between atoms: C_11  and  C_14 
REMARK       I    between atoms: N_13  and  C_14 
ROOT
HETATM    1  O           1     -20.592 -10.391   1.293  0.00  0.00    -0.271 OA
HETATM    2  N           1     -21.292  -9.728  -0.722  0.00  0.00    -0.336 N 
HETATM    3  C           1     -21.032 -10.697   0.210  0.00  0.00     0.251 C 
HETATM    4  C           1     -21.101  -8.287  -0.583  0.00  0.00     0.188 C 
HETATM    5  C           1     -21.820  -9.910  -2.071  0.00  0.00     0.127 C 
HETATM    6  C           1     -21.019  -8.931  -2.911  0.00  0.00     0.022 C 
HETATM    7  C           1     -20.541  -7.865  -1.931  0.00  0.00     0.038 C 
ENDROOT
BRANCH   3   8
HETATM    8  C           1     -21.295 -12.147  -0.115  0.00  0.00     0.275 C 
BRANCH   8   9
HETATM    9  C           1     -21.703 -12.886   1.152  0.00  0.00     0.046 C 
BRANCH   9  10
HETATM   10  C           1     -23.213 -13.087   1.160  0.00  0.00    -0.020 C 
HETATM   11  C           1     -23.654 -13.664  -0.178  0.00  0.00     0.009 C 
HETATM   12  C           1     -23.590 -14.050   2.278  0.00  0.00     0.009 C 
ENDBRANCH   9  10
ENDBRANCH   8   9
BRANCH   8  13
HETATM   13  N           1     -20.049 -12.766  -0.676  0.00  0.00    -0.066 N 
HETATM   14  H           1     -20.288 -13.310  -1.536  0.00  0.00     0.275 HD
HETATM   15  H           1     -19.629 -13.407   0.035  0.00  0.00     0.275 HD
HETATM   16  H           1     -19.364 -12.015  -0.916  0.00  0.00     0.275 HD
ENDBRANCH   8  13
ENDBRANCH   3   8
BRANCH   4  17
HETATM   17  C           1     -22.413  -7.595  -0.306  0.00  0.00     0.196 C 
HETATM   18  O           1     -22.734  -6.581  -0.962  0.00  0.00    -0.646 OA
HETATM   19  O           1     -23.177  -8.035   0.579  0.00  0.00    -0.646 OA
ENDBRANCH   4  17
TORSDOF 5
ENDMDL
MODEL 5
REMARK VINA RESULT:      -5.6     17.787     20.146
REMARK  5 active torsions:
REMARK  status: ('A' for Active; 'I' for Inactive)
REMARK    1  A    between atoms: C_1  and  C_11 
REMARK    2  A    between atoms: C_1  and  C_2 
REMARK    3  A    between atoms: N_5  and  C_11 
REMARK    4  A    between atoms: C_7  and  C_15 
REMARK    5  A    between atoms: C_11  and  C_14 
REMARK       I    between atoms: N_13  and  C_14 
ROOT
HETATM    1  O           1     -13.359   6.812 -19.466  0.00  0.00    -0.271 OA
HETATM    2  N           1     -11.559   7.464 -20.617  0.00  0.00    -0.336 N 
HETATM    3  C           1     -12.442   6.508 -20.191  0.00  0.00     0.251 C 
HETATM    4  C           1     -11.572   8.889 -20.299  0.00  0.00     0.188 C 
HETATM    5  C           1     -10.402   7.281 -21.487  0.00  0.00     0.127 C 
HETATM    6  C           1      -9.336   8.167 -20.865  0.00  0.00     0.022 C 
HETATM    7  C           1     -10.105   9.223 -20.079  0.00  0.00     0.038 C 
ENDROOT
BRANCH   3   8
HETATM    8  C           1     -12.269   5.074 -20.628  0.00  0.00     0.275 C 
BRANCH   8   9
HETATM    9  C           1     -13.616   4.363 -20.584  0.00  0.00     0.046 C 
BRANCH   9  10
HETATM   10  C           1     -14.032   3.974 -21.996  0.00  0.00    -0.020 C 
HETATM   11  C           1     -15.030   4.993 -22.530  0.00  0.00     0.009 C 
HETATM   12  C           1     -12.804   3.946 -22.897  0.00  0.00     0.009 C 
ENDBRANCH   9  10
ENDBRANCH   8   9
BRANCH   8  13
HETATM   13  N           1     -11.310   4.383 -19.703  0.00  0.00    -0.066 N 
HETATM   14  H           1     -11.458   4.727 -18.728  0.00  0.00     0.275 HD
HETATM   15  H           1     -10.330   4.591 -20.000  0.00  0.00     0.275 HD
HETATM   16  H           1     -11.473   3.352 -19.738  0.00  0.00     0.275 HD
ENDBRANCH   8  13
ENDBRANCH   3   8
BRANCH   4  17
HETATM   17  C           1     -12.139   9.691 -21.445  0.00  0.00     0.196 C 
HETATM   18  O           1     -11.508  10.673 -21.892  0.00  0.00    -0.646 OA
HETATM   19  O           1     -13.239   9.373 -21.945  0.00  0.00    -0.646 OA
ENDBRANCH   4  17
TORSDOF 5
ENDMDL
MODEL 6
REMARK VINA RESULT:      -5.5      3.740      6.030
REMARK  5 active torsions:
REMARK  status: ('A' for Active; 'I' for Inactive)
REMARK    1  A    between atoms: C_1  and  C_11 
REMARK    2  A    between atoms: C_1  and  C_2 
REMARK    3  A    between atoms: N_5  and  C_11 
REMARK    4  A    between atoms: C_7  and  C_15 
REMARK    5  A    between atoms: C_11  and  C_14 
REMARK       I    between atoms: N_13  and  C_14 
ROOT
HETATM    1  O           1     -21.697  -5.547  -2.538  0.00  0.00    -0.271 OA
HETATM    2  N           1     -21.142  -6.558  -4.451  0.00  0.00    -0.336 N 
HETATM    3  C           1     -21.440  -6.577  -3.115  0.00  0.00     0.251 C 
HETATM    4  C           1     -21.091  -5.396  -5.333  0.00  0.00     0.188 C 
HETATM    5  C           1     -20.808  -7.695  -5.304  0.00  0.00     0.127 C 
HETATM    6  C           1     -19.690  -7.170  -6.187  0.00  0.00     0.022 C 
HETATM    7  C           1     -19.873  -5.657  -6.204  0.00  0.00     0.038 C 
ENDROOT
BRANCH   3   8
HETATM    8  C           1     -21.444  -7.885  -2.361  0.00  0.00     0.275 C 
BRANCH   8   9
HETATM    9  C           1     -22.158  -7.700  -1.028  0.00  0.00     0.046 C 
BRANCH   9  10
HETATM   10  C           1     -21.928  -8.926  -0.154  0.00  0.00    -0.020 C 
HETATM   11  C           1     -21.463  -8.485   1.227  0.00  0.00     0.009 C 
HETATM   12  C           1     -23.228  -9.709  -0.027  0.00  0.00     0.009 C 
ENDBRANCH   9  10
ENDBRANCH   8   9
BRANCH   8  13
HETATM   13  N           1     -20.031  -8.323  -2.115  0.00  0.00    -0.066 N 
HETATM   14  H           1     -19.381  -7.528  -2.307  0.00  0.00     0.275 HD
HETATM   15  H           1     -19.799  -9.122  -2.748  0.00  0.00     0.275 HD
HETATM   16  H           1     -19.928  -8.626  -1.120  0.00  0.00     0.275 HD
ENDBRANCH   8  13
ENDBRANCH   3   8
BRANCH   4  17
HETATM   17  C           1     -22.341  -5.303  -6.174  0.00  0.00     0.196 C 
HETATM   18  O           1     -23.448  -5.612  -5.684  0.00  0.00    -0.646 OA
HETATM   19  O           1     -22.268  -4.918  -7.361  0.00  0.00    -0.646 OA
ENDBRANCH   4  17
TORSDOF 5
ENDMDL
MODEL 7
REMARK VINA RESULT:      -5.5     18.268     20.043
REMARK  5 active torsions:
REMARK  status: ('A' for Active; 'I' for Inactive)
REMARK    1  A    between atoms: C_1  and  C_11 
REMARK    2  A    between atoms: C_1  and  C_2 
REMARK    3  A    between atoms: N_5  and  C_11 
REMARK    4  A    between atoms: C_7  and  C_15 
REMARK    5  A    between atoms: C_11  and  C_14 
REMARK       I    between atoms: N_13  and  C_14 
ROOT
HETATM    1  O           1     -10.202   8.148 -18.746  0.00  0.00    -0.271 OA
HETATM    2  N           1     -11.765   8.587 -20.280  0.00  0.00    -0.336 N 
HETATM    3  C           1     -10.801   7.784 -19.731  0.00  0.00     0.251 C 
HETATM    4  C           1     -12.199   9.901 -19.814  0.00  0.00     0.188 C 
HETATM    5  C           1     -12.584   8.315 -21.458  0.00  0.00     0.127 C 
HETATM    6  C           1     -12.642   9.652 -22.177  0.00  0.00     0.022 C 
HETATM    7  C           1     -12.385  10.695 -21.096  0.00  0.00     0.038 C 
ENDROOT
BRANCH   3   8
HETATM    8  C           1     -10.487   6.447 -20.355  0.00  0.00     0.275 C 
BRANCH   8   9
HETATM    9  C           1     -11.224   5.349 -19.601  0.00  0.00     0.046 C 
BRANCH   9  10
HETATM   10  C           1     -11.670   4.271 -20.581  0.00  0.00    -0.020 C 
HETATM   11  C           1     -11.014   2.947 -20.212  0.00  0.00     0.009 C 
HETATM   12  C           1     -13.184   4.122 -20.518  0.00  0.00     0.009 C 
ENDBRANCH   9  10
ENDBRANCH   8   9
BRANCH   8  13
HETATM   13  N           1      -9.009   6.198 -20.282  0.00  0.00    -0.066 N 
HETATM   14  H           1      -8.531   6.708 -21.058  0.00  0.00     0.275 HD
HETATM   15  H           1      -8.824   5.173 -20.374  0.00  0.00     0.275 HD
HETATM   16  H           1      -8.643   6.536 -19.364  0.00  0.00     0.275 HD
ENDBRANCH   8  13
ENDBRANCH   3   8
BRANCH   4  17
HETATM   17  C           1     -13.499   9.799 -19.053  0.00  0.00     0.196 C 
HETATM   18  O           1     -14.389  10.660 -19.221  0.00  0.00    -0.646 OA
HETATM   19  O           1     -13.684   8.855 -18.256  0.00  0.00    -0.646 OA
ENDBRANCH   4  17
TORSDOF 5
ENDMDL
MODEL 8
REMARK VINA RESULT:      -5.4     17.906     19.832
REMARK  5 active torsions:
REMARK  status: ('A' for Active; 'I' for Inactive)
REMARK    1  A    between atoms: C_1  and  C_11 
REMARK    2  A    between atoms: C_1  and  C_2 
REMARK    3  A    between atoms: N_5  and  C_11 
REMARK    4  A    between atoms: C_7  and  C_15 
REMARK    5  A    between atoms: C_11  and  C_14 
REMARK       I    between atoms: N_13  and  C_14 
ROOT
HETATM    1  O           1     -12.703   6.601 -19.536  0.00  0.00    -0.271 OA
HETATM    2  N           1     -12.458   5.197 -21.256  0.00  0.00    -0.336 N 
HETATM    3  C           1     -12.495   6.455 -20.717  0.00  0.00     0.251 C 
HETATM    4  C           1     -12.642   3.926 -20.559  0.00  0.00     0.188 C 
HETATM    5  C           1     -12.223   4.832 -22.650  0.00  0.00     0.127 C 
HETATM    6  C           1     -13.203   3.699 -22.899  0.00  0.00     0.022 C 
HETATM    7  C           1     -13.482   3.105 -21.523  0.00  0.00     0.038 C 
ENDROOT
BRANCH   3   8
HETATM    8  C           1     -12.280   7.660 -21.600  0.00  0.00     0.275 C 
BRANCH   8   9
HETATM    9  C           1     -10.851   7.652 -22.129  0.00  0.00     0.046 C 
BRANCH   9  10
HETATM   10  C           1      -9.880   7.852 -20.973  0.00  0.00    -0.020 C 
HETATM   11  C           1      -9.003   6.615 -20.828  0.00  0.00     0.009 C 
HETATM   12  C           1      -9.003   9.065 -21.251  0.00  0.00     0.009 C 
ENDBRANCH   9  10
ENDBRANCH   8   9
BRANCH   8  13
HETATM   13  N           1     -12.510   8.910 -20.803  0.00  0.00    -0.066 N 
HETATM   14  H           1     -11.637   9.159 -20.287  0.00  0.00     0.275 HD
HETATM   15  H           1     -13.284   8.749 -20.119  0.00  0.00     0.275 HD
HETATM   16  H           1     -12.771   9.690 -21.446  0.00  0.00     0.275 HD
ENDBRANCH   8  13
ENDBRANCH   3   8
BRANCH   4  17
HETATM   17  C           1     -11.315   3.257 -20.300  0.00  0.00     0.196 C 
HETATM   18  O           1     -10.434   3.850 -19.642  0.00  0.00    -0.646 OA
HETATM   19  O           1     -11.097   2.109 -20.745  0.00  0.00    -0.646 OA
ENDBRANCH   4  17
TORSDOF 5
ENDMDL
MODEL 9
REMARK VINA RESULT:      -5.3      1.478      1.889
REMARK  5 active torsions:
REMARK  status: ('A' for Active; 'I' for Inactive)
REMARK    1  A    between atoms: C_1  and  C_11 
REMARK    2  A    between atoms: C_1  and  C_2 
REMARK    3  A    between atoms: N_5  and  C_11 
REMARK    4  A    between atoms: C_7  and  C_15 
REMARK    5  A    between atoms: C_11  and  C_14 
REMARK       I    between atoms: N_13  and  C_14 
ROOT
HETATM    1  O           1     -19.709  -5.250 -10.436  0.00  0.00    -0.271 OA
HETATM    2  N           1     -21.782  -4.523 -10.036  0.00  0.00    -0.336 N 
HETATM    3  C           1     -20.550  -4.952  -9.621  0.00  0.00     0.251 C 
HETATM    4  C           1     -22.252  -4.363 -11.409  0.00  0.00     0.188 C 
HETATM    5  C           1     -22.912  -4.124  -9.202  0.00  0.00     0.127 C 
HETATM    6  C           1     -24.116  -4.718  -9.913  0.00  0.00     0.022 C 
HETATM    7  C           1     -23.681  -4.879 -11.364  0.00  0.00     0.038 C 
ENDROOT
BRANCH   3   8
HETATM    8  C           1     -20.243  -5.054  -8.148  0.00  0.00     0.275 C 
BRANCH   8   9
HETATM    9  C           1     -21.476  -5.553  -7.406  0.00  0.00     0.046 C 
BRANCH   9  10
HETATM   10  C           1     -21.113  -5.845  -5.955  0.00  0.00    -0.020 C 
HETATM   11  C           1     -22.363  -6.266  -5.195  0.00  0.00     0.009 C 
HETATM   12  C           1     -20.086  -6.969  -5.905  0.00  0.00     0.009 C 
ENDBRANCH   9  10
ENDBRANCH   8   9
BRANCH   8  13
HETATM   13  N           1     -19.858  -3.702  -7.623  0.00  0.00    -0.066 N 
HETATM   14  H           1     -20.243  -3.580  -6.660  0.00  0.00     0.275 HD
HETATM   15  H           1     -20.248  -2.962  -8.250  0.00  0.00     0.275 HD
HETATM   16  H           1     -18.817  -3.622  -7.596  0.00  0.00     0.275 HD
ENDBRANCH   8  13
ENDBRANCH   3   8
BRANCH   4  17
HETATM   17  C           1     -22.219  -2.912 -11.824  0.00  0.00     0.196 C 
HETATM   18  O           1     -23.183  -2.418 -12.447  0.00  0.00    -0.646 OA
HETATM   19  O           1     -21.227  -2.205 -11.543  0.00  0.00    -0.646 OA
ENDBRANCH   4  17
TORSDOF 5
ENDMDL
