MODEL 1
REMARK VINA RESULT:      -7.4      0.000      0.000
REMARK  11 active torsions:
REMARK  status: ('A' for Active; 'I' for Inactive)
REMARK    1  A    between atoms: N_3  and  C_9 
REMARK    2  A    between atoms: C_7  and  C_15 
REMARK    3  A    between atoms: C_7  and  C_19 
REMARK    4  A    between atoms: C_7  and  N_27 
REMARK    5  A    between atoms: C_8  and  C_11 
REMARK    6  A    between atoms: C_9  and  C_14 
REMARK    7  A    between atoms: N_10  and  C_11 
REMARK       I    between atoms: N_10  and  C_15 
REMARK    8  A    between atoms: C_11  and  C_12 
REMARK    9  A    between atoms: C_12  and  C_13 
REMARK   10  A    between atoms: C_13  and  C_14 
REMARK   11  A    between atoms: C_18  and  C_19 
ROOT
HETATM    1  H           1     -22.006  -5.708  -9.529  0.00  0.00     0.163 HD
HETATM    2  N           1     -22.117  -4.786  -9.125  0.00  0.00    -0.345 N 
HETATM    3  C           1     -21.701  -4.545  -7.844  0.00  0.00     0.249 C 
HETATM    4  O           1     -21.833  -3.446  -7.361  0.00  0.00    -0.271 OA
ENDROOT
BRANCH   2   5
HETATM    5  C           1     -22.718  -3.721  -9.904  0.00  0.00     0.185 C 
BRANCH   5   6
HETATM    6  C           1     -24.222  -3.813  -9.804  0.00  0.00     0.196 C 
HETATM    7  O           1     -24.794  -4.909  -9.985  0.00  0.00    -0.646 OA
HETATM    8  O           1     -24.894  -2.794  -9.538  0.00  0.00    -0.646 OA
ENDBRANCH   5   6
BRANCH   5   9
HETATM    9  C           1     -22.298  -3.857 -11.361  0.00  0.00     0.036 C 
BRANCH   9  10
HETATM   10  C           1     -22.704  -2.604 -12.126  0.00  0.00     0.004 C 
BRANCH  10  11
HETATM   11  C           1     -23.655  -2.983 -13.253  0.00  0.00     0.027 C 
BRANCH  11  12
HETATM   12  C           1     -23.142  -2.408 -14.567  0.00  0.00     0.229 C 
BRANCH  12  13
HETATM   13  N           1     -23.873  -1.135 -14.876  0.00  0.00    -0.079 N 
HETATM   14  H           1     -23.507  -0.731 -15.768  0.00  0.00     0.274 HD
HETATM   15  H           1     -24.893  -1.335 -14.977  0.00  0.00     0.274 HD
HETATM   16  H           1     -23.725  -0.451 -14.100  0.00  0.00     0.274 HD
ENDBRANCH  12  13
ENDBRANCH  11  12
ENDBRANCH  10  11
ENDBRANCH   9  10
ENDBRANCH   5   9
ENDBRANCH   2   5
BRANCH   3  17
HETATM   17  C           1     -21.076  -5.654  -7.033  0.00  0.00     0.278 C 
BRANCH  17  18
HETATM   18  C           1     -20.829  -5.167  -5.611  0.00  0.00     0.081 C 
BRANCH  18  19
HETATM   19  C           1     -21.094  -6.282  -4.647  0.00  0.00    -0.056 A 
HETATM   20  C           1     -21.224  -6.010  -3.285  0.00  0.00     0.007 A 
HETATM   21  C           1     -21.472  -7.048  -2.387  0.00  0.00     0.001 A 
HETATM   22  C           1     -21.589  -8.358  -2.852  0.00  0.00     0.000 A 
HETATM   23  C           1     -21.459  -8.630  -4.214  0.00  0.00     0.001 A 
HETATM   24  C           1     -21.211  -7.592  -5.111  0.00  0.00     0.007 A 
ENDBRANCH  18  19
ENDBRANCH  17  18
BRANCH  17  25
HETATM   25  N           1     -19.772  -6.055  -7.657  0.00  0.00    -0.066 N 
HETATM   26  H           1     -19.019  -6.038  -6.933  0.00  0.00     0.275 HD
HETATM   27  H           1     -19.533  -5.386  -8.424  0.00  0.00     0.275 HD
HETATM   28  H           1     -19.855  -7.020  -8.049  0.00  0.00     0.275 HD
ENDBRANCH  17  25
ENDBRANCH   3  17
TORSDOF 11
ENDMDL
MODEL 2
REMARK VINA RESULT:      -7.1      3.274      8.767
REMARK  11 active torsions:
REMARK  status: ('A' for Active; 'I' for Inactive)
REMARK    1  A    between atoms: N_3  and  C_9 
REMARK    2  A    between atoms: C_7  and  C_15 
REMARK    3  A    between atoms: C_7  and  C_19 
REMARK    4  A    between atoms: C_7  and  N_27 
REMARK    5  A    between atoms: C_8  and  C_11 
REMARK    6  A    between atoms: C_9  and  C_14 
REMARK    7  A    between atoms: N_10  and  C_11 
REMARK       I    between atoms: N_10  and  C_15 
REMARK    8  A    between atoms: C_11  and  C_12 
REMARK    9  A    between atoms: C_12  and  C_13 
REMARK   10  A    between atoms: C_13  and  C_14 
REMARK   11  A    between atoms: C_18  and  C_19 
ROOT
HETATM    1  H           1     -22.233  -7.472  -5.772  0.00  0.00     0.163 HD
HETATM    2  N           1     -21.535  -6.861  -5.367  0.00  0.00    -0.345 N 
HETATM    3  C           1     -21.386  -5.584  -5.838  0.00  0.00     0.249 C 
HETATM    4  O           1     -20.554  -4.855  -5.355  0.00  0.00    -0.271 OA
ENDROOT
BRANCH   2   5
HETATM    5  C           1     -20.693  -7.337  -4.288  0.00  0.00     0.185 C 
BRANCH   5   6
HETATM    6  C           1     -19.921  -8.549  -4.751  0.00  0.00     0.196 C 
HETATM    7  O           1     -18.865  -8.879  -4.169  0.00  0.00    -0.646 OA
HETATM    8  O           1     -20.339  -9.224  -5.716  0.00  0.00    -0.646 OA
ENDBRANCH   5   6
BRANCH   5   9
HETATM    9  C           1     -21.559  -7.715  -3.094  0.00  0.00     0.036 C 
BRANCH   9  10
HETATM   10  C           1     -21.826  -6.479  -2.247  0.00  0.00     0.004 C 
BRANCH  10  11
HETATM   11  C           1     -22.358  -6.901  -0.884  0.00  0.00     0.027 C 
BRANCH  11  12
HETATM   12  C           1     -21.591  -8.123  -0.394  0.00  0.00     0.229 C 
BRANCH  12  13
HETATM   13  N           1     -21.673  -8.199   1.101  0.00  0.00    -0.079 N 
HETATM   14  H           1     -22.658  -8.022   1.406  0.00  0.00     0.274 HD
HETATM   15  H           1     -21.376  -9.149   1.419  0.00  0.00     0.274 HD
HETATM   16  H           1     -21.045  -7.478   1.523  0.00  0.00     0.274 HD
ENDBRANCH  12  13
ENDBRANCH  11  12
ENDBRANCH  10  11
ENDBRANCH   9  10
ENDBRANCH   5   9
ENDBRANCH   2   5
BRANCH   3  17
HETATM   17  C           1     -22.264  -5.088  -6.962  0.00  0.00     0.278 C 
BRANCH  17  18
HETATM   18  C           1     -21.688  -3.794  -7.522  0.00  0.00     0.081 C 
BRANCH  18  19
HETATM   19  C           1     -21.657  -3.867  -9.017  0.00  0.00    -0.056 A 
HETATM   20  C           1     -20.449  -4.090  -9.680  0.00  0.00     0.007 A 
HETATM   21  C           1     -20.420  -4.158 -11.072  0.00  0.00     0.001 A 
HETATM   22  C           1     -21.598  -4.004 -11.802  0.00  0.00     0.000 A 
HETATM   23  C           1     -22.805  -3.780 -11.141  0.00  0.00     0.001 A 
HETATM   24  C           1     -22.834  -3.712  -9.748  0.00  0.00     0.007 A 
ENDBRANCH  18  19
ENDBRANCH  17  18
BRANCH  17  25
HETATM   25  N           1     -23.647  -4.834  -6.440  0.00  0.00    -0.066 N 
HETATM   26  H           1     -24.121  -5.746  -6.250  0.00  0.00     0.275 HD
HETATM   27  H           1     -24.194  -4.299  -7.151  0.00  0.00     0.275 HD
HETATM   28  H           1     -23.589  -4.282  -5.555  0.00  0.00     0.275 HD
ENDBRANCH  17  25
ENDBRANCH   3  17
TORSDOF 11
ENDMDL
MODEL 3
REMARK VINA RESULT:      -7.1     12.177     15.697
REMARK  11 active torsions:
REMARK  status: ('A' for Active; 'I' for Inactive)
REMARK    1  A    between atoms: N_3  and  C_9 
REMARK    2  A    between atoms: C_7  and  C_15 
REMARK    3  A    between atoms: C_7  and  C_19 
REMARK    4  A    between atoms: C_7  and  N_27 
REMARK    5  A    between atoms: C_8  and  C_11 
REMARK    6  A    between atoms: C_9  and  C_14 
REMARK    7  A    between atoms: N_10  and  C_11 
REMARK       I    between atoms: N_10  and  C_15 
REMARK    8  A    between atoms: C_11  and  C_12 
REMARK    9  A    between atoms: C_12  and  C_13 
REMARK   10  A    between atoms: C_13  and  C_14 
REMARK   11  A    between atoms: C_18  and  C_19 
ROOT
HETATM    1  H           1     -36.197  -3.200 -11.986  0.00  0.00     0.163 HD
HETATM    2  N           1     -35.295  -2.954 -11.597  0.00  0.00    -0.345 N 
HETATM    3  C           1     -34.981  -1.641 -11.373  0.00  0.00     0.249 C 
HETATM    4  O           1     -33.905  -1.347 -10.910  0.00  0.00    -0.271 OA
ENDROOT
BRANCH   2   5
HETATM    5  C           1     -34.334  -3.993 -11.280  0.00  0.00     0.185 C 
BRANCH   5   6
HETATM    6  C           1     -33.276  -4.043 -12.355  0.00  0.00     0.196 C 
HETATM    7  O           1     -33.602  -3.953 -13.558  0.00  0.00    -0.646 OA
HETATM    8  O           1     -32.073  -4.174 -12.042  0.00  0.00    -0.646 OA
ENDBRANCH   5   6
BRANCH   5   9
HETATM    9  C           1     -35.045  -5.337 -11.205  0.00  0.00     0.036 C 
BRANCH   9  10
HETATM   10  C           1     -34.149  -6.349 -10.504  0.00  0.00     0.004 C 
BRANCH  10  11
HETATM   11  C           1     -35.009  -7.348  -9.742  0.00  0.00     0.027 C 
BRANCH  11  12
HETATM   12  C           1     -34.143  -8.512  -9.275  0.00  0.00     0.229 C 
BRANCH  12  13
HETATM   13  N           1     -33.488  -9.156 -10.461  0.00  0.00    -0.079 N 
HETATM   14  H           1     -34.220  -9.575 -11.078  0.00  0.00     0.274 HD
HETATM   15  H           1     -32.951  -8.437 -10.996  0.00  0.00     0.274 HD
HETATM   16  H           1     -32.838  -9.907 -10.135  0.00  0.00     0.274 HD
ENDBRANCH  12  13
ENDBRANCH  11  12
ENDBRANCH  10  11
ENDBRANCH   9  10
ENDBRANCH   5   9
ENDBRANCH   2   5
BRANCH   3  17
HETATM   17  C           1     -35.981  -0.560 -11.704  0.00  0.00     0.278 C 
BRANCH  17  18
HETATM   18  C           1     -35.427   0.319 -12.819  0.00  0.00     0.081 C 
BRANCH  18  19
HETATM   19  C           1     -36.076  -0.051 -14.116  0.00  0.00    -0.056 A 
HETATM   20  C           1     -35.294  -0.475 -15.191  0.00  0.00     0.007 A 
HETATM   21  C           1     -35.898  -0.820 -16.400  0.00  0.00     0.001 A 
HETATM   22  C           1     -37.284  -0.741 -16.534  0.00  0.00     0.000 A 
HETATM   23  C           1     -38.066  -0.317 -15.460  0.00  0.00     0.001 A 
HETATM   24  C           1     -37.462   0.028 -14.251  0.00  0.00     0.007 A 
ENDBRANCH  18  19
ENDBRANCH  17  18
BRANCH  17  25
HETATM   25  N           1     -36.232   0.278 -10.486  0.00  0.00    -0.066 N 
HETATM   26  H           1     -35.639   1.137 -10.525  0.00  0.00     0.275 HD
HETATM   27  H           1     -35.993  -0.271  -9.630  0.00  0.00     0.275 HD
HETATM   28  H           1     -37.240   0.553 -10.454  0.00  0.00     0.275 HD
ENDBRANCH  17  25
ENDBRANCH   3  17
TORSDOF 11
ENDMDL
MODEL 4
REMARK VINA RESULT:      -7.1     11.964     14.093
REMARK  11 active torsions:
REMARK  status: ('A' for Active; 'I' for Inactive)
REMARK    1  A    between atoms: N_3  and  C_9 
REMARK    2  A    between atoms: C_7  and  C_15 
REMARK    3  A    between atoms: C_7  and  C_19 
REMARK    4  A    between atoms: C_7  and  N_27 
REMARK    5  A    between atoms: C_8  and  C_11 
REMARK    6  A    between atoms: C_9  and  C_14 
REMARK    7  A    between atoms: N_10  and  C_11 
REMARK       I    between atoms: N_10  and  C_15 
REMARK    8  A    between atoms: C_11  and  C_12 
REMARK    9  A    between atoms: C_12  and  C_13 
REMARK   10  A    between atoms: C_13  and  C_14 
REMARK   11  A    between atoms: C_18  and  C_19 
ROOT
HETATM    1  H           1     -32.378  -3.706 -14.100  0.00  0.00     0.163 HD
HETATM    2  N           1     -33.320  -4.077 -14.091  0.00  0.00    -0.345 N 
HETATM    3  C           1     -33.878  -4.556 -15.246  0.00  0.00     0.249 C 
HETATM    4  O           1     -35.001  -4.998 -15.237  0.00  0.00    -0.271 OA
ENDROOT
BRANCH   2   5
HETATM    5  C           1     -34.080  -4.100 -12.857  0.00  0.00     0.185 C 
BRANCH   5   6
HETATM    6  C           1     -34.543  -2.702 -12.526  0.00  0.00     0.196 C 
HETATM    7  O           1     -35.533  -2.216 -13.113  0.00  0.00    -0.646 OA
HETATM    8  O           1     -33.935  -2.031 -11.665  0.00  0.00    -0.646 OA
ENDBRANCH   5   6
BRANCH   5   9
HETATM    9  C           1     -33.201  -4.623 -11.729  0.00  0.00     0.036 C 
BRANCH   9  10
HETATM   10  C           1     -34.074  -5.252 -10.653  0.00  0.00     0.004 C 
BRANCH  10  11
HETATM   11  C           1     -34.612  -6.587 -11.151  0.00  0.00     0.027 C 
BRANCH  11  12
HETATM   12  C           1     -34.629  -7.589 -10.002  0.00  0.00     0.229 C 
BRANCH  12  13
HETATM   13  N           1     -33.647  -8.687 -10.282  0.00  0.00    -0.079 N 
HETATM   14  H           1     -33.470  -8.744 -11.311  0.00  0.00     0.274 HD
HETATM   15  H           1     -32.750  -8.487  -9.785  0.00  0.00     0.274 HD
HETATM   16  H           1     -34.036  -9.597  -9.947  0.00  0.00     0.274 HD
ENDBRANCH  12  13
ENDBRANCH  11  12
ENDBRANCH  10  11
ENDBRANCH   9  10
ENDBRANCH   5   9
ENDBRANCH   2   5
BRANCH   3  17
HETATM   17  C           1     -33.087  -4.532 -16.532  0.00  0.00     0.278 C 
BRANCH  17  18
HETATM   18  C           1     -31.599  -4.459 -16.211  0.00  0.00     0.081 C 
BRANCH  18  19
HETATM   19  C           1     -30.910  -5.668 -16.764  0.00  0.00    -0.056 A 
HETATM   20  C           1     -31.538  -6.445 -17.737  0.00  0.00     0.007 A 
HETATM   21  C           1     -30.896  -7.572 -18.251  0.00  0.00     0.001 A 
HETATM   22  C           1     -29.626  -7.920 -17.792  0.00  0.00     0.000 A 
HETATM   23  C           1     -28.998  -7.144 -16.818  0.00  0.00     0.001 A 
HETATM   24  C           1     -29.640  -6.018 -16.304  0.00  0.00     0.007 A 
ENDBRANCH  18  19
ENDBRANCH  17  18
BRANCH  17  25
HETATM   25  N           1     -33.483  -3.330 -17.338  0.00  0.00    -0.066 N 
HETATM   26  H           1     -34.226  -3.599 -18.022  0.00  0.00     0.275 HD
HETATM   27  H           1     -32.650  -2.968 -17.854  0.00  0.00     0.275 HD
HETATM   28  H           1     -33.850  -2.588 -16.700  0.00  0.00     0.275 HD
ENDBRANCH  17  25
ENDBRANCH   3  17
TORSDOF 11
ENDMDL
MODEL 5
REMARK VINA RESULT:      -7.0      3.083      8.676
REMARK  11 active torsions:
REMARK  status: ('A' for Active; 'I' for Inactive)
REMARK    1  A    between atoms: N_3  and  C_9 
REMARK    2  A    between atoms: C_7  and  C_15 
REMARK    3  A    between atoms: C_7  and  C_19 
REMARK    4  A    between atoms: C_7  and  N_27 
REMARK    5  A    between atoms: C_8  and  C_11 
REMARK    6  A    between atoms: C_9  and  C_14 
REMARK    7  A    between atoms: N_10  and  C_11 
REMARK       I    between atoms: N_10  and  C_15 
REMARK    8  A    between atoms: C_11  and  C_12 
REMARK    9  A    between atoms: C_12  and  C_13 
REMARK   10  A    between atoms: C_13  and  C_14 
REMARK   11  A    between atoms: C_18  and  C_19 
ROOT
HETATM    1  H           1     -22.283  -6.843  -6.383  0.00  0.00     0.163 HD
HETATM    2  N           1     -21.535  -6.401  -5.862  0.00  0.00    -0.345 N 
HETATM    3  C           1     -21.142  -5.129  -6.176  0.00  0.00     0.249 C 
HETATM    4  O           1     -20.250  -4.601  -5.556  0.00  0.00    -0.271 OA
ENDROOT
BRANCH   2   5
HETATM    5  C           1     -20.879  -7.117  -4.785  0.00  0.00     0.185 C 
BRANCH   5   6
HETATM    6  C           1     -20.351  -8.433  -5.305  0.00  0.00     0.196 C 
HETATM    7  O           1     -19.130  -8.569  -5.535  0.00  0.00    -0.646 OA
HETATM    8  O           1     -21.135  -9.385  -5.505  0.00  0.00    -0.646 OA
ENDBRANCH   5   6
BRANCH   5   9
HETATM    9  C           1     -21.879  -7.379  -3.667  0.00  0.00     0.036 C 
BRANCH   9  10
HETATM   10  C           1     -21.203  -7.163  -2.320  0.00  0.00     0.004 C 
BRANCH  10  11
HETATM   11  C           1     -22.248  -6.772  -1.284  0.00  0.00     0.027 C 
BRANCH  11  12
HETATM   12  C           1     -22.110  -7.667  -0.059  0.00  0.00     0.229 C 
BRANCH  12  13
HETATM   13  N           1     -23.472  -7.991   0.480  0.00  0.00    -0.079 N 
HETATM   14  H           1     -23.665  -7.399   1.320  0.00  0.00     0.274 HD
HETATM   15  H           1     -24.191  -7.801  -0.253  0.00  0.00     0.274 HD
HETATM   16  H           1     -23.509  -9.000   0.751  0.00  0.00     0.274 HD
ENDBRANCH  12  13
ENDBRANCH  11  12
ENDBRANCH  10  11
ENDBRANCH   9  10
ENDBRANCH   5   9
ENDBRANCH   2   5
BRANCH   3  17
HETATM   17  C           1     -21.824  -4.384  -7.298  0.00  0.00     0.278 C 
BRANCH  17  18
HETATM   18  C           1     -21.304  -4.894  -8.636  0.00  0.00     0.081 C 
BRANCH  18  19
HETATM   19  C           1     -22.033  -4.207  -9.749  0.00  0.00    -0.056 A 
HETATM   20  C           1     -23.426  -4.137  -9.732  0.00  0.00     0.007 A 
HETATM   21  C           1     -24.106  -3.498 -10.769  0.00  0.00     0.001 A 
HETATM   22  C           1     -23.392  -2.929 -11.823  0.00  0.00     0.000 A 
HETATM   23  C           1     -21.999  -3.000 -11.842  0.00  0.00     0.001 A 
HETATM   24  C           1     -21.320  -3.639 -10.805  0.00  0.00     0.007 A 
ENDBRANCH  18  19
ENDBRANCH  17  18
BRANCH  17  25
HETATM   25  N           1     -21.531  -2.918  -7.174  0.00  0.00    -0.066 N 
HETATM   26  H           1     -22.101  -2.512  -6.399  0.00  0.00     0.275 HD
HETATM   27  H           1     -21.771  -2.438  -8.071  0.00  0.00     0.275 HD
HETATM   28  H           1     -20.516  -2.782  -6.967  0.00  0.00     0.275 HD
ENDBRANCH  17  25
ENDBRANCH   3  17
TORSDOF 11
ENDMDL
MODEL 6
REMARK VINA RESULT:      -7.0     11.992     13.642
REMARK  11 active torsions:
REMARK  status: ('A' for Active; 'I' for Inactive)
REMARK    1  A    between atoms: N_3  and  C_9 
REMARK    2  A    between atoms: C_7  and  C_15 
REMARK    3  A    between atoms: C_7  and  C_19 
REMARK    4  A    between atoms: C_7  and  N_27 
REMARK    5  A    between atoms: C_8  and  C_11 
REMARK    6  A    between atoms: C_9  and  C_14 
REMARK    7  A    between atoms: N_10  and  C_11 
REMARK       I    between atoms: N_10  and  C_15 
REMARK    8  A    between atoms: C_11  and  C_12 
REMARK    9  A    between atoms: C_12  and  C_13 
REMARK   10  A    between atoms: C_13  and  C_14 
REMARK   11  A    between atoms: C_18  and  C_19 
ROOT
HETATM    1  H           1     -36.066  -2.393 -13.006  0.00  0.00     0.163 HD
HETATM    2  N           1     -35.396  -1.974 -12.373  0.00  0.00    -0.345 N 
HETATM    3  C           1     -34.287  -2.677 -11.988  0.00  0.00     0.249 C 
HETATM    4  O           1     -33.487  -2.180 -11.232  0.00  0.00    -0.271 OA
ENDROOT
BRANCH   2   5
HETATM    5  C           1     -35.612  -0.631 -11.872  0.00  0.00     0.185 C 
BRANCH   5   6
HETATM    6  C           1     -36.596  -0.674 -10.727  0.00  0.00     0.196 C 
HETATM    7  O           1     -37.777  -1.027 -10.931  0.00  0.00    -0.646 OA
HETATM    8  O           1     -36.228  -0.358  -9.576  0.00  0.00    -0.646 OA
ENDBRANCH   5   6
BRANCH   5   9
HETATM    9  C           1     -36.170   0.244 -12.987  0.00  0.00     0.036 C 
BRANCH   9  10
HETATM   10  C           1     -35.025   0.775 -13.838  0.00  0.00     0.004 C 
BRANCH  10  11
HETATM   11  C           1     -35.437   0.771 -15.304  0.00  0.00     0.027 C 
BRANCH  11  12
HETATM   12  C           1     -35.839  -0.640 -15.716  0.00  0.00     0.229 C 
BRANCH  12  13
HETATM   13  N           1     -36.271  -0.638 -17.152  0.00  0.00    -0.079 N 
HETATM   14  H           1     -37.080   0.013 -17.272  0.00  0.00     0.274 HD
HETATM   15  H           1     -35.478  -0.322 -17.754  0.00  0.00     0.274 HD
HETATM   16  H           1     -36.558  -1.603 -17.431  0.00  0.00     0.274 HD
ENDBRANCH  12  13
ENDBRANCH  11  12
ENDBRANCH  10  11
ENDBRANCH   9  10
ENDBRANCH   5   9
ENDBRANCH   2   5
BRANCH   3  17
HETATM   17  C           1     -34.062  -4.076 -12.509  0.00  0.00     0.278 C 
BRANCH  17  18
HETATM   18  C           1     -32.975  -4.756 -11.686  0.00  0.00     0.081 C 
BRANCH  18  19
HETATM   19  C           1     -33.563  -5.915 -10.942  0.00  0.00    -0.056 A 
HETATM   20  C           1     -34.795  -5.780 -10.302  0.00  0.00     0.007 A 
HETATM   21  C           1     -35.343  -6.859  -9.609  0.00  0.00     0.001 A 
HETATM   22  C           1     -34.658  -8.073  -9.556  0.00  0.00     0.000 A 
HETATM   23  C           1     -33.426  -8.208 -10.195  0.00  0.00     0.001 A 
HETATM   24  C           1     -32.879  -7.129 -10.888  0.00  0.00     0.007 A 
ENDBRANCH  18  19
ENDBRANCH  17  18
BRANCH  17  25
HETATM   25  N           1     -33.634  -4.011 -13.945  0.00  0.00    -0.066 N 
HETATM   26  H           1     -34.370  -3.527 -14.507  0.00  0.00     0.275 HD
HETATM   27  H           1     -33.497  -4.980 -14.312  0.00  0.00     0.275 HD
HETATM   28  H           1     -32.737  -3.480 -14.017  0.00  0.00     0.275 HD
ENDBRANCH  17  25
ENDBRANCH   3  17
TORSDOF 11
ENDMDL
MODEL 7
REMARK VINA RESULT:      -6.7      2.211      3.242
REMARK  11 active torsions:
REMARK  status: ('A' for Active; 'I' for Inactive)
REMARK    1  A    between atoms: N_3  and  C_9 
REMARK    2  A    between atoms: C_7  and  C_15 
REMARK    3  A    between atoms: C_7  and  C_19 
REMARK    4  A    between atoms: C_7  and  N_27 
REMARK    5  A    between atoms: C_8  and  C_11 
REMARK    6  A    between atoms: C_9  and  C_14 
REMARK    7  A    between atoms: N_10  and  C_11 
REMARK       I    between atoms: N_10  and  C_15 
REMARK    8  A    between atoms: C_11  and  C_12 
REMARK    9  A    between atoms: C_12  and  C_13 
REMARK   10  A    between atoms: C_13  and  C_14 
REMARK   11  A    between atoms: C_18  and  C_19 
ROOT
HETATM    1  H           1     -22.436  -4.509  -7.178  0.00  0.00     0.163 HD
HETATM    2  N           1     -21.719  -5.136  -7.523  0.00  0.00    -0.345 N 
HETATM    3  C           1     -21.097  -6.002  -6.664  0.00  0.00     0.249 C 
HETATM    4  O           1     -20.242  -6.750  -7.074  0.00  0.00    -0.271 OA
ENDROOT
BRANCH   2   5
HETATM    5  C           1     -21.351  -5.116  -8.925  0.00  0.00     0.185 C 
BRANCH   5   6
HETATM    6  C           1     -20.350  -4.011  -9.165  0.00  0.00     0.196 C 
HETATM    7  O           1     -19.582  -3.653  -8.246  0.00  0.00    -0.646 OA
HETATM    8  O           1     -20.288  -3.457 -10.283  0.00  0.00    -0.646 OA
ENDBRANCH   5   6
BRANCH   5   9
HETATM    9  C           1     -22.591  -4.869  -9.773  0.00  0.00     0.036 C 
BRANCH   9  10
HETATM   10  C           1     -23.647  -4.160  -8.936  0.00  0.00     0.004 C 
BRANCH  10  11
HETATM   11  C           1     -24.480  -3.252  -9.831  0.00  0.00     0.027 C 
BRANCH  11  12
HETATM   12  C           1     -23.832  -3.160 -11.207  0.00  0.00     0.229 C 
BRANCH  12  13
HETATM   13  N           1     -24.897  -3.168 -12.262  0.00  0.00    -0.079 N 
HETATM   14  H           1     -24.823  -4.045 -12.826  0.00  0.00     0.274 HD
HETATM   15  H           1     -25.837  -3.123 -11.810  0.00  0.00     0.274 HD
HETATM   16  H           1     -24.772  -2.341 -12.890  0.00  0.00     0.274 HD
ENDBRANCH  12  13
ENDBRANCH  11  12
ENDBRANCH  10  11
ENDBRANCH   9  10
ENDBRANCH   5   9
ENDBRANCH   2   5
BRANCH   3  17
HETATM   17  C           1     -21.481  -6.022  -5.205  0.00  0.00     0.278 C 
BRANCH  17  18
HETATM   18  C           1     -20.791  -7.192  -4.515  0.00  0.00     0.081 C 
BRANCH  18  19
HETATM   19  C           1     -21.326  -7.337  -3.123  0.00  0.00    -0.056 A 
HETATM   20  C           1     -21.437  -8.603  -2.548  0.00  0.00     0.007 A 
HETATM   21  C           1     -21.936  -8.739  -1.252  0.00  0.00     0.001 A 
HETATM   22  C           1     -22.323  -7.608  -0.533  0.00  0.00     0.000 A 
HETATM   23  C           1     -22.214  -6.343  -1.109  0.00  0.00     0.001 A 
HETATM   24  C           1     -21.715  -6.208  -2.404  0.00  0.00     0.007 A 
ENDBRANCH  18  19
ENDBRANCH  17  18
BRANCH  17  25
HETATM   25  N           1     -22.968  -6.175  -5.081  0.00  0.00    -0.066 N 
HETATM   26  H           1     -23.248  -6.064  -4.081  0.00  0.00     0.275 HD
HETATM   27  H           1     -23.249  -7.124  -5.418  0.00  0.00     0.275 HD
HETATM   28  H           1     -23.442  -5.445  -5.658  0.00  0.00     0.275 HD
ENDBRANCH  17  25
ENDBRANCH   3  17
TORSDOF 11
ENDMDL
MODEL 8
REMARK VINA RESULT:      -6.7      3.192      4.534
REMARK  11 active torsions:
REMARK  status: ('A' for Active; 'I' for Inactive)
REMARK    1  A    between atoms: N_3  and  C_9 
REMARK    2  A    between atoms: C_7  and  C_15 
REMARK    3  A    between atoms: C_7  and  C_19 
REMARK    4  A    between atoms: C_7  and  N_27 
REMARK    5  A    between atoms: C_8  and  C_11 
REMARK    6  A    between atoms: C_9  and  C_14 
REMARK    7  A    between atoms: N_10  and  C_11 
REMARK       I    between atoms: N_10  and  C_15 
REMARK    8  A    between atoms: C_11  and  C_12 
REMARK    9  A    between atoms: C_12  and  C_13 
REMARK   10  A    between atoms: C_13  and  C_14 
REMARK   11  A    between atoms: C_18  and  C_19 
ROOT
HETATM    1  H           1     -22.393  -6.170  -5.416  0.00  0.00     0.163 HD
HETATM    2  N           1     -21.546  -6.472  -5.882  0.00  0.00    -0.345 N 
HETATM    3  C           1     -20.923  -7.626  -5.489  0.00  0.00     0.249 C 
HETATM    4  O           1     -19.914  -7.987  -6.044  0.00  0.00    -0.271 OA
ENDROOT
BRANCH   2   5
HETATM    5  C           1     -20.993  -5.684  -6.965  0.00  0.00     0.185 C 
BRANCH   5   6
HETATM    6  C           1     -19.892  -4.800  -6.431  0.00  0.00     0.196 C 
HETATM    7  O           1     -19.985  -4.309  -5.286  0.00  0.00    -0.646 OA
HETATM    8  O           1     -18.887  -4.560  -7.134  0.00  0.00    -0.646 OA
ENDBRANCH   5   6
BRANCH   5   9
HETATM    9  C           1     -22.088  -4.817  -7.574  0.00  0.00     0.036 C 
BRANCH   9  10
HETATM   10  C           1     -21.766  -4.543  -9.037  0.00  0.00     0.004 C 
BRANCH  10  11
HETATM   11  C           1     -22.872  -3.696  -9.651  0.00  0.00     0.027 C 
BRANCH  11  12
HETATM   12  C           1     -24.161  -4.507  -9.709  0.00  0.00     0.229 C 
BRANCH  12  13
HETATM   13  N           1     -25.338  -3.579  -9.664  0.00  0.00    -0.079 N 
HETATM   14  H           1     -25.175  -2.776 -10.314  0.00  0.00     0.274 HD
HETATM   15  H           1     -26.199  -4.093  -9.955  0.00  0.00     0.274 HD
HETATM   16  H           1     -25.460  -3.217  -8.691  0.00  0.00     0.274 HD
ENDBRANCH  12  13
ENDBRANCH  11  12
ENDBRANCH  10  11
ENDBRANCH   9  10
ENDBRANCH   5   9
ENDBRANCH   2   5
BRANCH   3  17
HETATM   17  C           1     -21.499  -8.447  -4.360  0.00  0.00     0.278 C 
BRANCH  17  18
HETATM   18  C           1     -20.639  -8.271  -3.115  0.00  0.00     0.081 C 
BRANCH  18  19
HETATM   19  C           1     -21.504  -8.357  -1.895  0.00  0.00    -0.056 A 
HETATM   20  C           1     -21.926  -7.190  -1.256  0.00  0.00     0.007 A 
HETATM   21  C           1     -22.731  -7.269  -0.121  0.00  0.00     0.001 A 
HETATM   22  C           1     -23.114  -8.515   0.377  0.00  0.00     0.000 A 
HETATM   23  C           1     -22.691  -9.681  -0.261  0.00  0.00     0.001 A 
HETATM   24  C           1     -21.886  -9.602  -1.397  0.00  0.00     0.007 A 
ENDBRANCH  18  19
ENDBRANCH  17  18
BRANCH  17  25
HETATM   25  N           1     -21.516  -9.894  -4.755  0.00  0.00    -0.066 N 
HETATM   26  H           1     -20.669 -10.370  -4.371  0.00  0.00     0.275 HD
HETATM   27  H           1     -21.517  -9.971  -5.796  0.00  0.00     0.275 HD
HETATM   28  H           1     -22.375 -10.349  -4.370  0.00  0.00     0.275 HD
ENDBRANCH  17  25
ENDBRANCH   3  17
TORSDOF 11
ENDMDL
MODEL 9
REMARK VINA RESULT:      -6.5      4.129      9.008
REMARK  11 active torsions:
REMARK  status: ('A' for Active; 'I' for Inactive)
REMARK    1  A    between atoms: N_3  and  C_9 
REMARK    2  A    between atoms: C_7  and  C_15 
REMARK    3  A    between atoms: C_7  and  C_19 
REMARK    4  A    between atoms: C_7  and  N_27 
REMARK    5  A    between atoms: C_8  and  C_11 
REMARK    6  A    between atoms: C_9  and  C_14 
REMARK    7  A    between atoms: N_10  and  C_11 
REMARK       I    between atoms: N_10  and  C_15 
REMARK    8  A    between atoms: C_11  and  C_12 
REMARK    9  A    between atoms: C_12  and  C_13 
REMARK   10  A    between atoms: C_13  and  C_14 
REMARK   11  A    between atoms: C_18  and  C_19 
ROOT
HETATM    1  H           1     -21.648  -7.709  -3.736  0.00  0.00     0.163 HD
HETATM    2  N           1     -20.816  -7.943  -4.263  0.00  0.00    -0.345 N 
HETATM    3  C           1     -20.583  -7.348  -5.473  0.00  0.00     0.249 C 
HETATM    4  O           1     -19.591  -7.626  -6.103  0.00  0.00    -0.271 OA
ENDROOT
BRANCH   2   5
HETATM    5  C           1     -19.873  -8.911  -3.738  0.00  0.00     0.185 C 
BRANCH   5   6
HETATM    6  C           1     -20.360 -10.306  -4.048  0.00  0.00     0.196 C 
HETATM    7  O           1     -19.539 -11.209  -4.318  0.00  0.00    -0.646 OA
HETATM    8  O           1     -21.583 -10.557  -4.032  0.00  0.00    -0.646 OA
ENDBRANCH   5   6
BRANCH   5   9
HETATM    9  C           1     -19.755  -8.738  -2.230  0.00  0.00     0.036 C 
BRANCH   9  10
HETATM   10  C           1     -20.948  -7.947  -1.713  0.00  0.00     0.004 C 
BRANCH  10  11
HETATM   11  C           1     -21.788  -8.830  -0.801  0.00  0.00     0.027 C 
BRANCH  11  12
HETATM   12  C           1     -22.086  -8.087   0.495  0.00  0.00     0.229 C 
BRANCH  12  13
HETATM   13  N           1     -23.570  -7.956   0.667  0.00  0.00    -0.079 N 
HETATM   14  H           1     -23.806  -6.972   0.930  0.00  0.00     0.274 HD
HETATM   15  H           1     -24.048  -8.201  -0.229  0.00  0.00     0.274 HD
HETATM   16  H           1     -23.892  -8.603   1.423  0.00  0.00     0.274 HD
ENDBRANCH  12  13
ENDBRANCH  11  12
ENDBRANCH  10  11
ENDBRANCH   9  10
ENDBRANCH   5   9
ENDBRANCH   2   5
BRANCH   3  17
HETATM   17  C           1     -21.565  -6.341  -6.020  0.00  0.00     0.278 C 
BRANCH  17  18
HETATM   18  C           1     -20.843  -5.030  -6.307  0.00  0.00     0.081 C 
BRANCH  18  19
HETATM   19  C           1     -21.099  -4.619  -7.724  0.00  0.00    -0.056 A 
HETATM   20  C           1     -22.329  -4.064  -8.078  0.00  0.00     0.007 A 
HETATM   21  C           1     -22.568  -3.681  -9.397  0.00  0.00     0.001 A 
HETATM   22  C           1     -21.576  -3.852 -10.363  0.00  0.00     0.000 A 
HETATM   23  C           1     -20.346  -4.407 -10.010  0.00  0.00     0.001 A 
HETATM   24  C           1     -20.108  -4.791  -8.690  0.00  0.00     0.007 A 
ENDBRANCH  18  19
ENDBRANCH  17  18
BRANCH  17  25
HETATM   25  N           1     -22.649  -6.103  -5.011  0.00  0.00    -0.066 N 
HETATM   26  H           1     -22.230  -5.729  -4.131  0.00  0.00     0.275 HD
HETATM   27  H           1     -23.140  -7.002  -4.809  0.00  0.00     0.275 HD
HETATM   28  H           1     -23.333  -5.410  -5.392  0.00  0.00     0.275 HD
ENDBRANCH  17  25
ENDBRANCH   3  17
TORSDOF 11
ENDMDL
