MODEL 1
REMARK VINA RESULT:      -6.7      0.000      0.000
REMARK  7 active torsions:
REMARK  status: ('A' for Active; 'I' for Inactive)
REMARK    1  A    between atoms: C_1  and  C_7 
REMARK    2  A    between atoms: C_1  and  C_21 
REMARK    3  A    between atoms: C_1  and  N_6 
REMARK    4  A    between atoms: N_3  and  C_10 
REMARK       I    between atoms: N_3  and  C_7 
REMARK    5  A    between atoms: C_10  and  C_16 
REMARK       I    between atoms: N_18  and  C_19 
REMARK    6  A    between atoms: C_19  and  C_20 
REMARK    7  A    between atoms: C_20  and  C_21 
ROOT
HETATM    1  C           1     -34.293  -2.460 -11.753  0.00  0.00     0.275 C 
ENDROOT
BRANCH   1   2
HETATM    2  C           1     -35.245  -1.686 -12.630  0.00  0.00     0.249 C 
HETATM    3  N           1     -34.810  -1.159 -13.816  0.00  0.00    -0.345 N 
HETATM    4  H           1     -33.850  -1.289 -14.105  0.00  0.00     0.163 HD
HETATM    5  O           1     -36.393  -1.530 -12.285  0.00  0.00    -0.271 OA
BRANCH   3   6
HETATM    6  C           1     -35.726  -0.415 -14.659  0.00  0.00     0.181 C 
HETATM    7  C           1     -35.283   1.041 -14.726  0.00  0.00     0.043 C 
BRANCH   6   8
HETATM    8  C           1     -35.725  -1.007 -16.047  0.00  0.00     0.196 C 
HETATM    9  O           1     -36.397  -0.471 -16.955  0.00  0.00    -0.646 OA
HETATM   10  O           1     -35.053  -2.033 -16.289  0.00  0.00    -0.646 OA
ENDBRANCH   6   8
ENDBRANCH   3   6
ENDBRANCH   1   2
BRANCH   1  11
HETATM   11  C           1     -35.045  -3.585 -11.054  0.00  0.00     0.052 C 
BRANCH  11  12
HETATM   12  C           1     -34.051  -4.628 -10.559  0.00  0.00     0.105 C 
BRANCH  12  13
HETATM   13  C           1     -34.396  -5.973 -11.149  0.00  0.00     0.215 C 
HETATM   14  O           1     -34.284  -6.973 -10.480  0.00  0.00    -0.274 OA
HETATM   15  N           1     -34.836  -6.060 -12.442  0.00  0.00    -0.370 N 
HETATM   16  H           1     -34.930  -5.223 -13.003  0.00  0.00     0.159 HD
HETATM   17  H           1     -35.067  -6.963 -12.838  0.00  0.00     0.159 HD
ENDBRANCH  12  13
ENDBRANCH  11  12
ENDBRANCH   1  11
BRANCH   1  18
HETATM   18  N           1     -33.700  -1.542 -10.726  0.00  0.00    -0.066 N 
HETATM   19  H           1     -32.778  -1.188 -11.065  0.00  0.00     0.275 HD
HETATM   20  H           1     -34.345  -0.735 -10.569  0.00  0.00     0.275 HD
HETATM   21  H           1     -33.567  -2.062  -9.830  0.00  0.00     0.275 HD
ENDBRANCH   1  18
TORSDOF 7
ENDMDL
MODEL 2
REMARK VINA RESULT:      -6.6     11.869     14.176
REMARK  7 active torsions:
REMARK  status: ('A' for Active; 'I' for Inactive)
REMARK    1  A    between atoms: C_1  and  C_7 
REMARK    2  A    between atoms: C_1  and  C_21 
REMARK    3  A    between atoms: C_1  and  N_6 
REMARK    4  A    between atoms: N_3  and  C_10 
REMARK       I    between atoms: N_3  and  C_7 
REMARK    5  A    between atoms: C_10  and  C_16 
REMARK       I    between atoms: N_18  and  C_19 
REMARK    6  A    between atoms: C_19  and  C_20 
REMARK    7  A    between atoms: C_20  and  C_21 
ROOT
HETATM    1  C           1     -23.936  -4.356 -10.569  0.00  0.00     0.275 C 
ENDROOT
BRANCH   1   2
HETATM    2  C           1     -22.635  -4.545  -9.828  0.00  0.00     0.249 C 
HETATM    3  N           1     -22.635  -4.679  -8.466  0.00  0.00    -0.345 N 
HETATM    4  H           1     -23.508  -4.653  -7.956  0.00  0.00     0.163 HD
HETATM    5  O           1     -21.592  -4.576 -10.438  0.00  0.00    -0.271 OA
BRANCH   3   6
HETATM    6  C           1     -21.385  -4.860  -7.755  0.00  0.00     0.181 C 
HETATM    7  C           1     -20.953  -3.534  -7.142  0.00  0.00     0.043 C 
BRANCH   6   8
HETATM    8  C           1     -21.573  -5.883  -6.661  0.00  0.00     0.196 C 
HETATM    9  O           1     -20.954  -6.968  -6.707  0.00  0.00    -0.646 OA
HETATM   10  O           1     -22.348  -5.646  -5.709  0.00  0.00    -0.646 OA
ENDBRANCH   6   8
ENDBRANCH   3   6
ENDBRANCH   1   2
BRANCH   1  11
HETATM   11  C           1     -23.928  -3.007 -11.276  0.00  0.00     0.052 C 
BRANCH  11  12
HETATM   12  C           1     -24.477  -3.171 -12.687  0.00  0.00     0.105 C 
BRANCH  12  13
HETATM   13  C           1     -23.341  -3.122 -13.679  0.00  0.00     0.215 C 
HETATM   14  O           1     -23.562  -2.875 -14.841  0.00  0.00    -0.274 OA
HETATM   15  N           1     -22.059  -3.358 -13.261  0.00  0.00    -0.370 N 
HETATM   16  H           1     -21.873  -3.565 -12.288  0.00  0.00     0.159 HD
HETATM   17  H           1     -21.296  -3.325 -13.927  0.00  0.00     0.159 HD
ENDBRANCH  12  13
ENDBRANCH  11  12
ENDBRANCH   1  11
BRANCH   1  18
HETATM   18  N           1     -25.076  -4.404  -9.596  0.00  0.00    -0.066 N 
HETATM   19  H           1     -25.532  -5.343  -9.639  0.00  0.00     0.275 HD
HETATM   20  H           1     -24.716  -4.237  -8.629  0.00  0.00     0.275 HD
HETATM   21  H           1     -25.774  -3.666  -9.841  0.00  0.00     0.275 HD
ENDBRANCH   1  18
TORSDOF 7
ENDMDL
MODEL 3
REMARK VINA RESULT:      -6.4     11.567     13.590
REMARK  7 active torsions:
REMARK  status: ('A' for Active; 'I' for Inactive)
REMARK    1  A    between atoms: C_1  and  C_7 
REMARK    2  A    between atoms: C_1  and  C_21 
REMARK    3  A    between atoms: C_1  and  N_6 
REMARK    4  A    between atoms: N_3  and  C_10 
REMARK       I    between atoms: N_3  and  C_7 
REMARK    5  A    between atoms: C_10  and  C_16 
REMARK       I    between atoms: N_18  and  C_19 
REMARK    6  A    between atoms: C_19  and  C_20 
REMARK    7  A    between atoms: C_20  and  C_21 
ROOT
HETATM    1  C           1     -23.848  -3.787 -12.573  0.00  0.00     0.275 C 
ENDROOT
BRANCH   1   2
HETATM    2  C           1     -23.276  -4.500 -11.372  0.00  0.00     0.249 C 
HETATM    3  N           1     -22.291  -3.909 -10.629  0.00  0.00    -0.345 N 
HETATM    4  H           1     -21.945  -2.993 -10.885  0.00  0.00     0.163 HD
HETATM    5  O           1     -23.690  -5.593 -11.067  0.00  0.00    -0.271 OA
BRANCH   3   6
HETATM    6  C           1     -21.742  -4.594  -9.476  0.00  0.00     0.181 C 
HETATM    7  C           1     -20.226  -4.447  -9.472  0.00  0.00     0.043 C 
BRANCH   6   8
HETATM    8  C           1     -22.310  -3.990  -8.215  0.00  0.00     0.196 C 
HETATM    9  O           1     -21.577  -3.316  -7.460  0.00  0.00    -0.646 OA
HETATM   10  O           1     -23.514  -4.163  -7.926  0.00  0.00    -0.646 OA
ENDBRANCH   6   8
ENDBRANCH   3   6
ENDBRANCH   1   2
BRANCH   1  11
HETATM   11  C           1     -22.844  -2.760 -13.081  0.00  0.00     0.052 C 
BRANCH  11  12
HETATM   12  C           1     -22.906  -2.699 -14.602  0.00  0.00     0.105 C 
BRANCH  12  13
HETATM   13  C           1     -23.610  -1.434 -15.027  0.00  0.00     0.215 C 
HETATM   14  O           1     -24.699  -1.167 -14.575  0.00  0.00    -0.274 OA
HETATM   15  N           1     -23.016  -0.590 -15.926  0.00  0.00    -0.370 N 
HETATM   16  H           1     -22.105  -0.813 -16.304  0.00  0.00     0.159 HD
HETATM   17  H           1     -23.489   0.260 -16.210  0.00  0.00     0.159 HD
ENDBRANCH  12  13
ENDBRANCH  11  12
ENDBRANCH   1  11
BRANCH   1  18
HETATM   18  N           1     -25.119  -3.092 -12.184  0.00  0.00    -0.066 N 
HETATM   19  H           1     -25.827  -3.801 -11.889  0.00  0.00     0.275 HD
HETATM   20  H           1     -24.929  -2.439 -11.391  0.00  0.00     0.275 HD
HETATM   21  H           1     -25.485  -2.554 -13.001  0.00  0.00     0.275 HD
ENDBRANCH   1  18
TORSDOF 7
ENDMDL
MODEL 4
REMARK VINA RESULT:      -6.3     11.815     12.768
REMARK  7 active torsions:
REMARK  status: ('A' for Active; 'I' for Inactive)
REMARK    1  A    between atoms: C_1  and  C_7 
REMARK    2  A    between atoms: C_1  and  C_21 
REMARK    3  A    between atoms: C_1  and  N_6 
REMARK    4  A    between atoms: N_3  and  C_10 
REMARK       I    between atoms: N_3  and  C_7 
REMARK    5  A    between atoms: C_10  and  C_16 
REMARK       I    between atoms: N_18  and  C_19 
REMARK    6  A    between atoms: C_19  and  C_20 
REMARK    7  A    between atoms: C_20  and  C_21 
ROOT
HETATM    1  C           1     -21.132  -4.410 -10.806  0.00  0.00     0.275 C 
ENDROOT
BRANCH   1   2
HETATM    2  C           1     -22.344  -4.330 -11.700  0.00  0.00     0.249 C 
HETATM    3  N           1     -22.384  -3.420 -12.721  0.00  0.00    -0.345 N 
HETATM    4  H           1     -21.599  -2.801 -12.878  0.00  0.00     0.163 HD
HETATM    5  O           1     -23.281  -5.070 -11.514  0.00  0.00    -0.271 OA
BRANCH   3   6
HETATM    6  C           1     -23.549  -3.344 -13.580  0.00  0.00     0.181 C 
HETATM    7  C           1     -24.735  -2.819 -12.781  0.00  0.00     0.043 C 
BRANCH   6   8
HETATM    8  C           1     -23.264  -2.409 -14.731  0.00  0.00     0.196 C 
HETATM    9  O           1     -22.378  -2.697 -15.564  0.00  0.00    -0.646 OA
HETATM   10  O           1     -23.915  -1.349 -14.852  0.00  0.00    -0.646 OA
ENDBRANCH   6   8
ENDBRANCH   3   6
ENDBRANCH   1   2
BRANCH   1  11
HETATM   11  C           1     -21.443  -3.759  -9.465  0.00  0.00     0.052 C 
BRANCH  11  12
HETATM   12  C           1     -21.692  -4.840  -8.421  0.00  0.00     0.105 C 
BRANCH  12  13
HETATM   13  C           1     -22.948  -4.516  -7.650  0.00  0.00     0.215 C 
HETATM   14  O           1     -23.034  -4.815  -6.482  0.00  0.00    -0.274 OA
HETATM   15  N           1     -23.990  -3.886  -8.275  0.00  0.00    -0.370 N 
HETATM   16  H           1     -23.918  -3.636  -9.253  0.00  0.00     0.159 HD
HETATM   17  H           1     -24.834  -3.669  -7.757  0.00  0.00     0.159 HD
ENDBRANCH  12  13
ENDBRANCH  11  12
ENDBRANCH   1  11
BRANCH   1  18
HETATM   18  N           1     -19.984  -3.695 -11.455  0.00  0.00    -0.066 N 
HETATM   19  H           1     -19.521  -3.072 -10.756  0.00  0.00     0.275 HD
HETATM   20  H           1     -19.294  -4.395 -11.809  0.00  0.00     0.275 HD
HETATM   21  H           1     -20.339  -3.120 -12.252  0.00  0.00     0.275 HD
ENDBRANCH   1  18
TORSDOF 7
ENDMDL
MODEL 5
REMARK VINA RESULT:      -6.1     12.691     15.212
REMARK  7 active torsions:
REMARK  status: ('A' for Active; 'I' for Inactive)
REMARK    1  A    between atoms: C_1  and  C_7 
REMARK    2  A    between atoms: C_1  and  C_21 
REMARK    3  A    between atoms: C_1  and  N_6 
REMARK    4  A    between atoms: N_3  and  C_10 
REMARK       I    between atoms: N_3  and  C_7 
REMARK    5  A    between atoms: C_10  and  C_16 
REMARK       I    between atoms: N_18  and  C_19 
REMARK    6  A    between atoms: C_19  and  C_20 
REMARK    7  A    between atoms: C_20  and  C_21 
ROOT
HETATM    1  C           1     -22.579  -4.469  -9.358  0.00  0.00     0.275 C 
ENDROOT
BRANCH   1   2
HETATM    2  C           1     -21.375  -4.849  -8.532  0.00  0.00     0.249 C 
HETATM    3  N           1     -21.542  -5.380  -7.282  0.00  0.00    -0.345 N 
HETATM    4  H           1     -22.473  -5.520  -6.912  0.00  0.00     0.163 HD
HETATM    5  O           1     -20.263  -4.683  -8.975  0.00  0.00    -0.271 OA
BRANCH   3   6
HETATM    6  C           1     -20.384  -5.745  -6.489  0.00  0.00     0.181 C 
HETATM    7  C           1     -20.123  -4.665  -5.447  0.00  0.00     0.043 C 
BRANCH   6   8
HETATM    8  C           1     -20.644  -7.061  -5.796  0.00  0.00     0.196 C 
HETATM    9  O           1     -19.754  -7.938  -5.767  0.00  0.00    -0.646 OA
HETATM   10  O           1     -21.750  -7.274  -5.252  0.00  0.00    -0.646 OA
ENDBRANCH   6   8
ENDBRANCH   3   6
ENDBRANCH   1   2
BRANCH   1  11
HETATM   11  C           1     -22.138  -3.617 -10.541  0.00  0.00     0.052 C 
BRANCH  11  12
HETATM   12  C           1     -22.889  -4.057 -11.791  0.00  0.00     0.105 C 
BRANCH  12  13
HETATM   13  C           1     -24.052  -3.126 -12.033  0.00  0.00     0.215 C 
HETATM   14  O           1     -24.994  -3.128 -11.276  0.00  0.00    -0.274 OA
HETATM   15  N           1     -24.039  -2.282 -13.110  0.00  0.00    -0.370 N 
HETATM   16  H           1     -23.251  -2.281 -13.744  0.00  0.00     0.159 HD
HETATM   17  H           1     -24.820  -1.657 -13.272  0.00  0.00     0.159 HD
ENDBRANCH  12  13
ENDBRANCH  11  12
ENDBRANCH   1  11
BRANCH   1  18
HETATM   18  N           1     -23.540  -3.689  -8.511  0.00  0.00    -0.066 N 
HETATM   19  H           1     -24.349  -4.296  -8.251  0.00  0.00     0.275 HD
HETATM   20  H           1     -23.055  -3.365  -7.644  0.00  0.00     0.275 HD
HETATM   21  H           1     -23.884  -2.861  -9.048  0.00  0.00     0.275 HD
ENDBRANCH   1  18
TORSDOF 7
ENDMDL
MODEL 6
REMARK VINA RESULT:      -5.9     12.478     14.627
REMARK  7 active torsions:
REMARK  status: ('A' for Active; 'I' for Inactive)
REMARK    1  A    between atoms: C_1  and  C_7 
REMARK    2  A    between atoms: C_1  and  C_21 
REMARK    3  A    between atoms: C_1  and  N_6 
REMARK    4  A    between atoms: N_3  and  C_10 
REMARK       I    between atoms: N_3  and  C_7 
REMARK    5  A    between atoms: C_10  and  C_16 
REMARK       I    between atoms: N_18  and  C_19 
REMARK    6  A    between atoms: C_19  and  C_20 
REMARK    7  A    between atoms: C_20  and  C_21 
ROOT
HETATM    1  C           1     -21.832  -3.364 -11.198  0.00  0.00     0.275 C 
ENDROOT
BRANCH   1   2
HETATM    2  C           1     -21.951  -4.286 -10.009  0.00  0.00     0.249 C 
HETATM    3  N           1     -20.916  -4.397  -9.121  0.00  0.00    -0.345 N 
HETATM    4  H           1     -20.070  -3.860  -9.261  0.00  0.00     0.163 HD
HETATM    5  O           1     -22.962  -4.926  -9.842  0.00  0.00    -0.271 OA
BRANCH   3   6
HETATM    6  C           1     -21.031  -5.282  -7.979  0.00  0.00     0.181 C 
HETATM    7  C           1     -19.641  -5.709  -7.526  0.00  0.00     0.043 C 
BRANCH   6   8
HETATM    8  C           1     -21.729  -4.561  -6.852  0.00  0.00     0.196 C 
HETATM    9  O           1     -21.505  -3.348  -6.653  0.00  0.00    -0.646 OA
HETATM   10  O           1     -22.532  -5.177  -6.118  0.00  0.00    -0.646 OA
ENDBRANCH   6   8
ENDBRANCH   3   6
ENDBRANCH   1   2
BRANCH   1  11
HETATM   11  C           1     -22.768  -3.834 -12.303  0.00  0.00     0.052 C 
BRANCH  11  12
HETATM   12  C           1     -23.678  -2.686 -12.720  0.00  0.00     0.105 C 
BRANCH  12  13
HETATM   13  C           1     -23.418  -2.337 -14.165  0.00  0.00     0.215 C 
HETATM   14  O           1     -24.093  -1.499 -14.715  0.00  0.00    -0.274 OA
HETATM   15  N           1     -22.418  -2.971 -14.852  0.00  0.00    -0.370 N 
HETATM   16  H           1     -21.853  -3.672 -14.392  0.00  0.00     0.159 HD
HETATM   17  H           1     -22.244  -2.736 -15.822  0.00  0.00     0.159 HD
ENDBRANCH  12  13
ENDBRANCH  11  12
ENDBRANCH   1  11
BRANCH   1  18
HETATM   18  N           1     -20.418  -3.377 -11.700  0.00  0.00    -0.066 N 
HETATM   19  H           1     -20.387  -3.826 -12.642  0.00  0.00     0.275 HD
HETATM   20  H           1     -20.066  -2.396 -11.770  0.00  0.00     0.275 HD
HETATM   21  H           1     -19.819  -3.917 -11.036  0.00  0.00     0.275 HD
ENDBRANCH   1  18
TORSDOF 7
ENDMDL
MODEL 7
REMARK VINA RESULT:      -5.9      3.286      5.330
REMARK  7 active torsions:
REMARK  status: ('A' for Active; 'I' for Inactive)
REMARK    1  A    between atoms: C_1  and  C_7 
REMARK    2  A    between atoms: C_1  and  C_21 
REMARK    3  A    between atoms: C_1  and  N_6 
REMARK    4  A    between atoms: N_3  and  C_10 
REMARK       I    between atoms: N_3  and  C_7 
REMARK    5  A    between atoms: C_10  and  C_16 
REMARK       I    between atoms: N_18  and  C_19 
REMARK    6  A    between atoms: C_19  and  C_20 
REMARK    7  A    between atoms: C_20  and  C_21 
ROOT
HETATM    1  C           1     -36.593  -0.183 -11.398  0.00  0.00     0.275 C 
ENDROOT
BRANCH   1   2
HETATM    2  C           1     -35.398  -0.930 -11.937  0.00  0.00     0.249 C 
HETATM    3  N           1     -35.162  -2.219 -11.545  0.00  0.00    -0.345 N 
HETATM    4  H           1     -35.790  -2.673 -10.894  0.00  0.00     0.163 HD
HETATM    5  O           1     -34.648  -0.388 -12.714  0.00  0.00    -0.271 OA
BRANCH   3   6
HETATM    6  C           1     -34.013  -2.936 -12.062  0.00  0.00     0.181 C 
HETATM    7  C           1     -33.363  -3.732 -10.938  0.00  0.00     0.043 C 
BRANCH   6   8
HETATM    8  C           1     -34.459  -3.879 -13.154  0.00  0.00     0.196 C 
HETATM    9  O           1     -34.263  -3.584 -14.352  0.00  0.00    -0.646 OA
HETATM   10  O           1     -35.024  -4.954 -12.859  0.00  0.00    -0.646 OA
ENDBRANCH   6   8
ENDBRANCH   3   6
ENDBRANCH   1   2
BRANCH   1  11
HETATM   11  C           1     -37.113  -0.885 -10.151  0.00  0.00     0.052 C 
BRANCH  11  12
HETATM   12  C           1     -37.880   0.111  -9.290  0.00  0.00     0.105 C 
BRANCH  12  13
HETATM   13  C           1     -36.913   0.873  -8.418  0.00  0.00     0.215 C 
HETATM   14  O           1     -35.875   0.358  -8.074  0.00  0.00    -0.274 OA
HETATM   15  N           1     -37.213   2.146  -8.015  0.00  0.00    -0.370 N 
HETATM   16  H           1     -38.082   2.577  -8.303  0.00  0.00     0.159 HD
HETATM   17  H           1     -36.564   2.657  -7.429  0.00  0.00     0.159 HD
ENDBRANCH  12  13
ENDBRANCH  11  12
ENDBRANCH   1  11
BRANCH   1  18
HETATM   18  N           1     -37.672  -0.149 -12.439  0.00  0.00    -0.066 N 
HETATM   19  H           1     -37.314   0.324 -13.298  0.00  0.00     0.275 HD
HETATM   20  H           1     -37.958  -1.127 -12.675  0.00  0.00     0.275 HD
HETATM   21  H           1     -38.496   0.376 -12.069  0.00  0.00     0.275 HD
ENDBRANCH   1  18
TORSDOF 7
ENDMDL
MODEL 8
REMARK VINA RESULT:      -5.8     12.973     14.472
REMARK  7 active torsions:
REMARK  status: ('A' for Active; 'I' for Inactive)
REMARK    1  A    between atoms: C_1  and  C_7 
REMARK    2  A    between atoms: C_1  and  C_21 
REMARK    3  A    between atoms: C_1  and  N_6 
REMARK    4  A    between atoms: N_3  and  C_10 
REMARK       I    between atoms: N_3  and  C_7 
REMARK    5  A    between atoms: C_10  and  C_16 
REMARK       I    between atoms: N_18  and  C_19 
REMARK    6  A    between atoms: C_19  and  C_20 
REMARK    7  A    between atoms: C_20  and  C_21 
ROOT
HETATM    1  C           1     -21.268  -5.884  -6.997  0.00  0.00     0.275 C 
ENDROOT
BRANCH   1   2
HETATM    2  C           1     -21.706  -4.667  -7.773  0.00  0.00     0.249 C 
HETATM    3  N           1     -22.194  -4.803  -9.044  0.00  0.00    -0.345 N 
HETATM    4  H           1     -22.262  -5.721  -9.464  0.00  0.00     0.163 HD
HETATM    5  O           1     -21.625  -3.570  -7.272  0.00  0.00    -0.271 OA
BRANCH   3   6
HETATM    6  C           1     -22.614  -3.633  -9.790  0.00  0.00     0.181 C 
HETATM    7  C           1     -21.722  -3.463 -11.012  0.00  0.00     0.043 C 
BRANCH   6   8
HETATM    8  C           1     -24.047  -3.807 -10.232  0.00  0.00     0.196 C 
HETATM    9  O           1     -24.598  -2.925 -10.924  0.00  0.00    -0.646 OA
HETATM   10  O           1     -24.682  -4.833  -9.905  0.00  0.00    -0.646 OA
ENDBRANCH   6   8
ENDBRANCH   3   6
ENDBRANCH   1   2
BRANCH   1  11
HETATM   11  C           1     -21.295  -5.575  -5.506  0.00  0.00     0.052 C 
BRANCH  11  12
HETATM   12  C           1     -22.189  -6.584  -4.795  0.00  0.00     0.105 C 
BRANCH  12  13
HETATM   13  C           1     -21.829  -6.631  -3.331  0.00  0.00     0.215 C 
HETATM   14  O           1     -22.384  -5.898  -2.548  0.00  0.00    -0.274 OA
HETATM   15  N           1     -20.871  -7.505  -2.891  0.00  0.00    -0.370 N 
HETATM   16  H           1     -20.406  -8.119  -3.546  0.00  0.00     0.159 HD
HETATM   17  H           1     -20.629  -7.537  -1.907  0.00  0.00     0.159 HD
ENDBRANCH  12  13
ENDBRANCH  11  12
ENDBRANCH   1  11
BRANCH   1  18
HETATM   18  N           1     -19.875  -6.262  -7.404  0.00  0.00    -0.066 N 
HETATM   19  H           1     -19.391  -6.728  -6.604  0.00  0.00     0.275 HD
HETATM   20  H           1     -19.915  -6.919  -8.216  0.00  0.00     0.275 HD
HETATM   21  H           1     -19.347  -5.402  -7.676  0.00  0.00     0.275 HD
ENDBRANCH   1  18
TORSDOF 7
ENDMDL
MODEL 9
REMARK VINA RESULT:      -5.8     12.229     14.280
REMARK  7 active torsions:
REMARK  status: ('A' for Active; 'I' for Inactive)
REMARK    1  A    between atoms: C_1  and  C_7 
REMARK    2  A    between atoms: C_1  and  C_21 
REMARK    3  A    between atoms: C_1  and  N_6 
REMARK    4  A    between atoms: N_3  and  C_10 
REMARK       I    between atoms: N_3  and  C_7 
REMARK    5  A    between atoms: C_10  and  C_16 
REMARK       I    between atoms: N_18  and  C_19 
REMARK    6  A    between atoms: C_19  and  C_20 
REMARK    7  A    between atoms: C_20  and  C_21 
ROOT
HETATM    1  C           1     -24.206  -4.684  -9.886  0.00  0.00     0.275 C 
ENDROOT
BRANCH   1   2
HETATM    2  C           1     -23.296  -4.543  -8.690  0.00  0.00     0.249 C 
HETATM    3  N           1     -21.997  -4.964  -8.765  0.00  0.00    -0.345 N 
HETATM    4  H           1     -21.645  -5.369  -9.622  0.00  0.00     0.163 HD
HETATM    5  O           1     -23.717  -4.058  -7.666  0.00  0.00    -0.271 OA
BRANCH   3   6
HETATM    6  C           1     -21.123  -4.828  -7.616  0.00  0.00     0.181 C 
HETATM    7  C           1     -20.949  -6.186  -6.948  0.00  0.00     0.043 C 
BRANCH   6   8
HETATM    8  C           1     -19.778  -4.312  -8.066  0.00  0.00     0.196 C 
HETATM    9  O           1     -18.772  -4.477  -7.343  0.00  0.00    -0.646 OA
HETATM   10  O           1     -19.670  -3.720  -9.161  0.00  0.00    -0.646 OA
ENDBRANCH   6   8
ENDBRANCH   3   6
ENDBRANCH   1   2
BRANCH   1  11
HETATM   11  C           1     -23.372  -4.720 -11.159  0.00  0.00     0.052 C 
BRANCH  11  12
HETATM   12  C           1     -22.997  -3.299 -11.561  0.00  0.00     0.105 C 
BRANCH  12  13
HETATM   13  C           1     -23.473  -3.031 -12.967  0.00  0.00     0.215 C 
HETATM   14  O           1     -24.638  -2.782 -13.173  0.00  0.00    -0.274 OA
HETATM   15  N           1     -22.587  -3.072 -14.009  0.00  0.00    -0.370 N 
HETATM   16  H           1     -21.612  -3.281 -13.837  0.00  0.00     0.159 HD
HETATM   17  H           1     -22.907  -2.892 -14.953  0.00  0.00     0.159 HD
ENDBRANCH  12  13
ENDBRANCH  11  12
ENDBRANCH   1  11
BRANCH   1  18
HETATM   18  N           1     -25.147  -3.517  -9.938  0.00  0.00    -0.066 N 
HETATM   19  H           1     -25.598  -3.390  -9.004  0.00  0.00     0.275 HD
HETATM   20  H           1     -24.616  -2.653 -10.188  0.00  0.00     0.275 HD
HETATM   21  H           1     -25.883  -3.696 -10.658  0.00  0.00     0.275 HD
ENDBRANCH   1  18
TORSDOF 7
ENDMDL
