MODEL 1
REMARK VINA RESULT:      -5.5      0.000      0.000
REMARK  8 active torsions:
REMARK  status: ('A' for Active; 'I' for Inactive)
REMARK    1  A    between atoms: Se_2  and  C_14 
REMARK    2  A    between atoms: N_3  and  C_7 
REMARK       I    between atoms: N_3  and  C_5 
REMARK    3  A    between atoms: N_4  and  C_19 
REMARK    4  A    between atoms: C_5  and  C_19 
REMARK    5  A    between atoms: C_7  and  C_14 
REMARK    6  A    between atoms: C_7  and  C_10 
REMARK    7  A    between atoms: O_16  and  C_18 
REMARK    8  A    between atoms: C_18  and  C_19 
ROOT
HETATM    1  H           1     -35.268  -2.035 -13.760  0.00  0.00     0.163 HD
HETATM    2  N           1     -34.832  -1.696 -12.912  0.00  0.00    -0.345 N 
HETATM    3  C           1     -34.089  -2.545 -12.136  0.00  0.00     0.251 C 
HETATM    4  O           1     -33.569  -2.140 -11.125  0.00  0.00    -0.271 OA
ENDROOT
BRANCH   3   5
HETATM    5  C           1     -33.921  -3.988 -12.546  0.00  0.00     0.302 C 
BRANCH   5   6
HETATM    6  N           1     -32.518  -4.429 -12.255  0.00  0.00    -0.064 N 
HETATM    7  H           1     -32.285  -4.216 -11.258  0.00  0.00     0.275 HD
HETATM    8  H           1     -32.435  -5.458 -12.418  0.00  0.00     0.275 HD
HETATM    9  H           1     -31.855  -3.922 -12.884  0.00  0.00     0.275 HD
ENDBRANCH   5   6
BRANCH   5  10
HETATM   10  C           1     -34.898  -4.856 -11.764  0.00  0.00     0.153 C 
HETATM   11  C           1     -34.130  -5.701 -10.756  0.00  0.00     0.042 C 
BRANCH  10  12
HETATM   12  O           1     -35.813  -4.037 -11.087  0.00  0.00    -0.393 OA
HETATM   13  H           1     -36.558  -3.931 -11.655  0.00  0.00     0.210 HD
ENDBRANCH  10  12
ENDBRANCH   5  10
ENDBRANCH   3   5
BRANCH   2  14
HETATM   14  C           1     -34.995  -0.309 -12.518  0.00  0.00     0.185 C 
BRANCH  14  15
HETATM   15  C           1     -35.050   0.567 -13.763  0.00  0.00     0.039 C 
BRANCH  15  16
HETATM   16 Se           1     -35.615  -0.505 -15.289  0.00  0.00     0.000 Se
HETATM   17  H           1     -34.309  -0.444 -15.963  0.00  0.00     0.000 HD
ENDBRANCH  15  16
ENDBRANCH  14  15
BRANCH  14  18
HETATM   18  C           1     -36.276  -0.156 -11.737  0.00  0.00     0.196 C 
HETATM   19  O           1     -36.279   0.477 -10.659  0.00  0.00    -0.646 OA
HETATM   20  O           1     -37.335  -0.662 -12.167  0.00  0.00    -0.646 OA
ENDBRANCH  14  18
ENDBRANCH   2  14
TORSDOF 8
ENDMDL
MODEL 2
REMARK VINA RESULT:      -5.1     12.504     13.865
REMARK  8 active torsions:
REMARK  status: ('A' for Active; 'I' for Inactive)
REMARK    1  A    between atoms: Se_2  and  C_14 
REMARK    2  A    between atoms: N_3  and  C_7 
REMARK       I    between atoms: N_3  and  C_5 
REMARK    3  A    between atoms: N_4  and  C_19 
REMARK    4  A    between atoms: C_5  and  C_19 
REMARK    5  A    between atoms: C_7  and  C_14 
REMARK    6  A    between atoms: C_7  and  C_10 
REMARK    7  A    between atoms: O_16  and  C_18 
REMARK    8  A    between atoms: C_18  and  C_19 
ROOT
HETATM    1  H           1     -23.169  -5.430  -7.808  0.00  0.00     0.163 HD
HETATM    2  N           1     -22.582  -4.620  -7.962  0.00  0.00    -0.345 N 
HETATM    3  C           1     -21.602  -4.304  -7.060  0.00  0.00     0.251 C 
HETATM    4  O           1     -20.901  -3.338  -7.245  0.00  0.00    -0.271 OA
ENDROOT
BRANCH   3   5
HETATM    5  C           1     -21.397  -5.163  -5.836  0.00  0.00     0.302 C 
BRANCH   5   6
HETATM    6  N           1     -22.670  -5.888  -5.517  0.00  0.00    -0.064 N 
HETATM    7  H           1     -22.639  -6.230  -4.530  0.00  0.00     0.275 HD
HETATM    8  H           1     -23.480  -5.238  -5.633  0.00  0.00     0.275 HD
HETATM    9  H           1     -22.780  -6.701  -6.164  0.00  0.00     0.275 HD
ENDBRANCH   5   6
BRANCH   5  10
HETATM   10  C           1     -20.291  -6.175  -6.105  0.00  0.00     0.153 C 
HETATM   11  C           1     -20.705  -7.535  -5.558  0.00  0.00     0.042 C 
BRANCH  10  12
HETATM   12  O           1     -20.072  -6.273  -7.486  0.00  0.00    -0.393 OA
HETATM   13  H           1     -19.908  -7.182  -7.673  0.00  0.00     0.210 HD
ENDBRANCH  10  12
ENDBRANCH   5  10
ENDBRANCH   3   5
BRANCH   2  14
HETATM   14  C           1     -22.779  -3.796  -9.138  0.00  0.00     0.185 C 
BRANCH  14  15
HETATM   15  C           1     -21.926  -4.330 -10.281  0.00  0.00     0.039 C 
BRANCH  15  16
HETATM   16 Se           1     -22.066  -3.133 -11.812  0.00  0.00     0.000 Se
HETATM   17  H           1     -23.437  -2.700 -11.496  0.00  0.00     0.000 HD
ENDBRANCH  15  16
ENDBRANCH  14  15
BRANCH  14  18
HETATM   18  C           1     -24.234  -3.831  -9.537  0.00  0.00     0.196 C 
HETATM   19  O           1     -24.744  -4.895  -9.950  0.00  0.00    -0.646 OA
HETATM   20  O           1     -24.930  -2.796  -9.454  0.00  0.00    -0.646 OA
ENDBRANCH  14  18
ENDBRANCH   2  14
TORSDOF 8
ENDMDL
MODEL 3
REMARK VINA RESULT:      -5.0     10.571     12.046
REMARK  8 active torsions:
REMARK  status: ('A' for Active; 'I' for Inactive)
REMARK    1  A    between atoms: Se_2  and  C_14 
REMARK    2  A    between atoms: N_3  and  C_7 
REMARK       I    between atoms: N_3  and  C_5 
REMARK    3  A    between atoms: N_4  and  C_19 
REMARK    4  A    between atoms: C_5  and  C_19 
REMARK    5  A    between atoms: C_7  and  C_14 
REMARK    6  A    between atoms: C_7  and  C_10 
REMARK    7  A    between atoms: O_16  and  C_18 
REMARK    8  A    between atoms: C_18  and  C_19 
ROOT
HETATM    1  H           1     -27.190  -8.073 -18.795  0.00  0.00     0.163 HD
HETATM    2  N           1     -27.392  -7.192 -19.249  0.00  0.00    -0.345 N 
HETATM    3  C           1     -28.284  -6.320 -18.686  0.00  0.00     0.251 C 
HETATM    4  O           1     -28.525  -5.268 -19.229  0.00  0.00    -0.271 OA
ENDROOT
BRANCH   3   5
HETATM    5  C           1     -28.968  -6.673 -17.388  0.00  0.00     0.302 C 
BRANCH   5   6
HETATM    6  N           1     -29.259  -8.144 -17.362  0.00  0.00    -0.064 N 
HETATM    7  H           1     -28.370  -8.673 -17.210  0.00  0.00     0.275 HD
HETATM    8  H           1     -29.924  -8.354 -16.583  0.00  0.00     0.275 HD
HETATM    9  H           1     -29.685  -8.431 -18.271  0.00  0.00     0.275 HD
ENDBRANCH   5   6
BRANCH   5  10
HETATM   10  C           1     -28.057  -6.316 -16.221  0.00  0.00     0.153 C 
HETATM   11  C           1     -27.786  -7.562 -15.388  0.00  0.00     0.042 C 
BRANCH  10  12
HETATM   12  O           1     -26.844  -5.810 -16.712  0.00  0.00    -0.393 OA
HETATM   13  H           1     -26.787  -4.913 -16.426  0.00  0.00     0.210 HD
ENDBRANCH  10  12
ENDBRANCH   5  10
ENDBRANCH   3   5
BRANCH   2  14
HETATM   14  C           1     -26.735  -6.853 -20.497  0.00  0.00     0.185 C 
BRANCH  14  15
HETATM   15  C           1     -25.396  -6.190 -20.201  0.00  0.00     0.039 C 
BRANCH  15  16
HETATM   16 Se           1     -24.479  -7.177 -18.793  0.00  0.00     0.000 Se
HETATM   17  H           1     -25.453  -6.822 -17.749  0.00  0.00     0.000 HD
ENDBRANCH  15  16
ENDBRANCH  14  15
BRANCH  14  18
HETATM   18  C           1     -26.508  -8.109 -21.302  0.00  0.00     0.196 C 
HETATM   19  O           1     -25.386  -8.334 -21.806  0.00  0.00    -0.646 OA
HETATM   20  O           1     -27.441  -8.925 -21.464  0.00  0.00    -0.646 OA
ENDBRANCH  14  18
ENDBRANCH   2  14
TORSDOF 8
ENDMDL
MODEL 4
REMARK VINA RESULT:      -5.0      1.682      2.058
REMARK  8 active torsions:
REMARK  status: ('A' for Active; 'I' for Inactive)
REMARK    1  A    between atoms: Se_2  and  C_14 
REMARK    2  A    between atoms: N_3  and  C_7 
REMARK       I    between atoms: N_3  and  C_5 
REMARK    3  A    between atoms: N_4  and  C_19 
REMARK    4  A    between atoms: C_5  and  C_19 
REMARK    5  A    between atoms: C_7  and  C_14 
REMARK    6  A    between atoms: C_7  and  C_10 
REMARK    7  A    between atoms: O_16  and  C_18 
REMARK    8  A    between atoms: C_18  and  C_19 
ROOT
HETATM    1  H           1     -34.927  -1.804 -14.220  0.00  0.00     0.163 HD
HETATM    2  N           1     -35.199  -1.070 -13.577  0.00  0.00    -0.345 N 
HETATM    3  C           1     -34.800  -1.124 -12.269  0.00  0.00     0.251 C 
HETATM    4  O           1     -35.123  -0.248 -11.503  0.00  0.00    -0.271 OA
ENDROOT
BRANCH   3   5
HETATM    5  C           1     -33.956  -2.278 -11.784  0.00  0.00     0.302 C 
BRANCH   5   6
HETATM    6  N           1     -33.251  -1.884 -10.520  0.00  0.00    -0.064 N 
HETATM    7  H           1     -33.819  -1.168 -10.013  0.00  0.00     0.275 HD
HETATM    8  H           1     -33.130  -2.726  -9.913  0.00  0.00     0.275 HD
HETATM    9  H           1     -32.314  -1.485 -10.754  0.00  0.00     0.275 HD
ENDBRANCH   5   6
BRANCH   5  10
HETATM   10  C           1     -34.849  -3.481 -11.512  0.00  0.00     0.153 C 
HETATM   11  C           1     -34.147  -4.426 -10.546  0.00  0.00     0.042 C 
BRANCH  10  12
HETATM   12  O           1     -36.058  -3.049 -10.948  0.00  0.00    -0.393 OA
HETATM   13  H           1     -36.712  -3.687 -11.179  0.00  0.00     0.210 HD
ENDBRANCH  10  12
ENDBRANCH   5  10
ENDBRANCH   3   5
BRANCH   2  14
HETATM   14  C           1     -36.009   0.038 -14.044  0.00  0.00     0.185 C 
BRANCH  14  15
HETATM   15  C           1     -35.686   0.323 -15.505  0.00  0.00     0.039 C 
BRANCH  15  16
HETATM   16 Se           1     -35.308  -1.353 -16.426  0.00  0.00     0.000 Se
HETATM   17  H           1     -33.895  -1.030 -16.679  0.00  0.00     0.000 HD
ENDBRANCH  15  16
ENDBRANCH  14  15
BRANCH  14  18
HETATM   18  C           1     -37.470  -0.318 -13.911  0.00  0.00     0.196 C 
HETATM   19  O           1     -38.075  -0.087 -12.841  0.00  0.00    -0.646 OA
HETATM   20  O           1     -38.075  -0.843 -14.870  0.00  0.00    -0.646 OA
ENDBRANCH  14  18
ENDBRANCH   2  14
TORSDOF 8
ENDMDL
MODEL 5
REMARK VINA RESULT:      -4.9     10.028     11.472
REMARK  8 active torsions:
REMARK  status: ('A' for Active; 'I' for Inactive)
REMARK    1  A    between atoms: Se_2  and  C_14 
REMARK    2  A    between atoms: N_3  and  C_7 
REMARK       I    between atoms: N_3  and  C_5 
REMARK    3  A    between atoms: N_4  and  C_19 
REMARK    4  A    between atoms: C_5  and  C_19 
REMARK    5  A    between atoms: C_7  and  C_14 
REMARK    6  A    between atoms: C_7  and  C_10 
REMARK    7  A    between atoms: O_16  and  C_18 
REMARK    8  A    between atoms: C_18  and  C_19 
ROOT
HETATM    1  H           1     -26.271  -7.070 -17.057  0.00  0.00     0.163 HD
HETATM    2  N           1     -26.981  -6.670 -17.657  0.00  0.00    -0.345 N 
HETATM    3  C           1     -26.682  -6.356 -18.956  0.00  0.00     0.251 C 
HETATM    4  O           1     -27.530  -5.879 -19.672  0.00  0.00    -0.271 OA
ENDROOT
BRANCH   3   5
HETATM    5  C           1     -25.294  -6.607 -19.493  0.00  0.00     0.302 C 
BRANCH   5   6
HETATM    6  N           1     -24.520  -7.432 -18.508  0.00  0.00    -0.064 N 
HETATM    7  H           1     -25.111  -7.616 -17.666  0.00  0.00     0.275 HD
HETATM    8  H           1     -24.251  -8.340 -18.949  0.00  0.00     0.275 HD
HETATM    9  H           1     -23.658  -6.914 -18.222  0.00  0.00     0.275 HD
ENDBRANCH   5   6
BRANCH   5  10
HETATM   10  C           1     -25.389  -7.356 -20.816  0.00  0.00     0.153 C 
HETATM   11  C           1     -24.084  -8.097 -21.074  0.00  0.00     0.042 C 
BRANCH  10  12
HETATM   12  O           1     -26.445  -8.276 -20.758  0.00  0.00    -0.393 OA
HETATM   13  H           1     -26.736  -8.303 -19.862  0.00  0.00     0.210 HD
ENDBRANCH  10  12
ENDBRANCH   5  10
ENDBRANCH   3   5
BRANCH   2  14
HETATM   14  C           1     -28.314  -6.429 -17.141  0.00  0.00     0.185 C 
BRANCH  14  15
HETATM   15  C           1     -29.261  -7.503 -17.660  0.00  0.00     0.039 C 
BRANCH  15  16
HETATM   16 Se           1     -31.097  -6.861 -17.547  0.00  0.00     0.000 Se
HETATM   17  H           1     -30.804  -5.562 -18.173  0.00  0.00     0.000 HD
ENDBRANCH  15  16
ENDBRANCH  14  15
BRANCH  14  18
HETATM   18  C           1     -28.283  -6.470 -15.633  0.00  0.00     0.196 C 
HETATM   19  O           1     -27.811  -7.467 -15.045  0.00  0.00    -0.646 OA
HETATM   20  O           1     -28.729  -5.508 -14.972  0.00  0.00    -0.646 OA
ENDBRANCH  14  18
ENDBRANCH   2  14
TORSDOF 8
ENDMDL
MODEL 6
REMARK VINA RESULT:      -4.7      2.848      5.198
REMARK  8 active torsions:
REMARK  status: ('A' for Active; 'I' for Inactive)
REMARK    1  A    between atoms: Se_2  and  C_14 
REMARK    2  A    between atoms: N_3  and  C_7 
REMARK       I    between atoms: N_3  and  C_5 
REMARK    3  A    between atoms: N_4  and  C_19 
REMARK    4  A    between atoms: C_5  and  C_19 
REMARK    5  A    between atoms: C_7  and  C_14 
REMARK    6  A    between atoms: C_7  and  C_10 
REMARK    7  A    between atoms: O_16  and  C_18 
REMARK    8  A    between atoms: C_18  and  C_19 
ROOT
HETATM    1  H           1     -36.165  -3.375 -12.454  0.00  0.00     0.163 HD
HETATM    2  N           1     -35.309  -3.140 -11.967  0.00  0.00    -0.345 N 
HETATM    3  C           1     -35.031  -1.833 -11.666  0.00  0.00     0.251 C 
HETATM    4  O           1     -34.011  -1.553 -11.084  0.00  0.00    -0.271 OA
ENDROOT
BRANCH   3   5
HETATM    5  C           1     -35.998  -0.745 -12.062  0.00  0.00     0.302 C 
BRANCH   5   6
HETATM    6  N           1     -35.803   0.445 -11.170  0.00  0.00    -0.064 N 
HETATM    7  H           1     -35.219   0.172 -10.347  0.00  0.00     0.275 HD
HETATM    8  H           1     -35.320   1.203 -11.702  0.00  0.00     0.275 HD
HETATM    9  H           1     -36.733   0.789 -10.840  0.00  0.00     0.275 HD
ENDBRANCH   5   6
BRANCH   5  10
HETATM   10  C           1     -35.744  -0.341 -13.508  0.00  0.00     0.153 C 
HETATM   11  C           1     -34.839   0.884 -13.542  0.00  0.00     0.042 C 
BRANCH  10  12
HETATM   12  O           1     -35.123  -1.399 -14.188  0.00  0.00    -0.393 OA
HETATM   13  H           1     -35.754  -2.097 -14.242  0.00  0.00     0.210 HD
ENDBRANCH  10  12
ENDBRANCH   5  10
ENDBRANCH   3   5
BRANCH   2  14
HETATM   14  C           1     -34.381  -4.186 -11.587  0.00  0.00     0.185 C 
BRANCH  14  15
HETATM   15  C           1     -35.089  -5.534 -11.632  0.00  0.00     0.039 C 
BRANCH  15  16
HETATM   16 Se           1     -34.390  -6.683 -10.221  0.00  0.00     0.000 Se
HETATM   17  H           1     -35.339  -6.205  -9.202  0.00  0.00     0.000 HD
ENDBRANCH  15  16
ENDBRANCH  14  15
BRANCH  14  18
HETATM   18  C           1     -33.216  -4.197 -12.547  0.00  0.00     0.196 C 
HETATM   19  O           1     -33.402  -3.938 -13.756  0.00  0.00    -0.646 OA
HETATM   20  O           1     -32.068  -4.462 -12.134  0.00  0.00    -0.646 OA
ENDBRANCH  14  18
ENDBRANCH   2  14
TORSDOF 8
ENDMDL
MODEL 7
REMARK VINA RESULT:      -4.5     10.433     12.003
REMARK  8 active torsions:
REMARK  status: ('A' for Active; 'I' for Inactive)
REMARK    1  A    between atoms: Se_2  and  C_14 
REMARK    2  A    between atoms: N_3  and  C_7 
REMARK       I    between atoms: N_3  and  C_5 
REMARK    3  A    between atoms: N_4  and  C_19 
REMARK    4  A    between atoms: C_5  and  C_19 
REMARK    5  A    between atoms: C_7  and  C_14 
REMARK    6  A    between atoms: C_7  and  C_10 
REMARK    7  A    between atoms: O_16  and  C_18 
REMARK    8  A    between atoms: C_18  and  C_19 
ROOT
HETATM    1  H           1     -25.526  -7.213 -18.235  0.00  0.00     0.163 HD
HETATM    2  N           1     -26.352  -6.645 -18.092  0.00  0.00    -0.345 N 
HETATM    3  C           1     -27.093  -6.232 -19.166  0.00  0.00     0.251 C 
HETATM    4  O           1     -28.079  -5.556 -18.994  0.00  0.00    -0.271 OA
ENDROOT
BRANCH   3   5
HETATM    5  C           1     -26.679  -6.621 -20.564  0.00  0.00     0.302 C 
BRANCH   5   6
HETATM    6  N           1     -25.338  -6.023 -20.872  0.00  0.00    -0.064 N 
HETATM    7  H           1     -25.469  -5.110 -21.363  0.00  0.00     0.275 HD
HETATM    8  H           1     -24.814  -5.866 -19.982  0.00  0.00     0.275 HD
HETATM    9  H           1     -24.798  -6.675 -21.484  0.00  0.00     0.275 HD
ENDBRANCH   5   6
BRANCH   5  10
HETATM   10  C           1     -26.591  -8.139 -20.663  0.00  0.00     0.153 C 
HETATM   11  C           1     -27.937  -8.696 -21.109  0.00  0.00     0.042 C 
BRANCH  10  12
HETATM   12  O           1     -25.607  -8.490 -21.598  0.00  0.00    -0.393 OA
HETATM   13  H           1     -24.804  -8.085 -21.316  0.00  0.00     0.210 HD
ENDBRANCH  10  12
ENDBRANCH   5  10
ENDBRANCH   3   5
BRANCH   2  14
HETATM   14  C           1     -26.749  -6.271 -16.748  0.00  0.00     0.185 C 
BRANCH  14  15
HETATM   15  C           1     -27.915  -7.145 -16.303  0.00  0.00     0.039 C 
BRANCH  15  16
HETATM   16 Se           1     -29.204  -6.059 -15.324  0.00  0.00     0.000 Se
HETATM   17  H           1     -28.706  -4.781 -15.855  0.00  0.00     0.000 HD
ENDBRANCH  15  16
ENDBRANCH  14  15
BRANCH  14  18
HETATM   18  C           1     -25.585  -6.466 -15.808  0.00  0.00     0.196 C 
HETATM   19  O           1     -25.184  -7.620 -15.542  0.00  0.00    -0.646 OA
HETATM   20  O           1     -25.023  -5.475 -15.296  0.00  0.00    -0.646 OA
ENDBRANCH  14  18
ENDBRANCH   2  14
TORSDOF 8
ENDMDL
MODEL 8
REMARK VINA RESULT:      -4.3     14.580     16.357
REMARK  8 active torsions:
REMARK  status: ('A' for Active; 'I' for Inactive)
REMARK    1  A    between atoms: Se_2  and  C_14 
REMARK    2  A    between atoms: N_3  and  C_7 
REMARK       I    between atoms: N_3  and  C_5 
REMARK    3  A    between atoms: N_4  and  C_19 
REMARK    4  A    between atoms: C_5  and  C_19 
REMARK    5  A    between atoms: C_7  and  C_14 
REMARK    6  A    between atoms: C_7  and  C_10 
REMARK    7  A    between atoms: O_16  and  C_18 
REMARK    8  A    between atoms: C_18  and  C_19 
ROOT
HETATM    1  H           1     -20.812  -4.903  -4.371  0.00  0.00     0.163 HD
HETATM    2  N           1     -20.993  -5.719  -4.941  0.00  0.00    -0.345 N 
HETATM    3  C           1     -20.926  -5.629  -6.306  0.00  0.00     0.251 C 
HETATM    4  O           1     -21.141  -6.604  -6.986  0.00  0.00    -0.271 OA
ENDROOT
BRANCH   3   5
HETATM    5  C           1     -20.583  -4.313  -6.960  0.00  0.00     0.302 C 
BRANCH   5   6
HETATM    6  N           1     -19.511  -4.530  -7.986  0.00  0.00    -0.064 N 
HETATM    7  H           1     -19.931  -4.486  -8.942  0.00  0.00     0.275 HD
HETATM    8  H           1     -18.783  -3.786  -7.892  0.00  0.00     0.275 HD
HETATM    9  H           1     -19.073  -5.467  -7.840  0.00  0.00     0.275 HD
ENDBRANCH   5   6
BRANCH   5  10
HETATM   10  C           1     -21.824  -3.743  -7.634  0.00  0.00     0.153 C 
HETATM   11  C           1     -21.763  -4.026  -9.130  0.00  0.00     0.042 C 
BRANCH  10  12
HETATM   12  O           1     -22.969  -4.343  -7.092  0.00  0.00    -0.393 OA
HETATM   13  H           1     -23.593  -3.653  -6.939  0.00  0.00     0.210 HD
ENDBRANCH  10  12
ENDBRANCH   5  10
ENDBRANCH   3   5
BRANCH   2  14
HETATM   14  C           1     -21.322  -6.983  -4.312  0.00  0.00     0.185 C 
BRANCH  14  15
HETATM   15  C           1     -20.142  -7.938  -4.444  0.00  0.00     0.039 C 
BRANCH  15  16
HETATM   16 Se           1     -20.783  -9.691  -5.005  0.00  0.00     0.000 Se
HETATM   17  H           1     -22.036  -9.607  -4.237  0.00  0.00     0.000 HD
ENDBRANCH  15  16
ENDBRANCH  14  15
BRANCH  14  18
HETATM   18  C           1     -21.624  -6.754  -2.852  0.00  0.00     0.196 C 
HETATM   19  O           1     -22.491  -5.918  -2.517  0.00  0.00    -0.646 OA
HETATM   20  O           1     -21.007  -7.399  -1.977  0.00  0.00    -0.646 OA
ENDBRANCH  14  18
ENDBRANCH   2  14
TORSDOF 8
ENDMDL
MODEL 9
REMARK VINA RESULT:      -4.2      2.626      4.936
REMARK  8 active torsions:
REMARK  status: ('A' for Active; 'I' for Inactive)
REMARK    1  A    between atoms: Se_2  and  C_14 
REMARK    2  A    between atoms: N_3  and  C_7 
REMARK       I    between atoms: N_3  and  C_5 
REMARK    3  A    between atoms: N_4  and  C_19 
REMARK    4  A    between atoms: C_5  and  C_19 
REMARK    5  A    between atoms: C_7  and  C_14 
REMARK    6  A    between atoms: C_7  and  C_10 
REMARK    7  A    between atoms: O_16  and  C_18 
REMARK    8  A    between atoms: C_18  and  C_19 
ROOT
HETATM    1  H           1     -35.439  -2.113 -13.857  0.00  0.00     0.163 HD
HETATM    2  N           1     -34.876  -2.268 -13.030  0.00  0.00    -0.345 N 
HETATM    3  C           1     -34.674  -1.248 -12.139  0.00  0.00     0.251 C 
HETATM    4  O           1     -34.003  -1.433 -11.153  0.00  0.00    -0.271 OA
ENDROOT
BRANCH   3   5
HETATM    5  C           1     -35.290   0.107 -12.390  0.00  0.00     0.302 C 
BRANCH   5   6
HETATM    6  N           1     -35.089   0.487 -13.827  0.00  0.00    -0.064 N 
HETATM    7  H           1     -35.646  -0.152 -14.438  0.00  0.00     0.275 HD
HETATM    8  H           1     -35.407   1.472 -13.974  0.00  0.00     0.275 HD
HETATM    9  H           1     -34.076   0.408 -14.071  0.00  0.00     0.275 HD
ENDBRANCH   5   6
BRANCH   5  10
HETATM   10  C           1     -36.781   0.051 -12.084  0.00  0.00     0.153 C 
HETATM   11  C           1     -37.567   0.054 -13.389  0.00  0.00     0.042 C 
BRANCH  10  12
HETATM   12  O           1     -37.068  -1.120 -11.368  0.00  0.00    -0.393 OA
HETATM   13  H           1     -37.960  -1.351 -11.568  0.00  0.00     0.210 HD
ENDBRANCH  10  12
ENDBRANCH   5  10
ENDBRANCH   3   5
BRANCH   2  14
HETATM   14  C           1     -34.285  -3.570 -12.789  0.00  0.00     0.185 C 
BRANCH  14  15
HETATM   15  C           1     -35.072  -4.291 -11.703  0.00  0.00     0.039 C 
BRANCH  15  16
HETATM   16 Se           1     -33.950  -5.663 -10.891  0.00  0.00     0.000 Se
HETATM   17  H           1     -33.882  -4.996  -9.581  0.00  0.00     0.000 HD
ENDBRANCH  15  16
ENDBRANCH  14  15
BRANCH  14  18
HETATM   18  C           1     -34.322  -4.380 -14.061  0.00  0.00     0.196 C 
HETATM   19  O           1     -35.075  -5.375 -14.147  0.00  0.00    -0.646 OA
HETATM   20  O           1     -33.601  -4.058 -15.030  0.00  0.00    -0.646 OA
ENDBRANCH  14  18
ENDBRANCH   2  14
TORSDOF 8
ENDMDL
