MODEL 1
REMARK VINA RESULT:      -5.4      0.000      0.000
REMARK  6 active torsions:
REMARK  status: ('A' for Active; 'I' for Inactive)
REMARK    1  A    between atoms: C_2  and  C_3 
REMARK    2  A    between atoms: C_2  and  N_6 
REMARK       I    between atoms: N_6  and  C_7 
REMARK    3  A    between atoms: C_7  and  C_8 
REMARK    4  A    between atoms: C_8  and  C_9 
REMARK    5  A    between atoms: C_8  and  N_11 
REMARK    6  A    between atoms: C_9  and  Se_10 
ROOT
HETATM    1  N           1     -22.335  -3.356 -12.751  0.00  0.00    -0.345 N 
HETATM    2  C           1     -22.247  -4.262 -11.729  0.00  0.00     0.249 C 
HETATM    3  O           1     -23.156  -5.030 -11.521  0.00  0.00    -0.271 OA
HETATM    4  H           1     -21.573  -2.713 -12.924  0.00  0.00     0.163 HD
ENDROOT
BRANCH   2   5
HETATM    5  C           1     -21.013  -4.301 -10.859  0.00  0.00     0.274 C 
BRANCH   5   6
HETATM    6  C           1     -21.410  -4.085  -9.405  0.00  0.00     0.045 C 
BRANCH   6   7
HETATM    7 Se           1     -19.954  -4.658  -8.242  0.00  0.00     0.000 Se
HETATM    8  H           1     -20.682  -4.369  -6.995  0.00  0.00     0.000 HD
ENDBRANCH   6   7
ENDBRANCH   5   6
BRANCH   5   9
HETATM    9  N           1     -20.068  -3.217 -11.286  0.00  0.00    -0.067 N 
HETATM   10  H           1     -20.270  -2.346 -10.745  0.00  0.00     0.275 HD
HETATM   11  H           1     -19.085  -3.521 -11.100  0.00  0.00     0.275 HD
HETATM   12  H           1     -20.190  -3.031 -12.306  0.00  0.00     0.275 HD
ENDBRANCH   5   9
ENDBRANCH   2   5
BRANCH   1  13
HETATM   13  C           1     -23.520  -3.319 -13.586  0.00  0.00     0.181 C 
HETATM   14  C           1     -24.711  -2.858 -12.756  0.00  0.00     0.043 C 
BRANCH  13  15
HETATM   15  C           1     -23.299  -2.357 -14.728  0.00  0.00     0.196 C 
HETATM   16  O           1     -24.014  -1.336 -14.832  0.00  0.00    -0.646 OA
HETATM   17  O           1     -22.402  -2.581 -15.569  0.00  0.00    -0.646 OA
ENDBRANCH  13  15
ENDBRANCH   1  13
TORSDOF 6
ENDMDL
MODEL 2
REMARK VINA RESULT:      -5.3      3.680      6.099
REMARK  6 active torsions:
REMARK  status: ('A' for Active; 'I' for Inactive)
REMARK    1  A    between atoms: C_2  and  C_3 
REMARK    2  A    between atoms: C_2  and  N_6 
REMARK       I    between atoms: N_6  and  C_7 
REMARK    3  A    between atoms: C_7  and  C_8 
REMARK    4  A    between atoms: C_8  and  C_9 
REMARK    5  A    between atoms: C_8  and  N_11 
REMARK    6  A    between atoms: C_9  and  Se_10 
ROOT
HETATM    1  N           1     -21.140  -4.250  -9.067  0.00  0.00    -0.345 N 
HETATM    2  C           1     -20.893  -4.153 -10.409  0.00  0.00     0.249 C 
HETATM    3  O           1     -19.995  -4.791 -10.906  0.00  0.00    -0.271 OA
HETATM    4  H           1     -21.892  -3.715  -8.650  0.00  0.00     0.163 HD
ENDROOT
BRANCH   2   5
HETATM    5  C           1     -21.741  -3.248 -11.269  0.00  0.00     0.274 C 
BRANCH   5   6
HETATM    6  C           1     -23.201  -3.375 -10.855  0.00  0.00     0.045 C 
BRANCH   6   7
HETATM    7 Se           1     -24.344  -3.106 -12.411  0.00  0.00     0.000 Se
HETATM    8  H           1     -23.336  -2.341 -13.163  0.00  0.00     0.000 HD
ENDBRANCH   6   7
ENDBRANCH   5   6
BRANCH   5   9
HETATM    9  N           1     -21.593  -3.645 -12.708  0.00  0.00    -0.067 N 
HETATM   10  H           1     -22.125  -2.978 -13.310  0.00  0.00     0.275 HD
HETATM   11  H           1     -20.582  -3.622 -12.972  0.00  0.00     0.275 HD
HETATM   12  H           1     -21.968  -4.611 -12.842  0.00  0.00     0.275 HD
ENDBRANCH   5   9
ENDBRANCH   2   5
BRANCH   1  13
HETATM   13  C           1     -20.325  -5.119  -8.240  0.00  0.00     0.181 C 
HETATM   14  C           1     -19.203  -4.309  -7.605  0.00  0.00     0.043 C 
BRANCH  13  15
HETATM   15  C           1     -21.181  -5.730  -7.157  0.00  0.00     0.196 C 
HETATM   16  O           1     -20.950  -6.893  -6.760  0.00  0.00    -0.646 OA
HETATM   17  O           1     -22.119  -5.073  -6.657  0.00  0.00    -0.646 OA
ENDBRANCH  13  15
ENDBRANCH   1  13
TORSDOF 6
ENDMDL
MODEL 3
REMARK VINA RESULT:      -5.3      3.855      4.808
REMARK  6 active torsions:
REMARK  status: ('A' for Active; 'I' for Inactive)
REMARK    1  A    between atoms: C_2  and  C_3 
REMARK    2  A    between atoms: C_2  and  N_6 
REMARK       I    between atoms: N_6  and  C_7 
REMARK    3  A    between atoms: C_7  and  C_8 
REMARK    4  A    between atoms: C_8  and  C_9 
REMARK    5  A    between atoms: C_8  and  N_11 
REMARK    6  A    between atoms: C_9  and  Se_10 
ROOT
HETATM    1  N           1     -22.306  -4.713  -8.673  0.00  0.00    -0.345 N 
HETATM    2  C           1     -21.618  -4.505  -7.508  0.00  0.00     0.249 C 
HETATM    3  O           1     -21.431  -3.381  -7.108  0.00  0.00    -0.271 OA
HETATM    4  H           1     -22.462  -5.656  -9.007  0.00  0.00     0.163 HD
ENDROOT
BRANCH   2   5
HETATM    5  C           1     -21.092  -5.682  -6.721  0.00  0.00     0.274 C 
BRANCH   5   6
HETATM    6  C           1     -20.660  -5.215  -5.338  0.00  0.00     0.045 C 
BRANCH   6   7
HETATM    7 Se           1     -21.461  -6.366  -3.984  0.00  0.00     0.000 Se
HETATM    8  H           1     -20.465  -6.039  -2.951  0.00  0.00     0.000 HD
ENDBRANCH   6   7
ENDBRANCH   5   6
BRANCH   5   9
HETATM    9  N           1     -19.917  -6.276  -7.439  0.00  0.00    -0.067 N 
HETATM   10  H           1     -20.222  -7.127  -7.963  0.00  0.00     0.275 HD
HETATM   11  H           1     -19.529  -5.575  -8.110  0.00  0.00     0.275 HD
HETATM   12  H           1     -19.182  -6.539  -6.745  0.00  0.00     0.275 HD
ENDBRANCH   5   9
ENDBRANCH   2   5
BRANCH   1  13
HETATM   13  C           1     -22.811  -3.583  -9.428  0.00  0.00     0.181 C 
HETATM   14  C           1     -22.081  -3.498 -10.762  0.00  0.00     0.043 C 
BRANCH  13  15
HETATM   15  C           1     -24.289  -3.763  -9.673  0.00  0.00     0.196 C 
HETATM   16  O           1     -25.063  -2.787  -9.565  0.00  0.00    -0.646 OA
HETATM   17  O           1     -24.739  -4.887  -9.983  0.00  0.00    -0.646 OA
ENDBRANCH  13  15
ENDBRANCH   1  13
TORSDOF 6
ENDMDL
MODEL 4
REMARK VINA RESULT:      -5.2      3.058      3.859
REMARK  6 active torsions:
REMARK  status: ('A' for Active; 'I' for Inactive)
REMARK    1  A    between atoms: C_2  and  C_3 
REMARK    2  A    between atoms: C_2  and  N_6 
REMARK       I    between atoms: N_6  and  C_7 
REMARK    3  A    between atoms: C_7  and  C_8 
REMARK    4  A    between atoms: C_8  and  C_9 
REMARK    5  A    between atoms: C_8  and  N_11 
REMARK    6  A    between atoms: C_9  and  Se_10 
ROOT
HETATM    1  N           1     -23.051  -3.896  -9.372  0.00  0.00    -0.345 N 
HETATM    2  C           1     -21.955  -3.972  -8.557  0.00  0.00     0.249 C 
HETATM    3  O           1     -20.859  -3.701  -8.989  0.00  0.00    -0.271 OA
HETATM    4  H           1     -23.968  -4.123  -9.009  0.00  0.00     0.163 HD
ENDROOT
BRANCH   2   5
HETATM    5  C           1     -22.113  -4.394  -7.116  0.00  0.00     0.274 C 
BRANCH   5   6
HETATM    6  C           1     -21.383  -5.711  -6.889  0.00  0.00     0.045 C 
BRANCH   6   7
HETATM    7 Se           1     -21.871  -6.433  -5.146  0.00  0.00     0.000 Se
HETATM    8  H           1     -22.310  -7.733  -5.678  0.00  0.00     0.000 HD
ENDBRANCH   6   7
ENDBRANCH   5   6
BRANCH   5   9
HETATM    9  N           1     -23.569  -4.569  -6.804  0.00  0.00    -0.067 N 
HETATM   10  H           1     -23.753  -4.274  -5.819  0.00  0.00     0.275 HD
HETATM   11  H           1     -24.137  -3.980  -7.455  0.00  0.00     0.275 HD
HETATM   12  H           1     -23.832  -5.573  -6.923  0.00  0.00     0.275 HD
ENDBRANCH   5   9
ENDBRANCH   2   5
BRANCH   1  13
HETATM   13  C           1     -22.899  -3.491 -10.756  0.00  0.00     0.181 C 
HETATM   14  C           1     -22.251  -4.620 -11.547  0.00  0.00     0.043 C 
BRANCH  13  15
HETATM   15  C           1     -24.255  -3.180 -11.340  0.00  0.00     0.196 C 
HETATM   16  O           1     -25.269  -3.200 -10.610  0.00  0.00    -0.646 OA
HETATM   17  O           1     -24.364  -2.903 -12.554  0.00  0.00    -0.646 OA
ENDBRANCH  13  15
ENDBRANCH   1  13
TORSDOF 6
ENDMDL
MODEL 5
REMARK VINA RESULT:      -4.7      3.611      5.116
REMARK  6 active torsions:
REMARK  status: ('A' for Active; 'I' for Inactive)
REMARK    1  A    between atoms: C_2  and  C_3 
REMARK    2  A    between atoms: C_2  and  N_6 
REMARK       I    between atoms: N_6  and  C_7 
REMARK    3  A    between atoms: C_7  and  C_8 
REMARK    4  A    between atoms: C_8  and  C_9 
REMARK    5  A    between atoms: C_8  and  N_11 
REMARK    6  A    between atoms: C_9  and  Se_10 
ROOT
HETATM    1  N           1     -21.455  -4.970  -8.420  0.00  0.00    -0.345 N 
HETATM    2  C           1     -21.319  -4.395  -7.186  0.00  0.00     0.249 C 
HETATM    3  O           1     -21.387  -3.195  -7.068  0.00  0.00    -0.271 OA
HETATM    4  H           1     -21.397  -5.976  -8.519  0.00  0.00     0.163 HD
ENDROOT
BRANCH   2   5
HETATM    5  C           1     -21.084  -5.260  -5.972  0.00  0.00     0.274 C 
BRANCH   5   6
HETATM    6  C           1     -20.129  -6.391  -6.330  0.00  0.00     0.045 C 
BRANCH   6   7
HETATM    7 Se           1     -20.312  -7.833  -5.032  0.00  0.00     0.000 Se
HETATM    8  H           1     -20.991  -8.745  -5.968  0.00  0.00     0.000 HD
ENDBRANCH   6   7
ENDBRANCH   5   6
BRANCH   5   9
HETATM    9  N           1     -22.389  -5.836  -5.509  0.00  0.00    -0.067 N 
HETATM   10  H           1     -23.084  -5.065  -5.380  0.00  0.00     0.275 HD
HETATM   11  H           1     -22.746  -6.508  -6.225  0.00  0.00     0.275 HD
HETATM   12  H           1     -22.248  -6.334  -4.602  0.00  0.00     0.275 HD
ENDBRANCH   5   9
ENDBRANCH   2   5
BRANCH   1  13
HETATM   13  C           1     -21.680  -4.139  -9.587  0.00  0.00     0.181 C 
HETATM   14  C           1     -20.565  -4.370 -10.598  0.00  0.00     0.043 C 
BRANCH  13  15
HETATM   15  C           1     -23.008  -4.498 -10.211  0.00  0.00     0.196 C 
HETATM   16  O           1     -23.067  -4.798 -11.422  0.00  0.00    -0.646 OA
HETATM   17  O           1     -24.046  -4.494  -9.515  0.00  0.00    -0.646 OA
ENDBRANCH  13  15
ENDBRANCH   1  13
TORSDOF 6
ENDMDL
MODEL 6
REMARK VINA RESULT:      -4.6      8.008      9.748
REMARK  6 active torsions:
REMARK  status: ('A' for Active; 'I' for Inactive)
REMARK    1  A    between atoms: C_2  and  C_3 
REMARK    2  A    between atoms: C_2  and  N_6 
REMARK       I    between atoms: N_6  and  C_7 
REMARK    3  A    between atoms: C_7  and  C_8 
REMARK    4  A    between atoms: C_8  and  C_9 
REMARK    5  A    between atoms: C_8  and  N_11 
REMARK    6  A    between atoms: C_9  and  Se_10 
ROOT
HETATM    1  N           1     -20.891  -6.737  -3.861  0.00  0.00    -0.345 N 
HETATM    2  C           1     -21.689  -6.664  -2.752  0.00  0.00     0.249 C 
HETATM    3  O           1     -22.650  -5.931  -2.747  0.00  0.00    -0.271 OA
HETATM    4  H           1     -20.086  -7.351  -3.865  0.00  0.00     0.163 HD
ENDROOT
BRANCH   2   5
HETATM    5  C           1     -21.370  -7.497  -1.535  0.00  0.00     0.274 C 
BRANCH   5   6
HETATM    6  C           1     -21.492  -8.975  -1.885  0.00  0.00     0.045 C 
BRANCH   6   7
HETATM    7 Se           1     -22.661  -9.853  -0.597  0.00  0.00     0.000 Se
HETATM    8  H           1     -22.939 -11.010  -1.464  0.00  0.00     0.000 HD
ENDBRANCH   6   7
ENDBRANCH   5   6
BRANCH   5   9
HETATM    9  N           1     -22.332  -7.163  -0.435  0.00  0.00    -0.067 N 
HETATM   10  H           1     -22.918  -8.001  -0.217  0.00  0.00     0.275 HD
HETATM   11  H           1     -21.800  -6.880   0.418  0.00  0.00     0.275 HD
HETATM   12  H           1     -22.949  -6.376  -0.739  0.00  0.00     0.275 HD
ENDBRANCH   5   9
ENDBRANCH   2   5
BRANCH   1  13
HETATM   13  C           1     -21.198  -5.936  -5.030  0.00  0.00     0.181 C 
HETATM   14  C           1     -20.185  -4.804  -5.150  0.00  0.00     0.043 C 
BRANCH  13  15
HETATM   15  C           1     -21.133  -6.803  -6.264  0.00  0.00     0.196 C 
HETATM   16  O           1     -21.265  -8.041  -6.165  0.00  0.00    -0.646 OA
HETATM   17  O           1     -20.948  -6.281  -7.385  0.00  0.00    -0.646 OA
ENDBRANCH  13  15
ENDBRANCH   1  13
TORSDOF 6
ENDMDL
MODEL 7
REMARK VINA RESULT:      -4.5      6.409      9.166
REMARK  6 active torsions:
REMARK  status: ('A' for Active; 'I' for Inactive)
REMARK    1  A    between atoms: C_2  and  C_3 
REMARK    2  A    between atoms: C_2  and  N_6 
REMARK       I    between atoms: N_6  and  C_7 
REMARK    3  A    between atoms: C_7  and  C_8 
REMARK    4  A    between atoms: C_8  and  C_9 
REMARK    5  A    between atoms: C_8  and  N_11 
REMARK    6  A    between atoms: C_9  and  Se_10 
ROOT
HETATM    1  N           1     -20.882  -6.666  -4.873  0.00  0.00    -0.345 N 
HETATM    2  C           1     -21.411  -5.733  -5.723  0.00  0.00     0.249 C 
HETATM    3  O           1     -22.602  -5.535  -5.739  0.00  0.00    -0.271 OA
HETATM    4  H           1     -19.884  -6.831  -4.860  0.00  0.00     0.163 HD
ENDROOT
BRANCH   2   5
HETATM    5  C           1     -20.505  -4.951  -6.643  0.00  0.00     0.274 C 
BRANCH   5   6
HETATM    6  C           1     -21.270  -3.772  -7.229  0.00  0.00     0.045 C 
BRANCH   6   7
HETATM    7 Se           1     -21.831  -4.198  -9.046  0.00  0.00     0.000 Se
HETATM    8  H           1     -23.191  -4.605  -8.654  0.00  0.00     0.000 HD
ENDBRANCH   6   7
ENDBRANCH   5   6
BRANCH   5   9
HETATM    9  N           1     -20.033  -5.842  -7.754  0.00  0.00    -0.067 N 
HETATM   10  H           1     -19.194  -5.415  -8.210  0.00  0.00     0.275 HD
HETATM   11  H           1     -19.778  -6.777  -7.364  0.00  0.00     0.275 HD
HETATM   12  H           1     -20.795  -5.953  -8.459  0.00  0.00     0.275 HD
ENDBRANCH   5   9
ENDBRANCH   2   5
BRANCH   1  13
HETATM   13  C           1     -21.753  -7.417  -3.989  0.00  0.00     0.181 C 
HETATM   14  C           1     -21.345  -8.885  -4.003  0.00  0.00     0.043 C 
BRANCH  13  15
HETATM   15  C           1     -21.635  -6.874  -2.586  0.00  0.00     0.196 C 
HETATM   16  O           1     -20.834  -7.395  -1.780  0.00  0.00    -0.646 OA
HETATM   17  O           1     -22.338  -5.903  -2.231  0.00  0.00    -0.646 OA
ENDBRANCH  13  15
ENDBRANCH   1  13
TORSDOF 6
ENDMDL
MODEL 8
REMARK VINA RESULT:      -4.5      2.508      3.145
REMARK  6 active torsions:
REMARK  status: ('A' for Active; 'I' for Inactive)
REMARK    1  A    between atoms: C_2  and  C_3 
REMARK    2  A    between atoms: C_2  and  N_6 
REMARK       I    between atoms: N_6  and  C_7 
REMARK    3  A    between atoms: C_7  and  C_8 
REMARK    4  A    between atoms: C_8  and  C_9 
REMARK    5  A    between atoms: C_8  and  N_11 
REMARK    6  A    between atoms: C_9  and  Se_10 
ROOT
HETATM    1  N           1     -22.227  -4.515 -10.002  0.00  0.00    -0.345 N 
HETATM    2  C           1     -20.900  -4.671  -9.707  0.00  0.00     0.249 C 
HETATM    3  O           1     -20.082  -4.688 -10.596  0.00  0.00    -0.271 OA
HETATM    4  H           1     -22.912  -4.502  -9.257  0.00  0.00     0.163 HD
ENDROOT
BRANCH   2   5
HETATM    5  C           1     -20.458  -4.823  -8.272  0.00  0.00     0.274 C 
BRANCH   5   6
HETATM    6  C           1     -21.637  -4.558  -7.346  0.00  0.00     0.045 C 
BRANCH   6   7
HETATM    7 Se           1     -21.570  -5.790  -5.838  0.00  0.00     0.000 Se
HETATM    8  H           1     -21.610  -4.728  -4.819  0.00  0.00     0.000 HD
ENDBRANCH   6   7
ENDBRANCH   5   6
BRANCH   5   9
HETATM    9  N           1     -19.363  -3.840  -7.981  0.00  0.00    -0.067 N 
HETATM   10  H           1     -18.522  -4.350  -7.627  0.00  0.00     0.275 HD
HETATM   11  H           1     -19.115  -3.327  -8.857  0.00  0.00     0.275 HD
HETATM   12  H           1     -19.688  -3.160  -7.258  0.00  0.00     0.275 HD
ENDBRANCH   5   9
ENDBRANCH   2   5
BRANCH   1  13
HETATM   13  C           1     -22.652  -4.370 -11.381  0.00  0.00     0.181 C 
HETATM   14  C           1     -23.627  -5.486 -11.732  0.00  0.00     0.043 C 
BRANCH  13  15
HETATM   15  C           1     -23.330  -3.033 -11.559  0.00  0.00     0.196 C 
HETATM   16  O           1     -22.729  -2.099 -12.131  0.00  0.00    -0.646 OA
HETATM   17  O           1     -24.493  -2.862 -11.134  0.00  0.00    -0.646 OA
ENDBRANCH  13  15
ENDBRANCH   1  13
TORSDOF 6
ENDMDL
MODEL 9
REMARK VINA RESULT:      -4.4      6.608      8.227
REMARK  6 active torsions:
REMARK  status: ('A' for Active; 'I' for Inactive)
REMARK    1  A    between atoms: C_2  and  C_3 
REMARK    2  A    between atoms: C_2  and  N_6 
REMARK       I    between atoms: N_6  and  C_7 
REMARK    3  A    between atoms: C_7  and  C_8 
REMARK    4  A    between atoms: C_8  and  C_9 
REMARK    5  A    between atoms: C_8  and  N_11 
REMARK    6  A    between atoms: C_9  and  Se_10 
ROOT
HETATM    1  N           1     -21.236  -5.598  -5.122  0.00  0.00    -0.345 N 
HETATM    2  C           1     -21.592  -6.678  -4.362  0.00  0.00     0.249 C 
HETATM    3  O           1     -22.120  -7.634  -4.879  0.00  0.00    -0.271 OA
HETATM    4  H           1     -20.793  -4.798  -4.689  0.00  0.00     0.163 HD
ENDROOT
BRANCH   2   5
HETATM    5  C           1     -21.325  -6.677  -2.876  0.00  0.00     0.274 C 
BRANCH   5   6
HETATM    6  C           1     -21.421  -8.100  -2.341  0.00  0.00     0.045 C 
BRANCH   6   7
HETATM    7 Se           1     -19.690  -8.978  -2.516  0.00  0.00     0.000 Se
HETATM    8  H           1     -19.160  -7.996  -3.477  0.00  0.00     0.000 HD
ENDBRANCH   6   7
ENDBRANCH   5   6
BRANCH   5   9
HETATM    9  N           1     -22.341  -5.814  -2.188  0.00  0.00    -0.067 N 
HETATM   10  H           1     -22.655  -5.059  -2.839  0.00  0.00     0.275 HD
HETATM   11  H           1     -23.163  -6.398  -1.912  0.00  0.00     0.275 HD
HETATM   12  H           1     -21.914  -5.386  -1.336  0.00  0.00     0.275 HD
ENDBRANCH   5   9
ENDBRANCH   2   5
BRANCH   1  13
HETATM   13  C           1     -21.493  -5.600  -6.550  0.00  0.00     0.181 C 
HETATM   14  C           1     -22.069  -4.252  -6.963  0.00  0.00     0.043 C 
BRANCH  13  15
HETATM   15  C           1     -20.201  -5.845  -7.292  0.00  0.00     0.196 C 
HETATM   16  O           1     -19.861  -5.081  -8.221  0.00  0.00    -0.646 OA
HETATM   17  O           1     -19.473  -6.810  -6.977  0.00  0.00    -0.646 OA
ENDBRANCH  13  15
ENDBRANCH   1  13
TORSDOF 6
ENDMDL
