MODEL 1
REMARK VINA RESULT:      -7.4      0.000      0.000
REMARK  15 active torsions:
REMARK  status: ('A' for Active; 'I' for Inactive)
REMARK    1  A    between atoms: C_1  and  C_2 
REMARK    2  A    between atoms: C_1  and  C_20 
REMARK    3  A    between atoms: C_1  and  N_32 
REMARK       I    between atoms: C_2  and  N_3 
REMARK    4  A    between atoms: N_3  and  C_12 
REMARK    5  A    between atoms: C_6  and  C_7 
REMARK    6  A    between atoms: C_7  and  C_8 
REMARK    7  A    between atoms: C_7  and  N_17 
REMARK    8  A    between atoms: C_8  and  O_29 
REMARK       I    between atoms: C_9  and  N_10 
REMARK       I    between atoms: C_9  and  N_30 
REMARK    9  A    between atoms: N_10  and  C_18 
REMARK   10  A    between atoms: C_11  and  C_12 
REMARK   11  A    between atoms: C_12  and  C_13 
REMARK   12  A    between atoms: C_13  and  C_14 
REMARK   13  A    between atoms: C_14  and  N_17 
REMARK   14  A    between atoms: C_18  and  C_19 
REMARK   15  A    between atoms: C_19  and  C_20 
ROOT
HETATM    1  C           1     -34.977  -1.995 -12.371  0.00  0.00     0.249 C 
HETATM    2  N           1     -36.152  -1.746 -11.716  0.00  0.00    -0.345 N 
HETATM    3  O           1     -34.361  -1.085 -12.873  0.00  0.00    -0.271 OA
HETATM    4  H           1     -36.669  -2.508 -11.295  0.00  0.00     0.163 HD
ENDROOT
BRANCH   1   5
HETATM    5  C           1     -34.451  -3.406 -12.467  0.00  0.00     0.274 C 
BRANCH   5   6
HETATM    6  C           1     -33.274  -3.575 -11.515  0.00  0.00     0.044 C 
BRANCH   6   7
HETATM    7  C           1     -33.671  -4.506 -10.376  0.00  0.00     0.023 C 
BRANCH   7   8
HETATM    8  C           1     -34.530  -5.640 -10.923  0.00  0.00     0.138 C 
BRANCH   8   9
HETATM    9  N           1     -33.752  -6.887 -10.925  0.00  0.00    -0.227 N 
HETATM   10  C           1     -34.123  -7.866 -10.212  0.00  0.00     0.665 C 
HETATM   11  N           1     -33.453  -8.939 -10.213  0.00  0.00    -0.235 N 
HETATM   12  N           1     -35.192  -7.766  -9.478  0.00  0.00    -0.235 N 
HETATM   13  H           1     -32.590  -9.019 -10.807  0.00  0.00     0.174 HD
HETATM   14  H           1     -33.760  -9.751  -9.622  0.00  0.00     0.174 HD
HETATM   15  H           1     -35.744  -6.879  -9.477  0.00  0.00     0.174 HD
HETATM   16  H           1     -35.497  -8.573  -8.889  0.00  0.00     0.174 HD
HETATM   17  H           1     -32.889  -6.967 -11.519  0.00  0.00     0.177 HD
ENDBRANCH   8   9
ENDBRANCH   7   8
ENDBRANCH   6   7
ENDBRANCH   5   6
BRANCH   5  18
HETATM   18  N           1     -34.000  -3.677 -13.872  0.00  0.00    -0.067 N 
HETATM   19  H           1     -33.005  -3.996 -13.863  0.00  0.00     0.275 HD
HETATM   20  H           1     -34.081  -2.802 -14.437  0.00  0.00     0.275 HD
HETATM   21  H           1     -34.601  -4.421 -14.293  0.00  0.00     0.275 HD
ENDBRANCH   5  18
ENDBRANCH   1   5
BRANCH   2  22
HETATM   22  C           1     -36.658  -0.390 -11.624  0.00  0.00     0.187 C 
BRANCH  22  23
HETATM   23  C           1     -36.670   0.045 -10.179  0.00  0.00     0.196 C 
HETATM   24  O           1     -37.546   0.838  -9.772  0.00  0.00    -0.646 OA
HETATM   25  O           1     -35.804  -0.389  -9.389  0.00  0.00    -0.646 OA
ENDBRANCH  22  23
BRANCH  22  26
HETATM   26  C           1     -38.074  -0.338 -12.182  0.00  0.00     0.066 C 
BRANCH  26  27
HETATM   27  C           1     -38.032   0.131 -13.631  0.00  0.00     0.273 C 
BRANCH  27  28
HETATM   28  N           1     -36.664   0.266 -14.052  0.00  0.00     0.100 N 
HETATM   29  H           1     -36.168  -0.609 -13.880  0.00  0.00     0.317 HD
BRANCH  28  30
HETATM   30  C           1     -36.666   0.546 -15.463  0.00  0.00     0.343 C 
BRANCH  30  31
HETATM   31  C           1     -36.173  -0.664 -16.216  0.00  0.00     0.209 C 
HETATM   32  O           1     -36.407  -0.777 -17.439  0.00  0.00    -0.646 OA
HETATM   33  O           1     -35.530  -1.553 -15.618  0.00  0.00    -0.646 OA
ENDBRANCH  30  31
BRANCH  30  34
HETATM   34  C           1     -35.750   1.730 -15.745  0.00  0.00     0.211 C 
BRANCH  34  35
HETATM   35  O           1     -36.435   2.678 -16.518  0.00  0.00    -0.398 OA
HETATM   36  H           1     -35.822   3.364 -16.716  0.00  0.00     0.209 HD
ENDBRANCH  34  35
ENDBRANCH  30  34
ENDBRANCH  28  30
ENDBRANCH  27  28
ENDBRANCH  26  27
ENDBRANCH  22  26
ENDBRANCH   2  22
TORSDOF 15
ENDMDL
MODEL 2
REMARK VINA RESULT:      -7.4     12.401     14.401
REMARK  15 active torsions:
REMARK  status: ('A' for Active; 'I' for Inactive)
REMARK    1  A    between atoms: C_1  and  C_2 
REMARK    2  A    between atoms: C_1  and  C_20 
REMARK    3  A    between atoms: C_1  and  N_32 
REMARK       I    between atoms: C_2  and  N_3 
REMARK    4  A    between atoms: N_3  and  C_12 
REMARK    5  A    between atoms: C_6  and  C_7 
REMARK    6  A    between atoms: C_7  and  C_8 
REMARK    7  A    between atoms: C_7  and  N_17 
REMARK    8  A    between atoms: C_8  and  O_29 
REMARK       I    between atoms: C_9  and  N_10 
REMARK       I    between atoms: C_9  and  N_30 
REMARK    9  A    between atoms: N_10  and  C_18 
REMARK   10  A    between atoms: C_11  and  C_12 
REMARK   11  A    between atoms: C_12  and  C_13 
REMARK   12  A    between atoms: C_13  and  C_14 
REMARK   13  A    between atoms: C_14  and  N_17 
REMARK   14  A    between atoms: C_18  and  C_19 
REMARK   15  A    between atoms: C_19  and  C_20 
ROOT
HETATM    1  C           1     -21.625  -4.748  -7.533  0.00  0.00     0.249 C 
HETATM    2  N           1     -22.123  -4.985  -8.785  0.00  0.00    -0.345 N 
HETATM    3  O           1     -21.541  -3.615  -7.121  0.00  0.00    -0.271 OA
HETATM    4  H           1     -22.195  -5.934  -9.131  0.00  0.00     0.163 HD
ENDROOT
BRANCH   1   5
HETATM    5  C           1     -21.181  -5.901  -6.667  0.00  0.00     0.274 C 
BRANCH   5   6
HETATM    6  C           1     -21.077  -5.439  -5.219  0.00  0.00     0.044 C 
BRANCH   6   7
HETATM    7  C           1     -21.649  -6.511  -4.301  0.00  0.00     0.023 C 
BRANCH   7   8
HETATM    8  C           1     -21.310  -6.175  -2.854  0.00  0.00     0.138 C 
BRANCH   8   9
HETATM    9  N           1     -20.918  -7.400  -2.144  0.00  0.00    -0.227 N 
HETATM   10  C           1     -21.544  -7.757  -1.103  0.00  0.00     0.665 C 
HETATM   11  N           1     -21.207  -8.811  -0.490  0.00  0.00    -0.235 N 
HETATM   12  N           1     -22.534  -7.037  -0.662  0.00  0.00    -0.235 N 
HETATM   13  H           1     -20.408  -9.392  -0.847  0.00  0.00     0.174 HD
HETATM   14  H           1     -21.726  -9.107   0.373  0.00  0.00     0.174 HD
HETATM   15  H           1     -22.813  -6.166  -1.168  0.00  0.00     0.174 HD
HETATM   16  H           1     -23.051  -7.331   0.197  0.00  0.00     0.174 HD
HETATM   17  H           1     -20.119  -7.981  -2.500  0.00  0.00     0.177 HD
ENDBRANCH   8   9
ENDBRANCH   7   8
ENDBRANCH   6   7
ENDBRANCH   5   6
BRANCH   5  18
HETATM   18  N           1     -19.841  -6.389  -7.133  0.00  0.00    -0.067 N 
HETATM   19  H           1     -19.748  -7.408  -6.921  0.00  0.00     0.275 HD
HETATM   20  H           1     -19.088  -5.860  -6.640  0.00  0.00     0.275 HD
HETATM   21  H           1     -19.756  -6.239  -8.163  0.00  0.00     0.275 HD
ENDBRANCH   5  18
ENDBRANCH   1   5
BRANCH   2  22
HETATM   22  C           1     -22.550  -3.877  -9.617  0.00  0.00     0.187 C 
BRANCH  22  23
HETATM   23  C           1     -24.056  -3.866  -9.706  0.00  0.00     0.196 C 
HETATM   24  O           1     -24.675  -4.921  -9.964  0.00  0.00    -0.646 OA
HETATM   25  O           1     -24.685  -2.802  -9.522  0.00  0.00    -0.646 OA
ENDBRANCH  22  23
BRANCH  22  26
HETATM   26  C           1     -21.959  -4.033 -11.013  0.00  0.00     0.066 C 
BRANCH  26  27
HETATM   27  C           1     -21.751  -2.658 -11.634  0.00  0.00     0.273 C 
BRANCH  27  28
HETATM   28  N           1     -22.970  -2.228 -12.267  0.00  0.00     0.100 N 
HETATM   29  H           1     -22.871  -1.259 -12.568  0.00  0.00     0.317 HD
BRANCH  28  30
HETATM   30  C           1     -23.186  -3.068 -13.413  0.00  0.00     0.343 C 
BRANCH  30  31
HETATM   31  C           1     -23.235  -2.216 -14.658  0.00  0.00     0.209 C 
HETATM   32  O           1     -24.106  -1.326 -14.772  0.00  0.00    -0.646 OA
HETATM   33  O           1     -22.405  -2.399 -15.574  0.00  0.00    -0.646 OA
ENDBRANCH  30  31
BRANCH  30  34
HETATM   34  C           1     -24.506  -3.811 -13.254  0.00  0.00     0.211 C 
BRANCH  34  35
HETATM   35  O           1     -25.413  -3.008 -12.549  0.00  0.00    -0.398 OA
HETATM   36  H           1     -24.905  -2.376 -12.070  0.00  0.00     0.209 HD
ENDBRANCH  34  35
ENDBRANCH  30  34
ENDBRANCH  28  30
ENDBRANCH  27  28
ENDBRANCH  26  27
ENDBRANCH  22  26
ENDBRANCH   2  22
TORSDOF 15
ENDMDL
MODEL 3
REMARK VINA RESULT:      -7.3     12.358     14.344
REMARK  15 active torsions:
REMARK  status: ('A' for Active; 'I' for Inactive)
REMARK    1  A    between atoms: C_1  and  C_2 
REMARK    2  A    between atoms: C_1  and  C_20 
REMARK    3  A    between atoms: C_1  and  N_32 
REMARK       I    between atoms: C_2  and  N_3 
REMARK    4  A    between atoms: N_3  and  C_12 
REMARK    5  A    between atoms: C_6  and  C_7 
REMARK    6  A    between atoms: C_7  and  C_8 
REMARK    7  A    between atoms: C_7  and  N_17 
REMARK    8  A    between atoms: C_8  and  O_29 
REMARK       I    between atoms: C_9  and  N_10 
REMARK       I    between atoms: C_9  and  N_30 
REMARK    9  A    between atoms: N_10  and  C_18 
REMARK   10  A    between atoms: C_11  and  C_12 
REMARK   11  A    between atoms: C_12  and  C_13 
REMARK   12  A    between atoms: C_13  and  C_14 
REMARK   13  A    between atoms: C_14  and  N_17 
REMARK   14  A    between atoms: C_18  and  C_19 
REMARK   15  A    between atoms: C_19  and  C_20 
ROOT
HETATM    1  C           1     -21.549  -4.805  -7.550  0.00  0.00     0.249 C 
HETATM    2  N           1     -22.040  -5.077  -8.798  0.00  0.00    -0.345 N 
HETATM    3  O           1     -21.435  -3.659  -7.183  0.00  0.00    -0.271 OA
HETATM    4  H           1     -22.137  -6.037  -9.106  0.00  0.00     0.163 HD
ENDROOT
BRANCH   1   5
HETATM    5  C           1     -21.150  -5.935  -6.633  0.00  0.00     0.274 C 
BRANCH   5   6
HETATM    6  C           1     -21.149  -5.442  -5.192  0.00  0.00     0.044 C 
BRANCH   6   7
HETATM    7  C           1     -21.610  -6.565  -4.271  0.00  0.00     0.023 C 
BRANCH   7   8
HETATM    8  C           1     -21.301  -6.196  -2.825  0.00  0.00     0.138 C 
BRANCH   8   9
HETATM    9  N           1     -20.864  -7.394  -2.096  0.00  0.00    -0.227 N 
HETATM   10  C           1     -21.497  -7.775  -1.067  0.00  0.00     0.665 C 
HETATM   11  N           1     -21.121  -8.807  -0.438  0.00  0.00    -0.235 N 
HETATM   12  N           1     -22.534  -7.105  -0.657  0.00  0.00    -0.235 N 
HETATM   13  H           1     -20.284  -9.347  -0.770  0.00  0.00     0.174 HD
HETATM   14  H           1     -21.645  -9.123   0.415  0.00  0.00     0.174 HD
HETATM   15  H           1     -22.844  -6.253  -1.177  0.00  0.00     0.174 HD
HETATM   16  H           1     -23.056  -7.419   0.192  0.00  0.00     0.174 HD
HETATM   17  H           1     -20.027  -7.935  -2.427  0.00  0.00     0.177 HD
ENDBRANCH   8   9
ENDBRANCH   7   8
ENDBRANCH   6   7
ENDBRANCH   5   6
BRANCH   5  18
HETATM   18  N           1     -19.777  -6.414  -6.999  0.00  0.00    -0.067 N 
HETATM   19  H           1     -19.807  -7.440  -7.196  0.00  0.00     0.275 HD
HETATM   20  H           1     -19.123  -6.230  -6.206  0.00  0.00     0.275 HD
HETATM   21  H           1     -19.446  -5.906  -7.850  0.00  0.00     0.275 HD
ENDBRANCH   5  18
ENDBRANCH   1   5
BRANCH   2  22
HETATM   22  C           1     -22.424  -3.992  -9.680  0.00  0.00     0.187 C 
BRANCH  22  23
HETATM   23  C           1     -23.928  -3.922  -9.766  0.00  0.00     0.196 C 
HETATM   24  O           1     -24.584  -4.933 -10.099  0.00  0.00    -0.646 OA
HETATM   25  O           1     -24.520  -2.852  -9.505  0.00  0.00    -0.646 OA
ENDBRANCH  22  23
BRANCH  22  26
HETATM   26  C           1     -21.846  -4.237 -11.068  0.00  0.00     0.066 C 
BRANCH  26  27
HETATM   27  C           1     -21.749  -2.916 -11.819  0.00  0.00     0.273 C 
BRANCH  27  28
HETATM   28  N           1     -22.233  -3.090 -13.162  0.00  0.00     0.100 N 
HETATM   29  H           1     -22.451  -4.074 -13.320  0.00  0.00     0.317 HD
BRANCH  28  30
HETATM   30  C           1     -23.430  -2.306 -13.301  0.00  0.00     0.343 C 
BRANCH  30  31
HETATM   31  C           1     -24.636  -3.207 -13.199  0.00  0.00     0.209 C 
HETATM   32  O           1     -24.588  -4.369 -13.659  0.00  0.00    -0.646 OA
HETATM   33  O           1     -25.682  -2.793 -12.654  0.00  0.00    -0.646 OA
ENDBRANCH  30  31
BRANCH  30  34
HETATM   34  C           1     -23.427  -1.612 -14.657  0.00  0.00     0.211 C 
BRANCH  34  35
HETATM   35  O           1     -24.559  -0.793 -14.766  0.00  0.00    -0.398 OA
HETATM   36  H           1     -24.514  -0.168 -14.064  0.00  0.00     0.209 HD
ENDBRANCH  34  35
ENDBRANCH  30  34
ENDBRANCH  28  30
ENDBRANCH  27  28
ENDBRANCH  26  27
ENDBRANCH  22  26
ENDBRANCH   2  22
TORSDOF 15
ENDMDL
MODEL 4
REMARK VINA RESULT:      -6.8     13.916     16.311
REMARK  15 active torsions:
REMARK  status: ('A' for Active; 'I' for Inactive)
REMARK    1  A    between atoms: C_1  and  C_2 
REMARK    2  A    between atoms: C_1  and  C_20 
REMARK    3  A    between atoms: C_1  and  N_32 
REMARK       I    between atoms: C_2  and  N_3 
REMARK    4  A    between atoms: N_3  and  C_12 
REMARK    5  A    between atoms: C_6  and  C_7 
REMARK    6  A    between atoms: C_7  and  C_8 
REMARK    7  A    between atoms: C_7  and  N_17 
REMARK    8  A    between atoms: C_8  and  O_29 
REMARK       I    between atoms: C_9  and  N_10 
REMARK       I    between atoms: C_9  and  N_30 
REMARK    9  A    between atoms: N_10  and  C_18 
REMARK   10  A    between atoms: C_11  and  C_12 
REMARK   11  A    between atoms: C_12  and  C_13 
REMARK   12  A    between atoms: C_13  and  C_14 
REMARK   13  A    between atoms: C_14  and  N_17 
REMARK   14  A    between atoms: C_18  and  C_19 
REMARK   15  A    between atoms: C_19  and  C_20 
ROOT
HETATM    1  C           1     -21.520  -6.555  -4.242  0.00  0.00     0.249 C 
HETATM    2  N           1     -20.999  -5.524  -4.976  0.00  0.00    -0.345 N 
HETATM    3  O           1     -22.150  -7.428  -4.790  0.00  0.00    -0.271 OA
HETATM    4  H           1     -20.470  -4.792  -4.518  0.00  0.00     0.163 HD
ENDROOT
BRANCH   1   5
HETATM    5  C           1     -21.308  -6.599  -2.749  0.00  0.00     0.274 C 
BRANCH   5   6
HETATM    6  C           1     -21.373  -8.044  -2.270  0.00  0.00     0.044 C 
BRANCH   6   7
HETATM    7  C           1     -19.960  -8.568  -2.042  0.00  0.00     0.023 C 
BRANCH   7   8
HETATM    8  C           1     -19.725  -9.792  -2.917  0.00  0.00     0.138 C 
BRANCH   8   9
HETATM    9  N           1     -18.783  -9.453  -3.993  0.00  0.00    -0.227 N 
HETATM   10  C           1     -19.165  -9.479  -5.200  0.00  0.00     0.665 C 
HETATM   11  N           1     -18.354  -9.187  -6.127  0.00  0.00    -0.235 N 
HETATM   12  N           1     -20.391  -9.805  -5.487  0.00  0.00    -0.235 N 
HETATM   13  H           1     -17.364  -8.924  -5.894  0.00  0.00     0.174 HD
HETATM   14  H           1     -18.670  -9.208  -7.128  0.00  0.00     0.174 HD
HETATM   15  H           1     -21.060 -10.045  -4.722  0.00  0.00     0.174 HD
HETATM   16  H           1     -20.706  -9.826  -6.483  0.00  0.00     0.174 HD
HETATM   17  H           1     -17.793  -9.190  -3.761  0.00  0.00     0.177 HD
ENDBRANCH   8   9
ENDBRANCH   7   8
ENDBRANCH   6   7
ENDBRANCH   5   6
BRANCH   5  18
HETATM   18  N           1     -22.378  -5.799  -2.068  0.00  0.00    -0.067 N 
HETATM   19  H           1     -21.946  -4.977  -1.587  0.00  0.00     0.275 HD
HETATM   20  H           1     -22.865  -6.398  -1.365  0.00  0.00     0.275 HD
HETATM   21  H           1     -23.067  -5.463  -2.779  0.00  0.00     0.275 HD
ENDBRANCH   5  18
ENDBRANCH   1   5
BRANCH   2  22
HETATM   22  C           1     -21.202  -5.481  -6.411  0.00  0.00     0.187 C 
BRANCH  22  23
HETATM   23  C           1     -19.872  -5.607  -7.112  0.00  0.00     0.196 C 
HETATM   24  O           1     -19.285  -4.585  -7.529  0.00  0.00    -0.646 OA
HETATM   25  O           1     -19.356  -6.734  -7.275  0.00  0.00    -0.646 OA
ENDBRANCH  22  23
BRANCH  22  26
HETATM   26  C           1     -21.854  -4.157  -6.792  0.00  0.00     0.066 C 
BRANCH  26  27
HETATM   27  C           1     -23.024  -4.418  -7.731  0.00  0.00     0.273 C 
BRANCH  27  28
HETATM   28  N           1     -23.149  -3.324  -8.657  0.00  0.00     0.100 N 
HETATM   29  H           1     -22.329  -2.723  -8.585  0.00  0.00     0.317 HD
BRANCH  28  30
HETATM   30  C           1     -23.222  -3.880  -9.982  0.00  0.00     0.343 C 
BRANCH  30  31
HETATM   31  C           1     -21.989  -3.489 -10.759  0.00  0.00     0.209 C 
HETATM   32  O           1     -22.091  -2.752 -11.763  0.00  0.00    -0.646 OA
HETATM   33  O           1     -20.866  -3.903 -10.397  0.00  0.00    -0.646 OA
ENDBRANCH  30  31
BRANCH  30  34
HETATM   34  C           1     -24.460  -3.342 -10.688  0.00  0.00     0.211 C 
BRANCH  34  35
HETATM   35  O           1     -25.521  -3.262  -9.776  0.00  0.00    -0.398 OA
HETATM   36  H           1     -25.722  -4.143  -9.511  0.00  0.00     0.209 HD
ENDBRANCH  34  35
ENDBRANCH  30  34
ENDBRANCH  28  30
ENDBRANCH  27  28
ENDBRANCH  26  27
ENDBRANCH  22  26
ENDBRANCH   2  22
TORSDOF 15
ENDMDL
MODEL 5
REMARK VINA RESULT:      -6.7     14.622     18.043
REMARK  15 active torsions:
REMARK  status: ('A' for Active; 'I' for Inactive)
REMARK    1  A    between atoms: C_1  and  C_2 
REMARK    2  A    between atoms: C_1  and  C_20 
REMARK    3  A    between atoms: C_1  and  N_32 
REMARK       I    between atoms: C_2  and  N_3 
REMARK    4  A    between atoms: N_3  and  C_12 
REMARK    5  A    between atoms: C_6  and  C_7 
REMARK    6  A    between atoms: C_7  and  C_8 
REMARK    7  A    between atoms: C_7  and  N_17 
REMARK    8  A    between atoms: C_8  and  O_29 
REMARK       I    between atoms: C_9  and  N_10 
REMARK       I    between atoms: C_9  and  N_30 
REMARK    9  A    between atoms: N_10  and  C_18 
REMARK   10  A    between atoms: C_11  and  C_12 
REMARK   11  A    between atoms: C_12  and  C_13 
REMARK   12  A    between atoms: C_13  and  C_14 
REMARK   13  A    between atoms: C_14  and  N_17 
REMARK   14  A    between atoms: C_18  and  C_19 
REMARK   15  A    between atoms: C_19  and  C_20 
ROOT
HETATM    1  C           1     -20.956  -5.052  -6.862  0.00  0.00     0.249 C 
HETATM    2  N           1     -21.426  -6.218  -6.321  0.00  0.00    -0.345 N 
HETATM    3  O           1     -20.120  -4.407  -6.274  0.00  0.00    -0.271 OA
HETATM    4  H           1     -22.126  -6.759  -6.813  0.00  0.00     0.163 HD
ENDROOT
BRANCH   1   5
HETATM    5  C           1     -21.483  -4.571  -8.192  0.00  0.00     0.274 C 
BRANCH   5   6
HETATM    6  C           1     -20.323  -4.098  -9.057  0.00  0.00     0.044 C 
BRANCH   6   7
HETATM    7  C           1     -20.612  -4.423 -10.517  0.00  0.00     0.023 C 
BRANCH   7   8
HETATM    8  C           1     -21.373  -3.266 -11.154  0.00  0.00     0.138 C 
BRANCH   8   9
HETATM    9  N           1     -21.650  -3.577 -12.563  0.00  0.00    -0.227 N 
HETATM   10  C           1     -22.635  -3.039 -13.148  0.00  0.00     0.665 C 
HETATM   11  N           1     -22.875  -3.307 -14.362  0.00  0.00    -0.235 N 
HETATM   12  N           1     -23.402  -2.211 -12.501  0.00  0.00    -0.235 N 
HETATM   13  H           1     -22.255  -3.975 -14.883  0.00  0.00     0.174 HD
HETATM   14  H           1     -23.692  -2.860 -14.847  0.00  0.00     0.174 HD
HETATM   15  H           1     -23.204  -1.989 -11.499  0.00  0.00     0.174 HD
HETATM   16  H           1     -24.215  -1.767 -12.984  0.00  0.00     0.174 HD
HETATM   17  H           1     -21.031  -4.246 -13.085  0.00  0.00     0.177 HD
ENDBRANCH   8   9
ENDBRANCH   7   8
ENDBRANCH   6   7
ENDBRANCH   5   6
BRANCH   5  18
HETATM   18  N           1     -22.436  -3.434  -7.970  0.00  0.00    -0.067 N 
HETATM   19  H           1     -23.009  -3.286  -8.832  0.00  0.00     0.275 HD
HETATM   20  H           1     -21.897  -2.566  -7.755  0.00  0.00     0.275 HD
HETATM   21  H           1     -23.067  -3.660  -7.168  0.00  0.00     0.275 HD
ENDBRANCH   5  18
ENDBRANCH   1   5
BRANCH   2  22
HETATM   22  C           1     -20.919  -6.680  -5.044  0.00  0.00     0.187 C 
BRANCH  22  23
HETATM   23  C           1     -20.413  -8.094  -5.185  0.00  0.00     0.196 C 
HETATM   24  O           1     -19.328  -8.315  -5.766  0.00  0.00    -0.646 OA
HETATM   25  O           1     -21.078  -9.045  -4.721  0.00  0.00    -0.646 OA
ENDBRANCH  22  23
BRANCH  22  26
HETATM   26  C           1     -22.039  -6.642  -4.010  0.00  0.00     0.066 C 
BRANCH  26  27
HETATM   27  C           1     -21.486  -6.144  -2.681  0.00  0.00     0.273 C 
BRANCH  27  28
HETATM   28  N           1     -22.262  -6.694  -1.602  0.00  0.00     0.100 N 
HETATM   29  H           1     -23.255  -6.614  -1.823  0.00  0.00     0.317 HD
BRANCH  28  30
HETATM   30  C           1     -21.910  -8.082  -1.474  0.00  0.00     0.343 C 
BRANCH  30  31
HETATM   31  C           1     -22.568  -8.656  -0.244  0.00  0.00     0.209 C 
HETATM   32  O           1     -23.302  -7.935   0.466  0.00  0.00    -0.646 OA
HETATM   33  O           1     -22.380  -9.853   0.065  0.00  0.00    -0.646 OA
ENDBRANCH  30  31
BRANCH  30  34
HETATM   34  C           1     -20.397  -8.211  -1.348  0.00  0.00     0.211 C 
BRANCH  34  35
HETATM   35  O           1     -19.986  -9.440  -1.883  0.00  0.00    -0.398 OA
HETATM   36  H           1     -19.185  -9.674  -1.446  0.00  0.00     0.209 HD
ENDBRANCH  34  35
ENDBRANCH  30  34
ENDBRANCH  28  30
ENDBRANCH  27  28
ENDBRANCH  26  27
ENDBRANCH  22  26
ENDBRANCH   2  22
TORSDOF 15
ENDMDL
MODEL 6
REMARK VINA RESULT:      -6.6      1.689      4.318
REMARK  15 active torsions:
REMARK  status: ('A' for Active; 'I' for Inactive)
REMARK    1  A    between atoms: C_1  and  C_2 
REMARK    2  A    between atoms: C_1  and  C_20 
REMARK    3  A    between atoms: C_1  and  N_32 
REMARK       I    between atoms: C_2  and  N_3 
REMARK    4  A    between atoms: N_3  and  C_12 
REMARK    5  A    between atoms: C_6  and  C_7 
REMARK    6  A    between atoms: C_7  and  C_8 
REMARK    7  A    between atoms: C_7  and  N_17 
REMARK    8  A    between atoms: C_8  and  O_29 
REMARK       I    between atoms: C_9  and  N_10 
REMARK       I    between atoms: C_9  and  N_30 
REMARK    9  A    between atoms: N_10  and  C_18 
REMARK   10  A    between atoms: C_11  and  C_12 
REMARK   11  A    between atoms: C_12  and  C_13 
REMARK   12  A    between atoms: C_13  and  C_14 
REMARK   13  A    between atoms: C_14  and  N_17 
REMARK   14  A    between atoms: C_18  and  C_19 
REMARK   15  A    between atoms: C_19  and  C_20 
ROOT
HETATM    1  C           1     -34.617  -2.784 -13.746  0.00  0.00     0.249 C 
HETATM    2  N           1     -35.118  -1.632 -13.204  0.00  0.00    -0.345 N 
HETATM    3  O           1     -34.692  -2.974 -14.937  0.00  0.00    -0.271 OA
HETATM    4  H           1     -35.055  -1.473 -12.206  0.00  0.00     0.163 HD
ENDROOT
BRANCH   1   5
HETATM    5  C           1     -33.972  -3.819 -12.857  0.00  0.00     0.274 C 
BRANCH   5   6
HETATM    6  C           1     -33.624  -3.188 -11.515  0.00  0.00     0.044 C 
BRANCH   6   7
HETATM    7  C           1     -33.732  -4.238 -10.416  0.00  0.00     0.023 C 
BRANCH   7   8
HETATM    8  C           1     -34.632  -5.373 -10.885  0.00  0.00     0.138 C 
BRANCH   8   9
HETATM    9  N           1     -33.856  -6.619 -10.952  0.00  0.00    -0.227 N 
HETATM   10  C           1     -34.204  -7.620 -10.259  0.00  0.00     0.665 C 
HETATM   11  N           1     -33.536  -8.693 -10.315  0.00  0.00    -0.235 N 
HETATM   12  N           1     -35.249  -7.544  -9.488  0.00  0.00    -0.235 N 
HETATM   13  H           1     -32.692  -8.754 -10.938  0.00  0.00     0.174 HD
HETATM   14  H           1     -33.825  -9.523  -9.741  0.00  0.00     0.174 HD
HETATM   15  H           1     -35.801  -6.658  -9.442  0.00  0.00     0.174 HD
HETATM   16  H           1     -35.537  -8.370  -8.916  0.00  0.00     0.174 HD
HETATM   17  H           1     -33.012  -6.680 -11.575  0.00  0.00     0.177 HD
ENDBRANCH   8   9
ENDBRANCH   7   8
ENDBRANCH   6   7
ENDBRANCH   5   6
BRANCH   5  18
HETATM   18  N           1     -32.721  -4.328 -13.509  0.00  0.00    -0.067 N 
HETATM   19  H           1     -32.234  -3.540 -13.991  0.00  0.00     0.275 HD
HETATM   20  H           1     -32.969  -5.065 -14.206  0.00  0.00     0.275 HD
HETATM   21  H           1     -32.090  -4.735 -12.782  0.00  0.00     0.275 HD
ENDBRANCH   5  18
ENDBRANCH   1   5
BRANCH   2  22
HETATM   22  C           1     -35.738  -0.639 -14.059  0.00  0.00     0.187 C 
BRANCH  22  23
HETATM   23  C           1     -34.743   0.454 -14.364  0.00  0.00     0.196 C 
HETATM   24  O           1     -34.550   1.372 -13.538  0.00  0.00    -0.646 OA
HETATM   25  O           1     -34.112   0.440 -15.443  0.00  0.00    -0.646 OA
ENDBRANCH  22  23
BRANCH  22  26
HETATM   26  C           1     -36.947  -0.041 -13.349  0.00  0.00     0.066 C 
BRANCH  26  27
HETATM   27  C           1     -36.632   0.133 -11.869  0.00  0.00     0.273 C 
BRANCH  27  28
HETATM   28  N           1     -37.850   0.060 -11.107  0.00  0.00     0.100 N 
HETATM   29  H           1     -38.484  -0.609 -11.544  0.00  0.00     0.317 HD
BRANCH  28  30
HETATM   30  C           1     -37.512  -0.393  -9.785  0.00  0.00     0.343 C 
BRANCH  30  31
HETATM   31  C           1     -37.124   0.790  -8.933  0.00  0.00     0.209 C 
HETATM   32  O           1     -37.820   1.829  -8.953  0.00  0.00    -0.646 OA
HETATM   33  O           1     -36.108   0.731  -8.207  0.00  0.00    -0.646 OA
ENDBRANCH  30  31
BRANCH  30  34
HETATM   34  C           1     -36.343  -1.366  -9.867  0.00  0.00     0.211 C 
BRANCH  34  35
HETATM   35  O           1     -36.754  -2.538 -10.517  0.00  0.00    -0.398 OA
HETATM   36  H           1     -36.008  -3.111 -10.546  0.00  0.00     0.209 HD
ENDBRANCH  34  35
ENDBRANCH  30  34
ENDBRANCH  28  30
ENDBRANCH  27  28
ENDBRANCH  26  27
ENDBRANCH  22  26
ENDBRANCH   2  22
TORSDOF 15
ENDMDL
MODEL 7
REMARK VINA RESULT:      -6.6     13.282     15.485
REMARK  15 active torsions:
REMARK  status: ('A' for Active; 'I' for Inactive)
REMARK    1  A    between atoms: C_1  and  C_2 
REMARK    2  A    between atoms: C_1  and  C_20 
REMARK    3  A    between atoms: C_1  and  N_32 
REMARK       I    between atoms: C_2  and  N_3 
REMARK    4  A    between atoms: N_3  and  C_12 
REMARK    5  A    between atoms: C_6  and  C_7 
REMARK    6  A    between atoms: C_7  and  C_8 
REMARK    7  A    between atoms: C_7  and  N_17 
REMARK    8  A    between atoms: C_8  and  O_29 
REMARK       I    between atoms: C_9  and  N_10 
REMARK       I    between atoms: C_9  and  N_30 
REMARK    9  A    between atoms: N_10  and  C_18 
REMARK   10  A    between atoms: C_11  and  C_12 
REMARK   11  A    between atoms: C_12  and  C_13 
REMARK   12  A    between atoms: C_13  and  C_14 
REMARK   13  A    between atoms: C_14  and  N_17 
REMARK   14  A    between atoms: C_18  and  C_19 
REMARK   15  A    between atoms: C_19  and  C_20 
ROOT
HETATM    1  C           1     -21.305  -6.012  -6.320  0.00  0.00     0.249 C 
HETATM    2  N           1     -21.657  -4.854  -6.958  0.00  0.00    -0.345 N 
HETATM    3  O           1     -21.088  -7.013  -6.962  0.00  0.00    -0.271 OA
HETATM    4  H           1     -21.838  -4.015  -6.421  0.00  0.00     0.163 HD
ENDROOT
BRANCH   1   5
HETATM    5  C           1     -21.188  -6.040  -4.816  0.00  0.00     0.274 C 
BRANCH   5   6
HETATM    6  C           1     -20.331  -7.226  -4.395  0.00  0.00     0.044 C 
BRANCH   6   7
HETATM    7  C           1     -21.134  -8.131  -3.469  0.00  0.00     0.023 C 
BRANCH   7   8
HETATM    8  C           1     -20.293  -8.487  -2.250  0.00  0.00     0.138 C 
BRANCH   8   9
HETATM    9  N           1     -20.902  -9.625  -1.549  0.00  0.00    -0.227 N 
HETATM   10  C           1     -21.303  -9.493  -0.355  0.00  0.00     0.665 C 
HETATM   11  N           1     -21.827 -10.473   0.250  0.00  0.00    -0.235 N 
HETATM   12  N           1     -21.174  -8.349   0.250  0.00  0.00    -0.235 N 
HETATM   13  H           1     -21.931 -11.396  -0.239  0.00  0.00     0.174 HD
HETATM   14  H           1     -22.159 -10.363   1.240  0.00  0.00     0.174 HD
HETATM   15  H           1     -20.741  -7.539  -0.250  0.00  0.00     0.174 HD
HETATM   16  H           1     -21.503  -8.239   1.235  0.00  0.00     0.174 HD
HETATM   17  H           1     -21.007 -10.550  -2.037  0.00  0.00     0.177 HD
ENDBRANCH   8   9
ENDBRANCH   7   8
ENDBRANCH   6   7
ENDBRANCH   5   6
BRANCH   5  18
HETATM   18  N           1     -22.554  -6.171  -4.211  0.00  0.00    -0.067 N 
HETATM   19  H           1     -23.094  -5.291  -4.377  0.00  0.00     0.275 HD
HETATM   20  H           1     -22.465  -6.337  -3.184  0.00  0.00     0.275 HD
HETATM   21  H           1     -23.054  -6.975  -4.652  0.00  0.00     0.275 HD
ENDBRANCH   5  18
ENDBRANCH   1   5
BRANCH   2  22
HETATM   22  C           1     -21.769  -4.827  -8.403  0.00  0.00     0.187 C 
BRANCH  22  23
HETATM   23  C           1     -20.452  -4.398  -9.002  0.00  0.00     0.196 C 
HETATM   24  O           1     -20.161  -4.726 -10.173  0.00  0.00    -0.646 OA
HETATM   25  O           1     -19.652  -3.715  -8.328  0.00  0.00    -0.646 OA
ENDBRANCH  22  23
BRANCH  22  26
HETATM   26  C           1     -22.857  -3.842  -8.810  0.00  0.00     0.066 C 
BRANCH  26  27
HETATM   27  C           1     -23.841  -4.529  -9.748  0.00  0.00     0.273 C 
BRANCH  27  28
HETATM   28  N           1     -23.312  -4.522 -11.086  0.00  0.00     0.100 N 
HETATM   29  H           1     -23.862  -5.151 -11.671  0.00  0.00     0.317 HD
BRANCH  28  30
HETATM   30  C           1     -23.420  -3.180 -11.592  0.00  0.00     0.343 C 
BRANCH  30  31
HETATM   31  C           1     -24.388  -3.156 -12.748  0.00  0.00     0.209 C 
HETATM   32  O           1     -25.592  -2.880 -12.550  0.00  0.00    -0.646 OA
HETATM   33  O           1     -23.987  -3.410 -13.905  0.00  0.00    -0.646 OA
ENDBRANCH  30  31
BRANCH  30  34
HETATM   34  C           1     -22.051  -2.707 -12.064  0.00  0.00     0.211 C 
BRANCH  34  35
HETATM   35  O           1     -21.392  -3.758 -12.715  0.00  0.00    -0.398 OA
HETATM   36  H           1     -20.594  -3.918 -12.240  0.00  0.00     0.209 HD
ENDBRANCH  34  35
ENDBRANCH  30  34
ENDBRANCH  28  30
ENDBRANCH  27  28
ENDBRANCH  26  27
ENDBRANCH  22  26
ENDBRANCH   2  22
TORSDOF 15
ENDMDL
MODEL 8
REMARK VINA RESULT:      -6.4     15.058     18.651
REMARK  15 active torsions:
REMARK  status: ('A' for Active; 'I' for Inactive)
REMARK    1  A    between atoms: C_1  and  C_2 
REMARK    2  A    between atoms: C_1  and  C_20 
REMARK    3  A    between atoms: C_1  and  N_32 
REMARK       I    between atoms: C_2  and  N_3 
REMARK    4  A    between atoms: N_3  and  C_12 
REMARK    5  A    between atoms: C_6  and  C_7 
REMARK    6  A    between atoms: C_7  and  C_8 
REMARK    7  A    between atoms: C_7  and  N_17 
REMARK    8  A    between atoms: C_8  and  O_29 
REMARK       I    between atoms: C_9  and  N_10 
REMARK       I    between atoms: C_9  and  N_30 
REMARK    9  A    between atoms: N_10  and  C_18 
REMARK   10  A    between atoms: C_11  and  C_12 
REMARK   11  A    between atoms: C_12  and  C_13 
REMARK   12  A    between atoms: C_13  and  C_14 
REMARK   13  A    between atoms: C_14  and  N_17 
REMARK   14  A    between atoms: C_18  and  C_19 
REMARK   15  A    between atoms: C_19  and  C_20 
ROOT
HETATM    1  C           1     -21.006  -6.071  -6.136  0.00  0.00     0.249 C 
HETATM    2  N           1     -20.607  -7.380  -6.147  0.00  0.00    -0.345 N 
HETATM    3  O           1     -21.022  -5.454  -5.097  0.00  0.00    -0.271 OA
HETATM    4  H           1     -20.593  -7.898  -7.017  0.00  0.00     0.163 HD
ENDROOT
BRANCH   1   5
HETATM    5  C           1     -21.428  -5.400  -7.420  0.00  0.00     0.274 C 
BRANCH   5   6
HETATM    6  C           1     -20.200  -5.133  -8.280  0.00  0.00     0.044 C 
BRANCH   6   7
HETATM    7  C           1     -20.469  -3.946  -9.196  0.00  0.00     0.023 C 
BRANCH   7   8
HETATM    8  C           1     -21.224  -4.419 -10.432  0.00  0.00     0.138 C 
BRANCH   8   9
HETATM    9  N           1     -22.254  -3.432 -10.786  0.00  0.00    -0.227 N 
HETATM   10  C           1     -22.450  -3.128 -11.999  0.00  0.00     0.665 C 
HETATM   11  N           1     -23.336  -2.278 -12.305  0.00  0.00    -0.235 N 
HETATM   12  N           1     -21.740  -3.691 -12.933  0.00  0.00    -0.235 N 
HETATM   13  H           1     -23.909  -1.824 -11.551  0.00  0.00     0.174 HD
HETATM   14  H           1     -23.499  -2.026 -13.311  0.00  0.00     0.174 HD
HETATM   15  H           1     -21.008  -4.393 -12.680  0.00  0.00     0.174 HD
HETATM   16  H           1     -21.901  -3.440 -13.934  0.00  0.00     0.174 HD
HETATM   17  H           1     -22.828  -2.978 -10.032  0.00  0.00     0.177 HD
ENDBRANCH   8   9
ENDBRANCH   7   8
ENDBRANCH   6   7
ENDBRANCH   5   6
BRANCH   5  18
HETATM   18  N           1     -22.109  -4.102  -7.104  0.00  0.00    -0.067 N 
HETATM   19  H           1     -21.463  -3.308  -7.318  0.00  0.00     0.275 HD
HETATM   20  H           1     -22.365  -4.081  -6.092  0.00  0.00     0.275 HD
HETATM   21  H           1     -22.973  -4.012  -7.684  0.00  0.00     0.275 HD
ENDBRANCH   5  18
ENDBRANCH   1   5
BRANCH   2  22
HETATM   22  C           1     -20.202  -8.025  -4.914  0.00  0.00     0.187 C 
BRANCH  22  23
HETATM   23  C           1     -18.947  -8.827  -5.154  0.00  0.00     0.196 C 
HETATM   24  O           1     -18.523  -8.992  -6.318  0.00  0.00    -0.646 OA
HETATM   25  O           1     -18.330  -9.327  -4.188  0.00  0.00    -0.646 OA
ENDBRANCH  22  23
BRANCH  22  26
HETATM   26  C           1     -21.313  -8.952  -4.436  0.00  0.00     0.066 C 
BRANCH  26  27
HETATM   27  C           1     -21.776  -8.519  -3.051  0.00  0.00     0.273 C 
BRANCH  27  28
HETATM   28  N           1     -20.795  -8.909  -2.074  0.00  0.00     0.100 N 
HETATM   29  H           1     -19.860  -8.764  -2.455  0.00  0.00     0.317 HD
BRANCH  28  30
HETATM   30  C           1     -20.977  -8.074  -0.917  0.00  0.00     0.343 C 
BRANCH  30  31
HETATM   31  C           1     -21.308  -8.936   0.277  0.00  0.00     0.209 C 
HETATM   32  O           1     -20.997  -8.556   1.427  0.00  0.00    -0.646 OA
HETATM   33  O           1     -21.893 -10.028   0.116  0.00  0.00    -0.646 OA
ENDBRANCH  30  31
BRANCH  30  34
HETATM   34  C           1     -22.117  -7.097  -1.171  0.00  0.00     0.211 C 
BRANCH  34  35
HETATM   35  O           1     -23.103  -7.263  -0.188  0.00  0.00    -0.398 OA
HETATM   36  H           1     -22.729  -6.973   0.626  0.00  0.00     0.209 HD
ENDBRANCH  34  35
ENDBRANCH  30  34
ENDBRANCH  28  30
ENDBRANCH  27  28
ENDBRANCH  26  27
ENDBRANCH  22  26
ENDBRANCH   2  22
TORSDOF 15
ENDMDL
MODEL 9
REMARK VINA RESULT:      -6.4     13.078     15.453
REMARK  15 active torsions:
REMARK  status: ('A' for Active; 'I' for Inactive)
REMARK    1  A    between atoms: C_1  and  C_2 
REMARK    2  A    between atoms: C_1  and  C_20 
REMARK    3  A    between atoms: C_1  and  N_32 
REMARK       I    between atoms: C_2  and  N_3 
REMARK    4  A    between atoms: N_3  and  C_12 
REMARK    5  A    between atoms: C_6  and  C_7 
REMARK    6  A    between atoms: C_7  and  C_8 
REMARK    7  A    between atoms: C_7  and  N_17 
REMARK    8  A    between atoms: C_8  and  O_29 
REMARK       I    between atoms: C_9  and  N_10 
REMARK       I    between atoms: C_9  and  N_30 
REMARK    9  A    between atoms: N_10  and  C_18 
REMARK   10  A    between atoms: C_11  and  C_12 
REMARK   11  A    between atoms: C_12  and  C_13 
REMARK   12  A    between atoms: C_13  and  C_14 
REMARK   13  A    between atoms: C_14  and  N_17 
REMARK   14  A    between atoms: C_18  and  C_19 
REMARK   15  A    between atoms: C_19  and  C_20 
ROOT
HETATM    1  C           1     -21.164  -6.269  -5.730  0.00  0.00     0.249 C 
HETATM    2  N           1     -21.225  -5.049  -6.348  0.00  0.00    -0.345 N 
HETATM    3  O           1     -21.229  -7.282  -6.385  0.00  0.00    -0.271 OA
HETATM    4  H           1     -21.171  -4.200  -5.799  0.00  0.00     0.163 HD
ENDROOT
BRANCH   1   5
HETATM    5  C           1     -21.018  -6.348  -4.230  0.00  0.00     0.274 C 
BRANCH   5   6
HETATM    6  C           1     -20.440  -7.704  -3.847  0.00  0.00     0.044 C 
BRANCH   6   7
HETATM    7  C           1     -21.441  -8.457  -2.981  0.00  0.00     0.023 C 
BRANCH   7   8
HETATM    8  C           1     -21.429  -9.934  -3.357  0.00  0.00     0.138 C 
BRANCH   8   9
HETATM    9  N           1     -20.954 -10.084  -4.739  0.00  0.00    -0.227 N 
HETATM   10  C           1     -21.367 -11.048  -5.449  0.00  0.00     0.665 C 
HETATM   11  N           1     -20.958 -11.178  -6.640  0.00  0.00    -0.235 N 
HETATM   12  N           1     -22.211 -11.905  -4.954  0.00  0.00    -0.235 N 
HETATM   13  H           1     -20.277 -10.486  -7.039  0.00  0.00     0.174 HD
HETATM   14  H           1     -21.300 -11.977  -7.228  0.00  0.00     0.174 HD
HETATM   15  H           1     -22.549 -11.796  -3.971  0.00  0.00     0.174 HD
HETATM   16  H           1     -22.552 -12.700  -5.539  0.00  0.00     0.174 HD
HETATM   17  H           1     -20.273  -9.392  -5.139  0.00  0.00     0.177 HD
ENDBRANCH   8   9
ENDBRANCH   7   8
ENDBRANCH   6   7
ENDBRANCH   5   6
BRANCH   5  18
HETATM   18  N           1     -22.362  -6.178  -3.587  0.00  0.00    -0.067 N 
HETATM   19  H           1     -22.454  -5.202  -3.224  0.00  0.00     0.275 HD
HETATM   20  H           1     -22.456  -6.854  -2.797  0.00  0.00     0.275 HD
HETATM   21  H           1     -23.111  -6.359  -4.293  0.00  0.00     0.275 HD
ENDBRANCH   5  18
ENDBRANCH   1   5
BRANCH   2  22
HETATM   22  C           1     -21.366  -4.973  -7.789  0.00  0.00     0.187 C 
BRANCH  22  23
HETATM   23  C           1     -20.011  -4.758  -8.416  0.00  0.00     0.196 C 
HETATM   24  O           1     -19.038  -4.427  -7.705  0.00  0.00    -0.646 OA
HETATM   25  O           1     -19.861  -4.911  -9.647  0.00  0.00    -0.646 OA
ENDBRANCH  22  23
BRANCH  22  26
HETATM   26  C           1     -22.283  -3.810  -8.148  0.00  0.00     0.066 C 
BRANCH  26  27
HETATM   27  C           1     -23.430  -4.316  -9.013  0.00  0.00     0.273 C 
BRANCH  27  28
HETATM   28  N           1     -22.944  -4.599 -10.337  0.00  0.00     0.100 N 
HETATM   29  H           1     -23.550  -5.288 -10.781  0.00  0.00     0.317 HD
BRANCH  28  30
HETATM   30  C           1     -22.982  -3.373 -11.088  0.00  0.00     0.343 C 
BRANCH  30  31
HETATM   31  C           1     -24.316  -3.249 -11.782  0.00  0.00     0.209 C 
HETATM   32  O           1     -24.377  -3.284 -13.030  0.00  0.00    -0.646 OA
HETATM   33  O           1     -25.360  -3.114 -11.108  0.00  0.00    -0.646 OA
ENDBRANCH  30  31
BRANCH  30  34
HETATM   34  C           1     -21.867  -3.381 -12.126  0.00  0.00     0.211 C 
BRANCH  34  35
HETATM   35  O           1     -20.689  -2.883 -11.552  0.00  0.00    -0.398 OA
HETATM   36  H           1     -20.271  -3.606 -11.116  0.00  0.00     0.209 HD
ENDBRANCH  34  35
ENDBRANCH  30  34
ENDBRANCH  28  30
ENDBRANCH  27  28
ENDBRANCH  26  27
ENDBRANCH  22  26
ENDBRANCH   2  22
TORSDOF 15
ENDMDL
