MODEL 1
REMARK VINA RESULT:      -8.7      0.000      0.000
REMARK  8 active torsions:
REMARK  status: ('A' for Active; 'I' for Inactive)
REMARK    1  A    between atoms: C_3  and  C_25 
REMARK    2  A    between atoms: C_3  and  C_11 
REMARK    3  A    between atoms: C_5  and  C_30 
REMARK    4  A    between atoms: N_6  and  C_25 
REMARK    5  A    between atoms: N_15  and  C_31 
REMARK       I    between atoms: N_15  and  C_24 
REMARK    6  A    between atoms: C_24  and  C_25 
REMARK    7  A    between atoms: C_26  and  C_31 
REMARK    8  A    between atoms: C_30  and  C_31 
ROOT
HETATM    1  H           1     -22.639  -5.748  -8.284  0.00  0.00     0.163 HD
HETATM    2  N           1     -22.232  -4.824  -8.350  0.00  0.00    -0.344 N 
HETATM    3  O           1     -20.802  -3.323  -7.519  0.00  0.00    -0.271 OA
HETATM    4  C           1     -21.289  -4.426  -7.441  0.00  0.00     0.249 C 
ENDROOT
BRANCH   4   5
HETATM    5  C           1     -20.855  -5.365  -6.343  0.00  0.00     0.278 C 
BRANCH   5   6
HETATM    6  C           1     -22.084  -5.939  -5.649  0.00  0.00     0.083 C 
BRANCH   6   7
HETATM    7  C           1     -21.678  -7.089  -4.783  0.00  0.00    -0.028 A 
HETATM    8  C           1     -21.771  -7.145  -3.365  0.00  0.00    -0.002 A 
HETATM    9  C           1     -22.221  -6.250  -2.377  0.00  0.00     0.014 A 
HETATM   10  C           1     -21.286  -8.393  -2.970  0.00  0.00     0.042 A 
HETATM   11  C           1     -22.172  -6.633  -1.031  0.00  0.00     0.001 A 
HETATM   12  C           1     -21.683  -7.886  -0.666  0.00  0.00     0.002 A 
HETATM   13  C           1     -21.230  -8.793  -1.630  0.00  0.00     0.030 A 
HETATM   14  N           1     -20.916  -9.063  -4.114  0.00  0.00    -0.365 N 
HETATM   15  H           1     -20.512 -10.033  -4.139  0.00  0.00     0.165 HD
HETATM   16  C           1     -21.149  -8.284  -5.216  0.00  0.00     0.096 A 
ENDBRANCH   6   7
ENDBRANCH   5   6
BRANCH   5  17
HETATM   17  N           1     -20.022  -4.617  -5.345  0.00  0.00    -0.066 N 
HETATM   18  H           1     -20.407  -4.769  -4.386  0.00  0.00     0.275 HD
HETATM   19  H           1     -19.038  -4.964  -5.384  0.00  0.00     0.275 HD
HETATM   20  H           1     -20.042  -3.597  -5.570  0.00  0.00     0.275 HD
ENDBRANCH   5  17
ENDBRANCH   4   5
BRANCH   2  21
HETATM   21  C           1     -22.648  -3.921  -9.405  0.00  0.00     0.191 C 
BRANCH  21  22
HETATM   22  C           1     -24.152  -3.951  -9.530  0.00  0.00     0.197 C 
HETATM   23  O           1     -24.812  -2.900  -9.377  0.00  0.00    -0.646 OA
HETATM   24  O           1     -24.737  -5.025  -9.786  0.00  0.00    -0.646 OA
ENDBRANCH  21  22
BRANCH  21  25
HETATM   25  C           1     -22.022  -4.358 -10.723  0.00  0.00     0.094 C 
BRANCH  25  26
HETATM   26  C           1     -22.727  -3.687 -11.859  0.00  0.00     0.028 A 
HETATM   27  C           1     -22.625  -2.350 -12.162  0.00  0.00     0.114 A 
HETATM   28  N           1     -23.424  -2.173 -13.258  0.00  0.00    -0.360 N 
HETATM   29  C           1     -23.968  -3.385 -13.569  0.00  0.00     0.180 A 
HETATM   30  H           1     -23.588  -1.268 -13.766  0.00  0.00     0.166 HD
HETATM   31  N           1     -23.565  -4.321 -12.741  0.00  0.00    -0.354 N 
ATOM     32  HN          1     -23.820  -5.308 -12.751  1.00  0.00     0.166 HD
ENDBRANCH  25  26
ENDBRANCH  21  25
ENDBRANCH   2  21
TORSDOF 8
ENDMDL
MODEL 2
REMARK VINA RESULT:      -8.6      2.663      8.504
REMARK  8 active torsions:
REMARK  status: ('A' for Active; 'I' for Inactive)
REMARK    1  A    between atoms: C_3  and  C_25 
REMARK    2  A    between atoms: C_3  and  C_11 
REMARK    3  A    between atoms: C_5  and  C_30 
REMARK    4  A    between atoms: N_6  and  C_25 
REMARK    5  A    between atoms: N_15  and  C_31 
REMARK       I    between atoms: N_15  and  C_24 
REMARK    6  A    between atoms: C_24  and  C_25 
REMARK    7  A    between atoms: C_26  and  C_31 
REMARK    8  A    between atoms: C_30  and  C_31 
ROOT
HETATM    1  H           1     -20.157  -7.222  -7.060  0.00  0.00     0.163 HD
HETATM    2  N           1     -20.155  -6.804  -6.139  0.00  0.00    -0.344 N 
HETATM    3  O           1     -20.174  -4.942  -4.905  0.00  0.00    -0.271 OA
HETATM    4  C           1     -20.177  -5.442  -6.005  0.00  0.00     0.249 C 
ENDROOT
BRANCH   4   5
HETATM    5  C           1     -20.208  -4.563  -7.232  0.00  0.00     0.278 C 
BRANCH   5   6
HETATM    6  C           1     -20.837  -5.328  -8.389  0.00  0.00     0.083 C 
BRANCH   6   7
HETATM    7  C           1     -22.098  -4.643  -8.814  0.00  0.00    -0.028 A 
HETATM    8  C           1     -22.391  -4.161 -10.120  0.00  0.00    -0.002 A 
HETATM    9  C           1     -21.690  -4.151 -11.341  0.00  0.00     0.014 A 
HETATM   10  C           1     -23.666  -3.596 -10.073  0.00  0.00     0.042 A 
HETATM   11  C           1     -22.288  -3.578 -12.469  0.00  0.00     0.001 A 
HETATM   12  C           1     -23.563  -3.021 -12.393  0.00  0.00     0.002 A 
HETATM   13  C           1     -24.279  -3.019 -11.191  0.00  0.00     0.030 A 
HETATM   14  N           1     -24.122  -3.735  -8.782  0.00  0.00    -0.365 N 
HETATM   15  H           1     -25.057  -3.405  -8.436  0.00  0.00     0.165 HD
HETATM   16  C           1     -23.182  -4.367  -8.012  0.00  0.00     0.096 A 
ENDBRANCH   6   7
ENDBRANCH   5   6
BRANCH   5  17
HETATM   17  N           1     -18.808  -4.167  -7.598  0.00  0.00    -0.066 N 
HETATM   18  H           1     -18.812  -3.201  -7.996  0.00  0.00     0.275 HD
HETATM   19  H           1     -18.207  -4.189  -6.744  0.00  0.00     0.275 HD
HETATM   20  H           1     -18.432  -4.834  -8.309  0.00  0.00     0.275 HD
ENDBRANCH   5  17
ENDBRANCH   4   5
BRANCH   2  21
HETATM   21  C           1     -20.126  -7.647  -4.960  0.00  0.00     0.191 C 
BRANCH  21  22
HETATM   22  C           1     -19.411  -8.937  -5.280  0.00  0.00     0.197 C 
HETATM   23  O           1     -18.524  -8.958  -6.161  0.00  0.00    -0.646 OA
HETATM   24  O           1     -19.707  -9.985  -4.666  0.00  0.00    -0.646 OA
ENDBRANCH  21  22
BRANCH  21  25
HETATM   25  C           1     -21.552  -7.954  -4.520  0.00  0.00     0.094 C 
BRANCH  25  26
HETATM   26  C           1     -21.756  -7.475  -3.117  0.00  0.00     0.028 A 
HETATM   27  C           1     -21.535  -8.233  -1.993  0.00  0.00     0.114 A 
HETATM   28  N           1     -21.844  -7.412  -0.944  0.00  0.00    -0.360 N 
HETATM   29  C           1     -22.232  -6.211  -1.465  0.00  0.00     0.180 A 
HETATM   30  H           1     -21.792  -7.660   0.075  0.00  0.00     0.166 HD
HETATM   31  N           1     -22.188  -6.218  -2.777  0.00  0.00    -0.354 N 
ATOM     32  HN          1     -22.425  -5.454  -3.409  1.00  0.00     0.166 HD
ENDBRANCH  25  26
ENDBRANCH  21  25
ENDBRANCH   2  21
TORSDOF 8
ENDMDL
MODEL 3
REMARK VINA RESULT:      -8.1      2.706      8.748
REMARK  8 active torsions:
REMARK  status: ('A' for Active; 'I' for Inactive)
REMARK    1  A    between atoms: C_3  and  C_25 
REMARK    2  A    between atoms: C_3  and  C_11 
REMARK    3  A    between atoms: C_5  and  C_30 
REMARK    4  A    between atoms: N_6  and  C_25 
REMARK    5  A    between atoms: N_15  and  C_31 
REMARK       I    between atoms: N_15  and  C_24 
REMARK    6  A    between atoms: C_24  and  C_25 
REMARK    7  A    between atoms: C_26  and  C_31 
REMARK    8  A    between atoms: C_30  and  C_31 
ROOT
HETATM    1  H           1     -20.954  -7.841  -6.488  0.00  0.00     0.163 HD
HETATM    2  N           1     -20.978  -7.410  -5.573  0.00  0.00    -0.344 N 
HETATM    3  O           1     -21.632  -5.688  -4.309  0.00  0.00    -0.271 OA
HETATM    4  C           1     -21.602  -6.203  -5.401  0.00  0.00     0.249 C 
ENDROOT
BRANCH   4   5
HETATM    5  C           1     -22.254  -5.517  -6.577  0.00  0.00     0.278 C 
BRANCH   5   6
HETATM    6  C           1     -21.427  -4.304  -6.981  0.00  0.00     0.083 C 
BRANCH   6   7
HETATM    7  C           1     -21.195  -4.327  -8.458  0.00  0.00    -0.028 A 
HETATM    8  C           1     -22.148  -4.000  -9.463  0.00  0.00    -0.002 A 
HETATM    9  C           1     -23.493  -3.588  -9.439  0.00  0.00     0.014 A 
HETATM   10  C           1     -21.514  -4.155 -10.696  0.00  0.00     0.042 A 
HETATM   11  C           1     -24.156  -3.344 -10.648  0.00  0.00     0.001 A 
HETATM   12  C           1     -23.498  -3.506 -11.865  0.00  0.00     0.002 A 
HETATM   13  C           1     -22.162  -3.916 -11.914  0.00  0.00     0.030 A 
HETATM   14  N           1     -20.224  -4.560 -10.440  0.00  0.00    -0.365 N 
HETATM   15  H           1     -19.499  -4.759 -11.174  0.00  0.00     0.165 HD
HETATM   16  C           1     -20.020  -4.668  -9.090  0.00  0.00     0.096 A 
ENDBRANCH   6   7
ENDBRANCH   5   6
BRANCH   5  17
HETATM   17  N           1     -23.635  -5.075  -6.194  0.00  0.00    -0.066 N 
HETATM   18  H           1     -24.320  -5.415  -6.906  0.00  0.00     0.275 HD
HETATM   19  H           1     -23.880  -5.470  -5.259  0.00  0.00     0.275 HD
HETATM   20  H           1     -23.668  -4.031  -6.151  0.00  0.00     0.275 HD
ENDBRANCH   5  17
ENDBRANCH   4   5
BRANCH   2  21
HETATM   21  C           1     -20.352  -8.069  -4.443  0.00  0.00     0.191 C 
BRANCH  21  22
HETATM   22  C           1     -19.093  -8.763  -4.899  0.00  0.00     0.197 C 
HETATM   23  O           1     -18.861  -8.898  -6.120  0.00  0.00    -0.646 OA
HETATM   24  O           1     -18.282  -9.204  -4.057  0.00  0.00    -0.646 OA
ENDBRANCH  21  22
BRANCH  21  25
HETATM   25  C           1     -21.314  -9.096  -3.858  0.00  0.00     0.094 C 
BRANCH  25  26
HETATM   26  C           1     -21.655  -8.716  -2.452  0.00  0.00     0.028 A 
HETATM   27  C           1     -22.049  -9.601  -1.477  0.00  0.00     0.114 A 
HETATM   28  N           1     -22.254  -8.835  -0.364  0.00  0.00    -0.360 N 
HETATM   29  C           1     -21.982  -7.540  -0.701  0.00  0.00     0.180 A 
HETATM   30  H           1     -22.565  -9.180   0.579  0.00  0.00     0.166 HD
HETATM   31  N           1     -21.616  -7.437  -1.958  0.00  0.00    -0.354 N 
ATOM     32  HN          1     -21.358  -6.588  -2.459  1.00  0.00     0.166 HD
ENDBRANCH  25  26
ENDBRANCH  21  25
ENDBRANCH   2  21
TORSDOF 8
ENDMDL
MODEL 4
REMARK VINA RESULT:      -8.0      2.666      8.337
REMARK  8 active torsions:
REMARK  status: ('A' for Active; 'I' for Inactive)
REMARK    1  A    between atoms: C_3  and  C_25 
REMARK    2  A    between atoms: C_3  and  C_11 
REMARK    3  A    between atoms: C_5  and  C_30 
REMARK    4  A    between atoms: N_6  and  C_25 
REMARK    5  A    between atoms: N_15  and  C_31 
REMARK       I    between atoms: N_15  and  C_24 
REMARK    6  A    between atoms: C_24  and  C_25 
REMARK    7  A    between atoms: C_26  and  C_31 
REMARK    8  A    between atoms: C_30  and  C_31 
ROOT
HETATM    1  H           1     -19.948  -6.289  -4.016  0.00  0.00     0.163 HD
HETATM    2  N           1     -20.915  -6.577  -4.078  0.00  0.00    -0.344 N 
HETATM    3  O           1     -22.888  -6.374  -5.106  0.00  0.00    -0.271 OA
HETATM    4  C           1     -21.732  -6.031  -5.031  0.00  0.00     0.249 C 
ENDROOT
BRANCH   4   5
HETATM    5  C           1     -21.188  -5.001  -5.991  0.00  0.00     0.278 C 
BRANCH   5   6
HETATM    6  C           1     -21.238  -5.552  -7.410  0.00  0.00     0.083 C 
BRANCH   6   7
HETATM    7  C           1     -22.200  -4.747  -8.226  0.00  0.00    -0.028 A 
HETATM    8  C           1     -21.990  -4.282  -9.554  0.00  0.00    -0.002 A 
HETATM    9  C           1     -20.931  -4.394 -10.474  0.00  0.00     0.014 A 
HETATM   10  C           1     -23.134  -3.577  -9.928  0.00  0.00     0.042 A 
HETATM   11  C           1     -21.055  -3.799 -11.735  0.00  0.00     0.001 A 
HETATM   12  C           1     -22.209  -3.101 -12.083  0.00  0.00     0.002 A 
HETATM   13  C           1     -23.274  -2.976 -11.185  0.00  0.00     0.030 A 
HETATM   14  N           1     -24.002  -3.618  -8.860  0.00  0.00    -0.365 N 
HETATM   15  H           1     -24.953  -3.173  -8.841  0.00  0.00     0.165 HD
HETATM   16  C           1     -23.447  -4.323  -7.825  0.00  0.00     0.096 A 
ENDBRANCH   6   7
ENDBRANCH   5   6
BRANCH   5  17
HETATM   17  N           1     -19.769  -4.681  -5.628  0.00  0.00    -0.066 N 
HETATM   18  H           1     -19.544  -5.099  -4.697  0.00  0.00     0.275 HD
HETATM   19  H           1     -19.127  -5.077  -6.351  0.00  0.00     0.275 HD
HETATM   20  H           1     -19.646  -3.644  -5.582  0.00  0.00     0.275 HD
ENDBRANCH   5  17
ENDBRANCH   4   5
BRANCH   2  21
HETATM   21  C           1     -21.438  -7.567  -3.157  0.00  0.00     0.191 C 
BRANCH  21  22
HETATM   22  C           1     -21.939  -6.880  -1.910  0.00  0.00     0.197 C 
HETATM   23  O           1     -22.117  -5.643  -1.907  0.00  0.00    -0.646 OA
HETATM   24  O           1     -22.175  -7.548  -0.880  0.00  0.00    -0.646 OA
ENDBRANCH  21  22
BRANCH  21  25
HETATM   25  C           1     -20.333  -8.549  -2.786  0.00  0.00     0.094 C 
BRANCH  25  26
HETATM   26  C           1     -19.819  -9.212  -4.024  0.00  0.00     0.028 A 
HETATM   27  C           1     -20.584  -9.961  -4.886  0.00  0.00     0.114 A 
HETATM   28  N           1     -19.722 -10.369  -5.864  0.00  0.00    -0.360 N 
HETATM   29  C           1     -18.490  -9.862  -5.563  0.00  0.00     0.180 A 
HETATM   30  H           1     -19.962 -10.964  -6.696  0.00  0.00     0.166 HD
HETATM   31  N           1     -18.518  -9.157  -4.455  0.00  0.00    -0.354 N 
ATOM     32  HN          1     -17.739  -8.672  -4.011  1.00  0.00     0.166 HD
ENDBRANCH  25  26
ENDBRANCH  21  25
ENDBRANCH   2  21
TORSDOF 8
ENDMDL
MODEL 5
REMARK VINA RESULT:      -8.0      1.918      3.158
REMARK  8 active torsions:
REMARK  status: ('A' for Active; 'I' for Inactive)
REMARK    1  A    between atoms: C_3  and  C_25 
REMARK    2  A    between atoms: C_3  and  C_11 
REMARK    3  A    between atoms: C_5  and  C_30 
REMARK    4  A    between atoms: N_6  and  C_25 
REMARK    5  A    between atoms: N_15  and  C_31 
REMARK       I    between atoms: N_15  and  C_24 
REMARK    6  A    between atoms: C_24  and  C_25 
REMARK    7  A    between atoms: C_26  and  C_31 
REMARK    8  A    between atoms: C_30  and  C_31 
ROOT
HETATM    1  H           1     -22.805  -5.793  -6.499  0.00  0.00     0.163 HD
HETATM    2  N           1     -21.896  -5.859  -6.937  0.00  0.00    -0.344 N 
HETATM    3  O           1     -19.883  -6.826  -6.982  0.00  0.00    -0.271 OA
HETATM    4  C           1     -20.969  -6.746  -6.460  0.00  0.00     0.249 C 
ENDROOT
BRANCH   4   5
HETATM    5  C           1     -21.304  -7.626  -5.280  0.00  0.00     0.278 C 
BRANCH   5   6
HETATM    6  C           1     -20.337  -7.338  -4.140  0.00  0.00     0.083 C 
BRANCH   6   7
HETATM    7  C           1     -21.105  -7.112  -2.876  0.00  0.00    -0.028 A 
HETATM    8  C           1     -21.164  -7.994  -1.761  0.00  0.00    -0.002 A 
HETATM    9  C           1     -20.593  -9.247  -1.472  0.00  0.00     0.014 A 
HETATM   10  C           1     -21.989  -7.396  -0.808  0.00  0.00     0.042 A 
HETATM   11  C           1     -20.866  -9.857  -0.242  0.00  0.00     0.001 A 
HETATM   12  C           1     -21.694  -9.237   0.691  0.00  0.00     0.002 A 
HETATM   13  C           1     -22.273  -7.992   0.427  0.00  0.00     0.030 A 
HETATM   14  N           1     -22.411  -6.195  -1.334  0.00  0.00    -0.365 N 
HETATM   15  H           1     -23.047  -5.516  -0.846  0.00  0.00     0.165 HD
HETATM   16  C           1     -21.882  -6.014  -2.584  0.00  0.00     0.096 A 
ENDBRANCH   6   7
ENDBRANCH   5   6
BRANCH   5  17
HETATM   17  N           1     -21.189  -9.066  -5.681  0.00  0.00    -0.066 N 
HETATM   18  H           1     -20.185  -9.354  -5.664  0.00  0.00     0.275 HD
HETATM   19  H           1     -21.732  -9.658  -5.014  0.00  0.00     0.275 HD
HETATM   20  H           1     -21.570  -9.190  -6.647  0.00  0.00     0.275 HD
ENDBRANCH   5  17
ENDBRANCH   4   5
BRANCH   2  21
HETATM   21  C           1     -21.574  -5.015  -8.071  0.00  0.00     0.191 C 
BRANCH  21  22
HETATM   22  C           1     -20.742  -3.845  -7.608  0.00  0.00     0.197 C 
HETATM   23  O           1     -19.607  -3.653  -8.097  0.00  0.00    -0.646 OA
HETATM   24  O           1     -21.186  -3.068  -6.736  0.00  0.00    -0.646 OA
ENDBRANCH  21  22
BRANCH  21  25
HETATM   25  C           1     -22.862  -4.503  -8.704  0.00  0.00     0.094 C 
BRANCH  25  26
HETATM   26  C           1     -22.657  -4.320 -10.175  0.00  0.00     0.028 A 
HETATM   27  C           1     -23.499  -4.804 -11.148  0.00  0.00     0.114 A 
HETATM   28  N           1     -22.938  -4.412 -12.331  0.00  0.00    -0.360 N 
HETATM   29  C           1     -21.798  -3.720 -12.035  0.00  0.00     0.180 A 
HETATM   30  H           1     -23.314  -4.608 -13.292  0.00  0.00     0.166 HD
HETATM   31  N           1     -21.603  -3.648 -10.738  0.00  0.00    -0.354 N 
ATOM     32  HN          1     -20.832  -3.189 -10.254  1.00  0.00     0.166 HD
ENDBRANCH  25  26
ENDBRANCH  21  25
ENDBRANCH   2  21
TORSDOF 8
ENDMDL
MODEL 6
REMARK VINA RESULT:      -7.8      2.296      3.284
REMARK  8 active torsions:
REMARK  status: ('A' for Active; 'I' for Inactive)
REMARK    1  A    between atoms: C_3  and  C_25 
REMARK    2  A    between atoms: C_3  and  C_11 
REMARK    3  A    between atoms: C_5  and  C_30 
REMARK    4  A    between atoms: N_6  and  C_25 
REMARK    5  A    between atoms: N_15  and  C_31 
REMARK       I    between atoms: N_15  and  C_24 
REMARK    6  A    between atoms: C_24  and  C_25 
REMARK    7  A    between atoms: C_26  and  C_31 
REMARK    8  A    between atoms: C_30  and  C_31 
ROOT
HETATM    1  H           1     -21.441  -4.695  -5.411  0.00  0.00     0.163 HD
HETATM    2  N           1     -21.390  -5.434  -6.100  0.00  0.00    -0.344 N 
HETATM    3  O           1     -21.189  -7.619  -6.519  0.00  0.00    -0.271 OA
HETATM    4  C           1     -21.251  -6.736  -5.698  0.00  0.00     0.249 C 
ENDROOT
BRANCH   4   5
HETATM    5  C           1     -21.176  -7.067  -4.227  0.00  0.00     0.278 C 
BRANCH   5   6
HETATM    6  C           1     -21.986  -8.326  -3.947  0.00  0.00     0.083 C 
BRANCH   6   7
HETATM    7  C           1     -21.338  -9.102  -2.844  0.00  0.00    -0.028 A 
HETATM    8  C           1     -21.474  -8.853  -1.451  0.00  0.00    -0.002 A 
HETATM    9  C           1     -22.179  -7.901  -0.690  0.00  0.00     0.014 A 
HETATM   10  C           1     -20.705  -9.808  -0.785  0.00  0.00     0.042 A 
HETATM   11  C           1     -22.091  -7.940   0.707  0.00  0.00     0.001 A 
HETATM   12  C           1     -21.316  -8.906   1.344  0.00  0.00     0.002 A 
HETATM   13  C           1     -20.606  -9.861   0.610  0.00  0.00     0.030 A 
HETATM   14  N           1     -20.128 -10.605  -1.748  0.00  0.00    -0.365 N 
HETATM   15  H           1     -19.490 -11.417  -1.554  0.00  0.00     0.165 HD
HETATM   16  C           1     -20.504 -10.187  -2.997  0.00  0.00     0.096 A 
ENDBRANCH   6   7
ENDBRANCH   5   6
BRANCH   5  17
HETATM   17  N           1     -21.734  -5.926  -3.429  0.00  0.00    -0.066 N 
HETATM   18  H           1     -20.984  -5.526  -2.821  0.00  0.00     0.275 HD
HETATM   19  H           1     -22.086  -5.187  -4.078  0.00  0.00     0.275 HD
HETATM   20  H           1     -22.520  -6.270  -2.832  0.00  0.00     0.275 HD
ENDBRANCH   5  17
ENDBRANCH   4   5
BRANCH   2  21
HETATM   21  C           1     -21.462  -5.117  -7.513  0.00  0.00     0.191 C 
BRANCH  21  22
HETATM   22  C           1     -20.078  -4.811  -8.032  0.00  0.00     0.197 C 
HETATM   23  O           1     -19.161  -4.524  -7.233  0.00  0.00    -0.646 OA
HETATM   24  O           1     -19.850  -4.845  -9.260  0.00  0.00    -0.646 OA
ENDBRANCH  21  22
BRANCH  21  25
HETATM   25  C           1     -22.359  -3.902  -7.714  0.00  0.00     0.094 C 
BRANCH  25  26
HETATM   26  C           1     -23.162  -4.076  -8.964  0.00  0.00     0.028 A 
HETATM   27  C           1     -24.304  -3.371  -9.264  0.00  0.00     0.114 A 
HETATM   28  N           1     -24.702  -3.844 -10.484  0.00  0.00    -0.360 N 
HETATM   29  C           1     -23.804  -4.798 -10.867  0.00  0.00     0.180 A 
HETATM   30  H           1     -25.545  -3.530 -11.026  0.00  0.00     0.166 HD
HETATM   31  N           1     -22.860  -4.960  -9.968  0.00  0.00    -0.354 N 
ATOM     32  HN          1     -22.072  -5.605 -10.009  1.00  0.00     0.166 HD
ENDBRANCH  25  26
ENDBRANCH  21  25
ENDBRANCH   2  21
TORSDOF 8
ENDMDL
MODEL 7
REMARK VINA RESULT:      -7.8      3.249      8.601
REMARK  8 active torsions:
REMARK  status: ('A' for Active; 'I' for Inactive)
REMARK    1  A    between atoms: C_3  and  C_25 
REMARK    2  A    between atoms: C_3  and  C_11 
REMARK    3  A    between atoms: C_5  and  C_30 
REMARK    4  A    between atoms: N_6  and  C_25 
REMARK    5  A    between atoms: N_15  and  C_31 
REMARK       I    between atoms: N_15  and  C_24 
REMARK    6  A    between atoms: C_24  and  C_25 
REMARK    7  A    between atoms: C_26  and  C_31 
REMARK    8  A    between atoms: C_30  and  C_31 
ROOT
HETATM    1  H           1     -19.542  -6.682  -4.093  0.00  0.00     0.163 HD
HETATM    2  N           1     -20.023  -7.408  -4.609  0.00  0.00    -0.344 N 
HETATM    3  O           1     -21.421  -7.940  -6.268  0.00  0.00    -0.271 OA
HETATM    4  C           1     -20.846  -7.075  -5.651  0.00  0.00     0.249 C 
ENDROOT
BRANCH   4   5
HETATM    5  C           1     -21.035  -5.627  -6.031  0.00  0.00     0.278 C 
BRANCH   5   6
HETATM    6  C           1     -20.780  -5.455  -7.523  0.00  0.00     0.083 C 
BRANCH   6   7
HETATM    7  C           1     -21.947  -4.761  -8.153  0.00  0.00    -0.028 A 
HETATM    8  C           1     -22.017  -4.286  -9.492  0.00  0.00    -0.002 A 
HETATM    9  C           1     -21.126  -4.292 -10.581  0.00  0.00     0.014 A 
HETATM   10  C           1     -23.276  -3.708  -9.657  0.00  0.00     0.042 A 
HETATM   11  C           1     -21.525  -3.722 -11.796  0.00  0.00     0.001 A 
HETATM   12  C           1     -22.789  -3.152 -11.932  0.00  0.00     0.002 A 
HETATM   13  C           1     -23.692  -3.133 -10.864  0.00  0.00     0.030 A 
HETATM   14  N           1     -23.939  -3.833  -8.457  0.00  0.00    -0.365 N 
HETATM   15  H           1     -24.914  -3.491  -8.270  0.00  0.00     0.165 HD
HETATM   16  C           1     -23.144  -4.468  -7.540  0.00  0.00     0.096 A 
ENDBRANCH   6   7
ENDBRANCH   5   6
BRANCH   5  17
HETATM   17  N           1     -20.069  -4.778  -5.259  0.00  0.00    -0.066 N 
HETATM   18  H           1     -19.468  -5.389  -4.661  0.00  0.00     0.275 HD
HETATM   19  H           1     -19.468  -4.242  -5.923  0.00  0.00     0.275 HD
HETATM   20  H           1     -20.599  -4.112  -4.652  0.00  0.00     0.275 HD
ENDBRANCH   5  17
ENDBRANCH   4   5
BRANCH   2  21
HETATM   21  C           1     -19.842  -8.799  -4.244  0.00  0.00     0.191 C 
BRANCH  21  22
HETATM   22  C           1     -19.557  -8.900  -2.766  0.00  0.00     0.197 C 
HETATM   23  O           1     -20.227  -8.227  -1.953  0.00  0.00    -0.646 OA
HETATM   24  O           1     -18.650  -9.655  -2.354  0.00  0.00    -0.646 OA
ENDBRANCH  21  22
BRANCH  21  25
HETATM   25  C           1     -18.671  -9.380  -5.027  0.00  0.00     0.094 C 
BRANCH  25  26
HETATM   26  C           1     -19.081 -10.679  -5.648  0.00  0.00     0.028 A 
HETATM   27  C           1     -18.352 -11.841  -5.583  0.00  0.00     0.114 A 
HETATM   28  N           1     -19.088 -12.762  -6.276  0.00  0.00    -0.360 N 
HETATM   29  C           1     -20.213 -12.132  -6.726  0.00  0.00     0.180 A 
HETATM   30  H           1     -18.834 -13.769  -6.433  0.00  0.00     0.166 HD
HETATM   31  N           1     -20.237 -10.871  -6.361  0.00  0.00    -0.354 N 
ATOM     32  HN          1     -20.961 -10.182  -6.564  1.00  0.00     0.166 HD
ENDBRANCH  25  26
ENDBRANCH  21  25
ENDBRANCH   2  21
TORSDOF 8
ENDMDL
MODEL 8
REMARK VINA RESULT:      -7.8      2.969      8.714
REMARK  8 active torsions:
REMARK  status: ('A' for Active; 'I' for Inactive)
REMARK    1  A    between atoms: C_3  and  C_25 
REMARK    2  A    between atoms: C_3  and  C_11 
REMARK    3  A    between atoms: C_5  and  C_30 
REMARK    4  A    between atoms: N_6  and  C_25 
REMARK    5  A    between atoms: N_15  and  C_31 
REMARK       I    between atoms: N_15  and  C_24 
REMARK    6  A    between atoms: C_24  and  C_25 
REMARK    7  A    between atoms: C_26  and  C_31 
REMARK    8  A    between atoms: C_30  and  C_31 
ROOT
HETATM    1  H           1     -21.279  -8.419  -4.048  0.00  0.00     0.163 HD
HETATM    2  N           1     -20.506  -8.364  -4.697  0.00  0.00    -0.344 N 
HETATM    3  O           1     -19.531  -7.284  -6.392  0.00  0.00    -0.271 OA
HETATM    4  C           1     -20.455  -7.351  -5.617  0.00  0.00     0.249 C 
ENDROOT
BRANCH   4   5
HETATM    5  C           1     -21.552  -6.316  -5.660  0.00  0.00     0.278 C 
BRANCH   5   6
HETATM    6  C           1     -21.022  -5.039  -6.299  0.00  0.00     0.083 C 
BRANCH   6   7
HETATM    7  C           1     -21.960  -4.592  -7.376  0.00  0.00    -0.028 A 
HETATM    8  C           1     -21.610  -4.290  -8.721  0.00  0.00    -0.002 A 
HETATM    9  C           1     -20.403  -4.300  -9.445  0.00  0.00     0.014 A 
HETATM   10  C           1     -22.783  -3.916  -9.377  0.00  0.00     0.042 A 
HETATM   11  C           1     -20.411  -3.937 -10.796  0.00  0.00     0.001 A 
HETATM   12  C           1     -21.598  -3.567 -11.426  0.00  0.00     0.002 A 
HETATM   13  C           1     -22.810  -3.549 -10.728  0.00  0.00     0.030 A 
HETATM   14  N           1     -23.803  -3.990  -8.455  0.00  0.00    -0.365 N 
HETATM   15  H           1     -24.810  -3.766  -8.654  0.00  0.00     0.165 HD
HETATM   16  C           1     -23.316  -4.398  -7.242  0.00  0.00     0.096 A 
ENDBRANCH   6   7
ENDBRANCH   5   6
BRANCH   5  17
HETATM   17  N           1     -22.017  -6.021  -4.265  0.00  0.00    -0.066 N 
HETATM   18  H           1     -22.361  -5.036  -4.213  0.00  0.00     0.275 HD
HETATM   19  H           1     -22.791  -6.674  -4.011  0.00  0.00     0.275 HD
HETATM   20  H           1     -21.220  -6.147  -3.599  0.00  0.00     0.275 HD
ENDBRANCH   5  17
ENDBRANCH   4   5
BRANCH   2  21
HETATM   21  C           1     -19.451  -9.358  -4.655  0.00  0.00     0.191 C 
BRANCH  21  22
HETATM   22  C           1     -19.925 -10.625  -5.323  0.00  0.00     0.197 C 
HETATM   23  O           1     -19.432 -10.977  -6.417  0.00  0.00    -0.646 OA
HETATM   24  O           1     -20.811 -11.322  -4.784  0.00  0.00    -0.646 OA
ENDBRANCH  21  22
BRANCH  21  25
HETATM   25  C           1     -19.090  -9.654  -3.205  0.00  0.00     0.094 C 
BRANCH  25  26
HETATM   26  C           1     -20.220  -9.240  -2.315  0.00  0.00     0.028 A 
HETATM   27  C           1     -20.304  -8.030  -1.669  0.00  0.00     0.114 A 
HETATM   28  N           1     -21.481  -8.078  -0.977  0.00  0.00    -0.360 N 
HETATM   29  C           1     -22.054  -9.292  -1.225  0.00  0.00     0.180 A 
HETATM   30  H           1     -21.873  -7.319  -0.366  0.00  0.00     0.166 HD
HETATM   31  N           1     -21.314 -10.017  -2.032  0.00  0.00    -0.354 N 
ATOM     32  HN          1     -21.511 -10.957  -2.375  1.00  0.00     0.166 HD
ENDBRANCH  25  26
ENDBRANCH  21  25
ENDBRANCH   2  21
TORSDOF 8
ENDMDL
MODEL 9
REMARK VINA RESULT:      -7.3      3.965      5.841
REMARK  8 active torsions:
REMARK  status: ('A' for Active; 'I' for Inactive)
REMARK    1  A    between atoms: C_3  and  C_25 
REMARK    2  A    between atoms: C_3  and  C_11 
REMARK    3  A    between atoms: C_5  and  C_30 
REMARK    4  A    between atoms: N_6  and  C_25 
REMARK    5  A    between atoms: N_15  and  C_31 
REMARK       I    between atoms: N_15  and  C_24 
REMARK    6  A    between atoms: C_24  and  C_25 
REMARK    7  A    between atoms: C_26  and  C_31 
REMARK    8  A    between atoms: C_30  and  C_31 
ROOT
HETATM    1  H           1     -22.630  -8.879  -4.132  0.00  0.00     0.163 HD
HETATM    2  N           1     -21.742  -8.539  -4.477  0.00  0.00    -0.344 N 
HETATM    3  O           1     -19.806  -8.996  -5.493  0.00  0.00    -0.271 OA
HETATM    4  C           1     -20.867  -9.401  -5.080  0.00  0.00     0.249 C 
ENDROOT
BRANCH   4   5
HETATM    5  C           1     -21.227 -10.859  -5.232  0.00  0.00     0.278 C 
BRANCH   5   6
HETATM    6  C           1     -20.436 -11.686  -4.226  0.00  0.00     0.083 C 
BRANCH   6   7
HETATM    7  C           1     -20.622 -11.117  -2.855  0.00  0.00    -0.028 A 
HETATM    8  C           1     -21.824 -11.140  -2.093  0.00  0.00    -0.002 A 
HETATM    9  C           1     -23.118 -11.642  -2.321  0.00  0.00     0.014 A 
HETATM   10  C           1     -21.554 -10.504  -0.881  0.00  0.00     0.042 A 
HETATM   11  C           1     -24.096 -11.492  -1.330  0.00  0.00     0.001 A 
HETATM   12  C           1     -23.798 -10.852  -0.129  0.00  0.00     0.002 A 
HETATM   13  C           1     -22.519 -10.344   0.120  0.00  0.00     0.030 A 
HETATM   14  N           1     -20.234 -10.112  -0.915  0.00  0.00    -0.365 N 
HETATM   15  H           1     -19.738  -9.605  -0.141  0.00  0.00     0.165 HD
HETATM   16  C           1     -19.662 -10.478  -2.104  0.00  0.00     0.096 A 
ENDBRANCH   6   7
ENDBRANCH   5   6
BRANCH   5  17
HETATM   17  N           1     -20.897 -11.314  -6.622  0.00  0.00    -0.066 N 
HETATM   18  H           1     -21.096 -10.542  -7.298  0.00  0.00     0.275 HD
HETATM   19  H           1     -19.886 -11.569  -6.674  0.00  0.00     0.275 HD
HETATM   20  H           1     -21.481 -12.147  -6.864  0.00  0.00     0.275 HD
ENDBRANCH   5  17
ENDBRANCH   4   5
BRANCH   2  21
HETATM   21  C           1     -21.396  -7.139  -4.332  0.00  0.00     0.191 C 
BRANCH  21  22
HETATM   22  C           1     -21.555  -6.727  -2.889  0.00  0.00     0.197 C 
HETATM   23  O           1     -20.813  -7.221  -2.013  0.00  0.00    -0.646 OA
HETATM   24  O           1     -22.428  -5.892  -2.570  0.00  0.00    -0.646 OA
ENDBRANCH  21  22
BRANCH  21  25
HETATM   25  C           1     -22.318  -6.295  -5.204  0.00  0.00     0.094 C 
BRANCH  25  26
HETATM   26  C           1     -21.538  -5.722  -6.346  0.00  0.00     0.028 A 
HETATM   27  C           1     -21.822  -4.528  -6.964  0.00  0.00     0.114 A 
HETATM   28  N           1     -20.870  -4.397  -7.937  0.00  0.00    -0.360 N 
HETATM   29  C           1     -20.063  -5.497  -7.872  0.00  0.00     0.180 A 
HETATM   30  H           1     -20.778  -3.598  -8.612  0.00  0.00     0.166 HD
HETATM   31  N           1     -20.442  -6.315  -6.918  0.00  0.00    -0.354 N 
ATOM     32  HN          1     -20.013  -7.203  -6.658  1.00  0.00     0.166 HD
ENDBRANCH  25  26
ENDBRANCH  21  25
ENDBRANCH   2  21
TORSDOF 8
ENDMDL
