MODEL 1
REMARK VINA RESULT:      -5.8      0.000      0.000
REMARK  8 active torsions:
REMARK  status: ('A' for Active; 'I' for Inactive)
REMARK    1  A    between atoms: N_2  and  C_11 
REMARK       I    between atoms: N_2  and  C_14 
REMARK       I    between atoms: N_5  and  C_18 
REMARK    2  A    between atoms: C_6  and  C_18 
REMARK    3  A    between atoms: C_6  and  C_11 
REMARK    4  A    between atoms: O_7  and  C_12 
REMARK    5  A    between atoms: N_9  and  C_13 
REMARK    6  A    between atoms: C_11  and  C_20 
REMARK    7  A    between atoms: C_12  and  C_13 
REMARK    8  A    between atoms: C_13  and  C_14 
ROOT
HETATM    1  N           1     -35.922  -1.140 -13.251  0.00  0.00    -0.344 N 
HETATM    2  O           1     -34.503   0.391 -14.044  0.00  0.00    -0.271 OA
HETATM    3  C           1     -35.550  -0.198 -14.172  0.00  0.00     0.251 C 
HETATM    4  H           1     -36.799  -1.633 -13.358  0.00  0.00     0.163 HD
ENDROOT
BRANCH   1   5
HETATM    5  C           1     -35.061  -1.428 -12.120  0.00  0.00     0.194 C 
BRANCH   5   6
HETATM    6  C           1     -35.914  -1.681 -10.884  0.00  0.00     0.138 C 
BRANCH   6   7
HETATM    7  C           1     -36.958  -0.598 -10.763  0.00  0.00     0.217 C 
HETATM    8  O           1     -38.075  -0.785 -11.183  0.00  0.00    -0.274 OA
HETATM    9  N           1     -36.639   0.598 -10.176  0.00  0.00    -0.370 N 
HETATM   10  H           1     -35.703   0.755  -9.824  0.00  0.00     0.159 HD
HETATM   11  H           1     -37.338   1.324 -10.095  0.00  0.00     0.159 HD
ENDBRANCH   6   7
ENDBRANCH   5   6
BRANCH   5  12
HETATM   12  C           1     -34.234  -2.655 -12.420  0.00  0.00     0.197 C 
HETATM   13  O           1     -34.402  -3.276 -13.491  0.00  0.00    -0.646 OA
HETATM   14  O           1     -33.381  -3.049 -11.596  0.00  0.00    -0.646 OA
ENDBRANCH   5  12
ENDBRANCH   1   5
BRANCH   3  15
HETATM   15  C           1     -36.445   0.103 -15.348  0.00  0.00     0.297 C 
BRANCH  15  16
HETATM   16  N           1     -36.235   1.523 -15.785  0.00  0.00    -0.064 N 
HETATM   17  H           1     -36.347   2.160 -14.966  0.00  0.00     0.275 HD
HETATM   18  H           1     -35.272   1.627 -16.178  0.00  0.00     0.275 HD
HETATM   19  H           1     -36.939   1.768 -16.518  0.00  0.00     0.275 HD
ENDBRANCH  15  16
BRANCH  15  20
HETATM   20  C           1     -36.109  -0.837 -16.498  0.00  0.00     0.206 C 
BRANCH  20  21
HETATM   21  O           1     -35.227  -1.830 -16.048  0.00  0.00    -0.398 OA
HETATM   22  H           1     -35.565  -2.146 -15.227  0.00  0.00     0.209 HD
ENDBRANCH  20  21
ENDBRANCH  15  20
ENDBRANCH   3  15
TORSDOF 8
ENDMDL
MODEL 2
REMARK VINA RESULT:      -5.7      1.896      3.362
REMARK  8 active torsions:
REMARK  status: ('A' for Active; 'I' for Inactive)
REMARK    1  A    between atoms: N_2  and  C_11 
REMARK       I    between atoms: N_2  and  C_14 
REMARK       I    between atoms: N_5  and  C_18 
REMARK    2  A    between atoms: C_6  and  C_18 
REMARK    3  A    between atoms: C_6  and  C_11 
REMARK    4  A    between atoms: O_7  and  C_12 
REMARK    5  A    between atoms: N_9  and  C_13 
REMARK    6  A    between atoms: C_11  and  C_20 
REMARK    7  A    between atoms: C_12  and  C_13 
REMARK    8  A    between atoms: C_13  and  C_14 
ROOT
HETATM    1  N           1     -34.790  -1.305 -12.987  0.00  0.00    -0.344 N 
HETATM    2  O           1     -37.000  -1.078 -13.203  0.00  0.00    -0.271 OA
HETATM    3  C           1     -35.897  -0.754 -13.573  0.00  0.00     0.251 C 
HETATM    4  H           1     -33.865  -1.034 -13.298  0.00  0.00     0.163 HD
ENDROOT
BRANCH   1   5
HETATM    5  C           1     -34.940  -2.278 -11.923  0.00  0.00     0.194 C 
BRANCH   5   6
HETATM    6  C           1     -33.906  -3.384 -12.096  0.00  0.00     0.138 C 
BRANCH   6   7
HETATM    7  C           1     -34.316  -4.283 -13.236  0.00  0.00     0.217 C 
HETATM    8  O           1     -34.259  -3.880 -14.373  0.00  0.00    -0.274 OA
HETATM    9  N           1     -34.753  -5.555 -12.980  0.00  0.00    -0.370 N 
HETATM   10  H           1     -34.800  -5.893 -12.027  0.00  0.00     0.159 HD
HETATM   11  H           1     -35.027  -6.158 -13.745  0.00  0.00     0.159 HD
ENDBRANCH   6   7
ENDBRANCH   5   6
BRANCH   5  12
HETATM   12  C           1     -34.735  -1.600 -10.590  0.00  0.00     0.197 C 
HETATM   13  O           1     -33.632  -1.685 -10.010  0.00  0.00    -0.646 OA
HETATM   14  O           1     -35.669  -0.955 -10.067  0.00  0.00    -0.646 OA
ENDBRANCH   5  12
ENDBRANCH   1   5
BRANCH   3  15
HETATM   15  C           1     -35.741   0.258 -14.680  0.00  0.00     0.297 C 
BRANCH  15  16
HETATM   16  N           1     -34.335   0.784 -14.682  0.00  0.00    -0.064 N 
HETATM   17  H           1     -34.091   1.123 -15.639  0.00  0.00     0.275 HD
HETATM   18  H           1     -34.258   1.573 -14.002  0.00  0.00     0.275 HD
HETATM   19  H           1     -33.678   0.019 -14.405  0.00  0.00     0.275 HD
ENDBRANCH  15  16
BRANCH  15  20
HETATM   20  C           1     -36.036  -0.402 -16.020  0.00  0.00     0.206 C 
BRANCH  20  21
HETATM   21  O           1     -35.656  -1.751 -15.970  0.00  0.00    -0.398 OA
HETATM   22  H           1     -34.977  -1.821 -15.321  0.00  0.00     0.209 HD
ENDBRANCH  20  21
ENDBRANCH  15  20
ENDBRANCH   3  15
TORSDOF 8
ENDMDL
MODEL 3
REMARK VINA RESULT:      -5.5     13.310     15.580
REMARK  8 active torsions:
REMARK  status: ('A' for Active; 'I' for Inactive)
REMARK    1  A    between atoms: N_2  and  C_11 
REMARK       I    between atoms: N_2  and  C_14 
REMARK       I    between atoms: N_5  and  C_18 
REMARK    2  A    between atoms: C_6  and  C_18 
REMARK    3  A    between atoms: C_6  and  C_11 
REMARK    4  A    between atoms: O_7  and  C_12 
REMARK    5  A    between atoms: N_9  and  C_13 
REMARK    6  A    between atoms: C_11  and  C_20 
REMARK    7  A    between atoms: C_12  and  C_13 
REMARK    8  A    between atoms: C_13  and  C_14 
ROOT
HETATM    1  N           1     -22.477  -4.799  -8.297  0.00  0.00    -0.344 N 
HETATM    2  O           1     -21.339  -3.179  -7.265  0.00  0.00    -0.271 OA
HETATM    3  C           1     -21.739  -4.318  -7.249  0.00  0.00     0.251 C 
HETATM    4  H           1     -22.813  -5.753  -8.283  0.00  0.00     0.163 HD
ENDROOT
BRANCH   1   5
HETATM    5  C           1     -22.778  -3.941  -9.426  0.00  0.00     0.194 C 
BRANCH   5   6
HETATM    6  C           1     -22.169  -4.534 -10.691  0.00  0.00     0.138 C 
BRANCH   6   7
HETATM    7  C           1     -20.723  -4.118 -10.796  0.00  0.00     0.217 C 
HETATM    8  O           1     -19.864  -4.772 -10.254  0.00  0.00    -0.274 OA
HETATM    9  N           1     -20.384  -2.997 -11.506  0.00  0.00    -0.370 N 
HETATM   10  H           1     -21.103  -2.448 -11.960  0.00  0.00     0.159 HD
HETATM   11  H           1     -19.414  -2.717 -11.577  0.00  0.00     0.159 HD
ENDBRANCH   6   7
ENDBRANCH   5   6
BRANCH   5  12
HETATM   12  C           1     -24.274  -3.833  -9.591  0.00  0.00     0.197 C 
HETATM   13  O           1     -24.838  -2.725  -9.462  0.00  0.00    -0.646 OA
HETATM   14  O           1     -24.949  -4.851  -9.855  0.00  0.00    -0.646 OA
ENDBRANCH   5  12
ENDBRANCH   1   5
BRANCH   3  15
HETATM   15  C           1     -21.427  -5.211  -6.074  0.00  0.00     0.297 C 
BRANCH  15  16
HETATM   16  N           1     -22.692  -5.851  -5.582  0.00  0.00    -0.064 N 
HETATM   17  H           1     -23.474  -5.161  -5.632  0.00  0.00     0.275 HD
HETATM   18  H           1     -22.918  -6.678  -6.179  0.00  0.00     0.275 HD
HETATM   19  H           1     -22.562  -6.160  -4.592  0.00  0.00     0.275 HD
ENDBRANCH  15  16
BRANCH  15  20
HETATM   20  C           1     -20.445  -6.293  -6.503  0.00  0.00     0.206 C 
BRANCH  20  21
HETATM   21  O           1     -19.949  -5.995  -7.780  0.00  0.00    -0.398 OA
HETATM   22  H           1     -19.681  -5.091  -7.766  0.00  0.00     0.209 HD
ENDBRANCH  20  21
ENDBRANCH  15  20
ENDBRANCH   3  15
TORSDOF 8
ENDMDL
MODEL 4
REMARK VINA RESULT:      -5.5      1.816      4.804
REMARK  8 active torsions:
REMARK  status: ('A' for Active; 'I' for Inactive)
REMARK    1  A    between atoms: N_2  and  C_11 
REMARK       I    between atoms: N_2  and  C_14 
REMARK       I    between atoms: N_5  and  C_18 
REMARK    2  A    between atoms: C_6  and  C_18 
REMARK    3  A    between atoms: C_6  and  C_11 
REMARK    4  A    between atoms: O_7  and  C_12 
REMARK    5  A    between atoms: N_9  and  C_13 
REMARK    6  A    between atoms: C_11  and  C_20 
REMARK    7  A    between atoms: C_12  and  C_13 
REMARK    8  A    between atoms: C_13  and  C_14 
ROOT
HETATM    1  N           1     -35.547  -1.667 -12.723  0.00  0.00    -0.344 N 
HETATM    2  O           1     -33.933  -1.423 -11.200  0.00  0.00    -0.271 OA
HETATM    3  C           1     -34.503  -2.148 -11.980  0.00  0.00     0.251 C 
HETATM    4  H           1     -36.025  -2.275 -13.376  0.00  0.00     0.163 HD
ENDROOT
BRANCH   1   5
HETATM    5  C           1     -35.967  -0.288 -12.575  0.00  0.00     0.194 C 
BRANCH   5   6
HETATM    6  C           1     -36.705   0.156 -13.832  0.00  0.00     0.138 C 
BRANCH   6   7
HETATM    7  C           1     -35.716   0.707 -14.829  0.00  0.00     0.217 C 
HETATM    8  O           1     -34.549   0.405 -14.753  0.00  0.00    -0.274 OA
HETATM    9  N           1     -36.142   1.551 -15.820  0.00  0.00    -0.370 N 
HETATM   10  H           1     -37.120   1.804 -15.884  0.00  0.00     0.159 HD
HETATM   11  H           1     -35.479   1.921 -16.489  0.00  0.00     0.159 HD
ENDBRANCH   6   7
ENDBRANCH   5   6
BRANCH   5  12
HETATM   12  C           1     -36.885  -0.167 -11.383  0.00  0.00     0.197 C 
HETATM   13  O           1     -36.549   0.533 -10.404  0.00  0.00    -0.646 OA
HETATM   14  O           1     -37.981  -0.768 -11.375  0.00  0.00    -0.646 OA
ENDBRANCH   5  12
ENDBRANCH   1   5
BRANCH   3  15
HETATM   15  C           1     -34.065  -3.584 -12.133  0.00  0.00     0.297 C 
BRANCH  15  16
HETATM   16  N           1     -32.655  -3.731 -11.641  0.00  0.00    -0.064 N 
HETATM   17  H           1     -31.997  -3.330 -12.345  0.00  0.00     0.275 HD
HETATM   18  H           1     -32.548  -3.223 -10.734  0.00  0.00     0.275 HD
HETATM   19  H           1     -32.441  -4.745 -11.500  0.00  0.00     0.275 HD
ENDBRANCH  15  16
BRANCH  15  20
HETATM   20  C           1     -34.983  -4.486 -11.320  0.00  0.00     0.206 C 
BRANCH  20  21
HETATM   21  O           1     -36.046  -3.730 -10.806  0.00  0.00    -0.398 OA
HETATM   22  H           1     -35.886  -3.623  -9.884  0.00  0.00     0.209 HD
ENDBRANCH  20  21
ENDBRANCH  15  20
ENDBRANCH   3  15
TORSDOF 8
ENDMDL
MODEL 5
REMARK VINA RESULT:      -5.4     12.110     13.578
REMARK  8 active torsions:
REMARK  status: ('A' for Active; 'I' for Inactive)
REMARK    1  A    between atoms: N_2  and  C_11 
REMARK       I    between atoms: N_2  and  C_14 
REMARK       I    between atoms: N_5  and  C_18 
REMARK    2  A    between atoms: C_6  and  C_18 
REMARK    3  A    between atoms: C_6  and  C_11 
REMARK    4  A    between atoms: O_7  and  C_12 
REMARK    5  A    between atoms: N_9  and  C_13 
REMARK    6  A    between atoms: C_11  and  C_20 
REMARK    7  A    between atoms: C_12  and  C_13 
REMARK    8  A    between atoms: C_13  and  C_14 
ROOT
HETATM    1  N           1     -22.145  -4.135 -11.370  0.00  0.00    -0.344 N 
HETATM    2  O           1     -22.267  -1.964 -11.877  0.00  0.00    -0.271 OA
HETATM    3  C           1     -22.420  -3.108 -12.232  0.00  0.00     0.251 C 
HETATM    4  H           1     -22.272  -5.094 -11.668  0.00  0.00     0.163 HD
ENDROOT
BRANCH   1   5
HETATM    5  C           1     -21.672  -3.849 -10.029  0.00  0.00     0.194 C 
BRANCH   5   6
HETATM    6  C           1     -22.660  -4.408  -9.013  0.00  0.00     0.138 C 
BRANCH   6   7
HETATM    7  C           1     -24.069  -4.185  -9.504  0.00  0.00     0.217 C 
HETATM    8  O           1     -24.577  -4.976 -10.262  0.00  0.00    -0.274 OA
HETATM    9  N           1     -24.771  -3.084  -9.090  0.00  0.00    -0.370 N 
HETATM   10  H           1     -24.345  -2.421  -8.455  0.00  0.00     0.159 HD
HETATM   11  H           1     -25.716  -2.934  -9.420  0.00  0.00     0.159 HD
ENDBRANCH   6   7
ENDBRANCH   5   6
BRANCH   5  12
HETATM   12  C           1     -20.322  -4.492  -9.825  0.00  0.00     0.197 C 
HETATM   13  O           1     -19.883  -4.670  -8.668  0.00  0.00    -0.646 OA
HETATM   14  O           1     -19.643  -4.846 -10.813  0.00  0.00    -0.646 OA
ENDBRANCH   5  12
ENDBRANCH   1   5
BRANCH   3  15
HETATM   15  C           1     -22.911  -3.405 -13.627  0.00  0.00     0.297 C 
BRANCH  15  16
HETATM   16  N           1     -24.077  -4.347 -13.556  0.00  0.00    -0.064 N 
HETATM   17  H           1     -23.828  -5.165 -12.956  0.00  0.00     0.275 HD
HETATM   18  H           1     -24.900  -3.852 -13.145  0.00  0.00     0.275 HD
HETATM   19  H           1     -24.315  -4.679 -14.518  0.00  0.00     0.275 HD
ENDBRANCH  15  16
BRANCH  15  20
HETATM   20  C           1     -23.346  -2.111 -14.300  0.00  0.00     0.206 C 
BRANCH  20  21
HETATM   21  O           1     -24.587  -1.709 -13.785  0.00  0.00    -0.398 OA
HETATM   22  H           1     -24.871  -0.972 -14.298  0.00  0.00     0.209 HD
ENDBRANCH  20  21
ENDBRANCH  15  20
ENDBRANCH   3  15
TORSDOF 8
ENDMDL
MODEL 6
REMARK VINA RESULT:      -5.2     12.805     15.073
REMARK  8 active torsions:
REMARK  status: ('A' for Active; 'I' for Inactive)
REMARK    1  A    between atoms: N_2  and  C_11 
REMARK       I    between atoms: N_2  and  C_14 
REMARK       I    between atoms: N_5  and  C_18 
REMARK    2  A    between atoms: C_6  and  C_18 
REMARK    3  A    between atoms: C_6  and  C_11 
REMARK    4  A    between atoms: O_7  and  C_12 
REMARK    5  A    between atoms: N_9  and  C_13 
REMARK    6  A    between atoms: C_11  and  C_20 
REMARK    7  A    between atoms: C_12  and  C_13 
REMARK    8  A    between atoms: C_13  and  C_14 
ROOT
HETATM    1  N           1     -22.182  -4.935  -8.935  0.00  0.00    -0.344 N 
HETATM    2  O           1     -21.566  -3.283  -7.565  0.00  0.00    -0.271 OA
HETATM    3  C           1     -21.608  -4.471  -7.782  0.00  0.00     0.251 C 
HETATM    4  H           1     -22.218  -5.929  -9.117  0.00  0.00     0.163 HD
ENDROOT
BRANCH   1   5
HETATM    5  C           1     -22.739  -4.002  -9.895  0.00  0.00     0.194 C 
BRANCH   5   6
HETATM    6  C           1     -22.416  -4.473 -11.307  0.00  0.00     0.138 C 
BRANCH   6   7
HETATM    7  C           1     -22.123  -3.279 -12.181  0.00  0.00     0.217 C 
HETATM    8  O           1     -21.765  -2.238 -11.683  0.00  0.00    -0.274 OA
HETATM    9  N           1     -22.263  -3.375 -13.540  0.00  0.00    -0.370 N 
HETATM   10  H           1     -22.562  -4.247 -13.958  0.00  0.00     0.159 HD
HETATM   11  H           1     -22.066  -2.575 -14.127  0.00  0.00     0.159 HD
ENDBRANCH   6   7
ENDBRANCH   5   6
BRANCH   5  12
HETATM   12  C           1     -24.236  -3.932  -9.717  0.00  0.00     0.197 C 
HETATM   13  O           1     -24.925  -4.971  -9.804  0.00  0.00    -0.646 OA
HETATM   14  O           1     -24.787  -2.835  -9.484  0.00  0.00    -0.646 OA
ENDBRANCH   5  12
ENDBRANCH   1   5
BRANCH   3  15
HETATM   15  C           1     -21.029  -5.441  -6.783  0.00  0.00     0.297 C 
BRANCH  15  16
HETATM   16  N           1     -19.913  -4.777  -6.031  0.00  0.00    -0.064 N 
HETATM   17  H           1     -20.078  -3.746  -6.000  0.00  0.00     0.275 HD
HETATM   18  H           1     -19.878  -5.154  -5.057  0.00  0.00     0.275 HD
HETATM   19  H           1     -19.006  -4.971  -6.513  0.00  0.00     0.275 HD
ENDBRANCH  15  16
BRANCH  15  20
HETATM   20  C           1     -22.112  -5.873  -5.805  0.00  0.00     0.206 C 
BRANCH  20  21
HETATM   21  O           1     -23.297  -5.177  -6.083  0.00  0.00    -0.398 OA
HETATM   22  H           1     -23.377  -5.134  -7.021  0.00  0.00     0.209 HD
ENDBRANCH  20  21
ENDBRANCH  15  20
ENDBRANCH   3  15
TORSDOF 8
ENDMDL
MODEL 7
REMARK VINA RESULT:      -5.1      2.112      4.329
REMARK  8 active torsions:
REMARK  status: ('A' for Active; 'I' for Inactive)
REMARK    1  A    between atoms: N_2  and  C_11 
REMARK       I    between atoms: N_2  and  C_14 
REMARK       I    between atoms: N_5  and  C_18 
REMARK    2  A    between atoms: C_6  and  C_18 
REMARK    3  A    between atoms: C_6  and  C_11 
REMARK    4  A    between atoms: O_7  and  C_12 
REMARK    5  A    between atoms: N_9  and  C_13 
REMARK    6  A    between atoms: C_11  and  C_20 
REMARK    7  A    between atoms: C_12  and  C_13 
REMARK    8  A    between atoms: C_13  and  C_14 
ROOT
HETATM    1  N           1     -34.715  -2.009 -11.964  0.00  0.00    -0.344 N 
HETATM    2  O           1     -36.061  -3.450 -10.918  0.00  0.00    -0.271 OA
HETATM    3  C           1     -34.934  -3.133 -11.215  0.00  0.00     0.251 C 
HETATM    4  H           1     -33.771  -1.743 -12.214  0.00  0.00     0.163 HD
ENDROOT
BRANCH   1   5
HETATM    5  C           1     -35.835  -1.197 -12.399  0.00  0.00     0.194 C 
BRANCH   5   6
HETATM    6  C           1     -35.890   0.080 -11.570  0.00  0.00     0.138 C 
BRANCH   6   7
HETATM    7  C           1     -37.026  -0.011 -10.582  0.00  0.00     0.217 C 
HETATM    8  O           1     -38.072   0.549 -10.810  0.00  0.00    -0.274 OA
HETATM    9  N           1     -36.871  -0.727  -9.425  0.00  0.00    -0.370 N 
HETATM   10  H           1     -35.995  -1.196  -9.233  0.00  0.00     0.159 HD
HETATM   11  H           1     -37.633  -0.788  -8.762  0.00  0.00     0.159 HD
ENDBRANCH   6   7
ENDBRANCH   5   6
BRANCH   5  12
HETATM   12  C           1     -35.663  -0.844 -13.856  0.00  0.00     0.197 C 
HETATM   13  O           1     -35.059  -1.626 -14.622  0.00  0.00    -0.646 OA
HETATM   14  O           1     -36.123   0.231 -14.297  0.00  0.00    -0.646 OA
ENDBRANCH   5  12
ENDBRANCH   1   5
BRANCH   3  15
HETATM   15  C           1     -33.769  -3.978 -10.762  0.00  0.00     0.297 C 
BRANCH  15  16
HETATM   16  N           1     -34.250  -5.364 -10.449  0.00  0.00    -0.064 N 
HETATM   17  H           1     -34.996  -5.318  -9.719  0.00  0.00     0.275 HD
HETATM   18  H           1     -34.636  -5.803 -11.315  0.00  0.00     0.275 HD
HETATM   19  H           1     -33.450  -5.937 -10.094  0.00  0.00     0.275 HD
ENDBRANCH  15  16
BRANCH  15  20
HETATM   20  C           1     -32.726  -4.041 -11.869  0.00  0.00     0.206 C 
BRANCH  20  21
HETATM   21  O           1     -33.356  -4.309 -13.092  0.00  0.00    -0.398 OA
HETATM   22  H           1     -33.560  -3.476 -13.483  0.00  0.00     0.209 HD
ENDBRANCH  20  21
ENDBRANCH  15  20
ENDBRANCH   3  15
TORSDOF 8
ENDMDL
MODEL 8
REMARK VINA RESULT:      -5.0     13.024     15.008
REMARK  8 active torsions:
REMARK  status: ('A' for Active; 'I' for Inactive)
REMARK    1  A    between atoms: N_2  and  C_11 
REMARK       I    between atoms: N_2  and  C_14 
REMARK       I    between atoms: N_5  and  C_18 
REMARK    2  A    between atoms: C_6  and  C_18 
REMARK    3  A    between atoms: C_6  and  C_11 
REMARK    4  A    between atoms: O_7  and  C_12 
REMARK    5  A    between atoms: N_9  and  C_13 
REMARK    6  A    between atoms: C_11  and  C_20 
REMARK    7  A    between atoms: C_12  and  C_13 
REMARK    8  A    between atoms: C_13  and  C_14 
ROOT
HETATM    1  N           1     -21.810  -3.986  -9.716  0.00  0.00    -0.344 N 
HETATM    2  O           1     -19.884  -5.075 -10.013  0.00  0.00    -0.271 OA
HETATM    3  C           1     -20.561  -4.365  -9.307  0.00  0.00     0.251 C 
HETATM    4  H           1     -22.377  -3.391  -9.125  0.00  0.00     0.163 HD
ENDROOT
BRANCH   1   5
HETATM    5  C           1     -22.323  -4.437 -10.995  0.00  0.00     0.194 C 
BRANCH   5   6
HETATM    6  C           1     -23.760  -4.916 -10.826  0.00  0.00     0.138 C 
BRANCH   6   7
HETATM    7  C           1     -24.524  -3.927  -9.982  0.00  0.00     0.217 C 
HETATM    8  O           1     -25.251  -3.117 -10.507  0.00  0.00    -0.274 OA
HETATM    9  N           1     -24.394  -3.947  -8.618  0.00  0.00    -0.370 N 
HETATM   10  H           1     -23.785  -4.625  -8.178  0.00  0.00     0.159 HD
HETATM   11  H           1     -24.906  -3.284  -8.052  0.00  0.00     0.159 HD
ENDBRANCH   6   7
ENDBRANCH   5   6
BRANCH   5  12
HETATM   12  C           1     -22.286  -3.295 -11.982  0.00  0.00     0.197 C 
HETATM   13  O           1     -22.902  -3.386 -13.065  0.00  0.00    -0.646 OA
HETATM   14  O           1     -21.638  -2.260 -11.715  0.00  0.00    -0.646 OA
ENDBRANCH   5  12
ENDBRANCH   1   5
BRANCH   3  15
HETATM   15  C           1     -20.027  -3.896  -7.977  0.00  0.00     0.297 C 
BRANCH  15  16
HETATM   16  N           1     -21.170  -3.477  -7.100  0.00  0.00    -0.064 N 
HETATM   17  H           1     -21.166  -2.438  -6.996  0.00  0.00     0.275 HD
HETATM   18  H           1     -22.071  -3.780  -7.533  0.00  0.00     0.275 HD
HETATM   19  H           1     -21.068  -3.922  -6.159  0.00  0.00     0.275 HD
ENDBRANCH  15  16
BRANCH  15  20
HETATM   20  C           1     -19.263  -5.030  -7.306  0.00  0.00     0.206 C 
BRANCH  20  21
HETATM   21  O           1     -20.014  -6.212  -7.387  0.00  0.00    -0.398 OA
HETATM   22  H           1     -20.502  -6.172  -8.192  0.00  0.00     0.209 HD
ENDBRANCH  20  21
ENDBRANCH  15  20
ENDBRANCH   3  15
TORSDOF 8
ENDMDL
MODEL 9
REMARK VINA RESULT:      -4.9     13.151     14.852
REMARK  8 active torsions:
REMARK  status: ('A' for Active; 'I' for Inactive)
REMARK    1  A    between atoms: N_2  and  C_11 
REMARK       I    between atoms: N_2  and  C_14 
REMARK       I    between atoms: N_5  and  C_18 
REMARK    2  A    between atoms: C_6  and  C_18 
REMARK    3  A    between atoms: C_6  and  C_11 
REMARK    4  A    between atoms: O_7  and  C_12 
REMARK    5  A    between atoms: N_9  and  C_13 
REMARK    6  A    between atoms: C_11  and  C_20 
REMARK    7  A    between atoms: C_12  and  C_13 
REMARK    8  A    between atoms: C_13  and  C_14 
ROOT
HETATM    1  N           1     -22.321  -3.465  -9.627  0.00  0.00    -0.344 N 
HETATM    2  O           1     -21.459  -4.815 -11.183  0.00  0.00    -0.271 OA
HETATM    3  C           1     -22.070  -3.804 -10.929  0.00  0.00     0.251 C 
HETATM    4  H           1     -22.833  -2.619  -9.414  0.00  0.00     0.163 HD
ENDROOT
BRANCH   1   5
HETATM    5  C           1     -21.852  -4.318  -8.553  0.00  0.00     0.194 C 
BRANCH   5   6
HETATM    6  C           1     -20.651  -3.670  -7.877  0.00  0.00     0.138 C 
BRANCH   6   7
HETATM    7  C           1     -19.593  -4.714  -7.621  0.00  0.00     0.217 C 
HETATM    8  O           1     -18.438  -4.386  -7.490  0.00  0.00    -0.274 OA
HETATM    9  N           1     -19.943  -6.036  -7.537  0.00  0.00    -0.370 N 
HETATM   10  H           1     -20.910  -6.311  -7.647  0.00  0.00     0.159 HD
HETATM   11  H           1     -19.233  -6.737  -7.365  0.00  0.00     0.159 HD
ENDBRANCH   6   7
ENDBRANCH   5   6
BRANCH   5  12
HETATM   12  C           1     -22.957  -4.506  -7.542  0.00  0.00     0.197 C 
HETATM   13  O           1     -22.693  -4.942  -6.401  0.00  0.00    -0.646 OA
HETATM   14  O           1     -24.137  -4.227  -7.847  0.00  0.00    -0.646 OA
ENDBRANCH   5  12
ENDBRANCH   1   5
BRANCH   3  15
HETATM   15  C           1     -22.558  -2.917 -12.048  0.00  0.00     0.297 C 
BRANCH  15  16
HETATM   16  N           1     -21.982  -3.392 -13.349  0.00  0.00    -0.064 N 
HETATM   17  H           1     -22.319  -2.778 -14.124  0.00  0.00     0.275 HD
HETATM   18  H           1     -20.939  -3.353 -13.303  0.00  0.00     0.275 HD
HETATM   19  H           1     -22.287  -4.376 -13.526  0.00  0.00     0.275 HD
ENDBRANCH  15  16
BRANCH  15  20
HETATM   20  C           1     -24.078  -2.972 -12.116  0.00  0.00     0.206 C 
BRANCH  20  21
HETATM   21  O           1     -24.520  -2.275 -13.249  0.00  0.00    -0.398 OA
HETATM   22  H           1     -23.873  -1.616 -13.437  0.00  0.00     0.209 HD
ENDBRANCH  20  21
ENDBRANCH  15  20
ENDBRANCH   3  15
TORSDOF 8
ENDMDL
