MODEL 1
REMARK VINA RESULT:      -6.8      0.000      0.000
REMARK  8 active torsions:
REMARK  status: ('A' for Active; 'I' for Inactive)
REMARK    1  A    between atoms: C_1  and  C_6 
REMARK    2  A    between atoms: C_1  and  C_11 
REMARK    3  A    between atoms: C_1  and  N_14 
REMARK       I    between atoms: C_6  and  N_7 
REMARK    4  A    between atoms: N_7  and  C_24 
REMARK    5  A    between atoms: C_9  and  C_11 
REMARK    6  A    between atoms: C_22  and  O_23 
REMARK    7  A    between atoms: C_22  and  C_24 
REMARK    8  A    between atoms: C_24  and  C_25 
ROOT
HETATM    1  C           1     -34.522  -2.373 -11.832  0.00  0.00     0.280 C 
ENDROOT
BRANCH   1   2
HETATM    2  C           1     -35.513  -1.644 -12.706  0.00  0.00     0.249 C 
HETATM    3  N           1     -35.138  -1.205 -13.947  0.00  0.00    -0.343 N 
HETATM    4  H           1     -34.196  -1.370 -14.279  0.00  0.00     0.163 HD
HETATM    5  O           1     -36.637  -1.447 -12.310  0.00  0.00    -0.271 OA
BRANCH   3   6
HETATM    6  C           1     -36.090  -0.505 -14.787  0.00  0.00     0.214 C 
BRANCH   6   7
HETATM    7  C           1     -35.886   0.998 -14.642  0.00  0.00     0.147 C 
HETATM    8  C           1     -34.508   1.269 -14.051  0.00  0.00     0.042 C 
BRANCH   7   9
HETATM    9  O           1     -35.981   1.606 -15.902  0.00  0.00    -0.393 OA
HETATM   10  H           1     -36.894   1.786 -16.050  0.00  0.00     0.210 HD
ENDBRANCH   7   9
ENDBRANCH   6   7
BRANCH   6  11
HETATM   11  C           1     -35.878  -0.903 -16.227  0.00  0.00     0.199 C 
HETATM   12  O           1     -36.810  -0.778 -17.052  0.00  0.00    -0.646 OA
HETATM   13  O           1     -34.774  -1.357 -16.594  0.00  0.00    -0.646 OA
ENDBRANCH   6  11
ENDBRANCH   3   6
ENDBRANCH   1   2
BRANCH   1  14
HETATM   14  C           1     -35.260  -3.375 -10.953  0.00  0.00     0.101 C 
BRANCH  14  15
HETATM   15  C           1     -34.523  -4.678 -10.952  0.00  0.00     0.028 A 
HETATM   16  C           1     -33.300  -4.884 -11.544  0.00  0.00     0.114 A 
HETATM   17  N           1     -33.006  -6.197 -11.303  0.00  0.00    -0.360 N 
HETATM   18  C           1     -34.044  -6.725 -10.589  0.00  0.00     0.180 A 
HETATM   19  H           1     -32.141  -6.707 -11.611  0.00  0.00     0.166 HD
HETATM   20  N           1     -34.977  -5.829 -10.362  0.00  0.00    -0.355 N 
ATOM     21  HN          1     -35.853  -5.962  -9.856  1.00  0.00     0.166 HD
ENDBRANCH  14  15
ENDBRANCH   1  14
BRANCH   1  22
HETATM   22  N           1     -33.800  -1.385 -10.965  0.00  0.00    -0.066 N 
HETATM   23  H           1     -33.523  -1.845 -10.068  0.00  0.00     0.275 HD
HETATM   24  H           1     -34.429  -0.575 -10.762  0.00  0.00     0.275 HD
HETATM   25  H           1     -32.945  -1.046 -11.461  0.00  0.00     0.275 HD
ENDBRANCH   1  22
TORSDOF 8
ENDMDL
MODEL 2
REMARK VINA RESULT:      -6.5     12.963     14.590
REMARK  8 active torsions:
REMARK  status: ('A' for Active; 'I' for Inactive)
REMARK    1  A    between atoms: C_1  and  C_6 
REMARK    2  A    between atoms: C_1  and  C_11 
REMARK    3  A    between atoms: C_1  and  N_14 
REMARK       I    between atoms: C_6  and  N_7 
REMARK    4  A    between atoms: N_7  and  C_24 
REMARK    5  A    between atoms: C_9  and  C_11 
REMARK    6  A    between atoms: C_22  and  O_23 
REMARK    7  A    between atoms: C_22  and  C_24 
REMARK    8  A    between atoms: C_24  and  C_25 
ROOT
HETATM    1  C           1     -21.115  -5.593  -7.064  0.00  0.00     0.280 C 
ENDROOT
BRANCH   1   2
HETATM    2  C           1     -21.733  -4.488  -7.885  0.00  0.00     0.249 C 
HETATM    3  N           1     -22.148  -4.737  -9.166  0.00  0.00    -0.343 N 
HETATM    4  H           1     -22.039  -5.661  -9.562  0.00  0.00     0.163 HD
HETATM    5  O           1     -21.863  -3.383  -7.412  0.00  0.00    -0.271 OA
BRANCH   3   6
HETATM    6  C           1     -22.742  -3.675  -9.955  0.00  0.00     0.214 C 
BRANCH   6   7
HETATM    7  C           1     -22.025  -3.576 -11.295  0.00  0.00     0.147 C 
HETATM    8  C           1     -20.571  -3.998 -11.126  0.00  0.00     0.042 C 
BRANCH   7   9
HETATM    9  O           1     -22.651  -4.419 -12.224  0.00  0.00    -0.393 OA
HETATM   10  H           1     -23.562  -4.458 -11.987  0.00  0.00     0.210 HD
ENDBRANCH   7   9
ENDBRANCH   6   7
BRANCH   6  11
HETATM   11  C           1     -24.201  -3.979 -10.188  0.00  0.00     0.199 C 
HETATM   12  O           1     -24.947  -3.110 -10.693  0.00  0.00    -0.646 OA
HETATM   13  O           1     -24.665  -5.097  -9.878  0.00  0.00    -0.646 OA
ENDBRANCH   6  11
ENDBRANCH   3   6
ENDBRANCH   1   2
BRANCH   1  14
HETATM   14  C           1     -20.778  -5.066  -5.674  0.00  0.00     0.101 C 
BRANCH  14  15
HETATM   15  C           1     -21.137  -6.096  -4.649  0.00  0.00     0.028 A 
HETATM   16  C           1     -21.274  -7.439  -4.905  0.00  0.00     0.114 A 
HETATM   17  N           1     -21.603  -7.998  -3.702  0.00  0.00    -0.360 N 
HETATM   18  C           1     -21.653  -6.990  -2.781  0.00  0.00     0.180 A 
HETATM   19  H           1     -21.785  -9.016  -3.519  0.00  0.00     0.166 HD
HETATM   20  N           1     -21.375  -5.827  -3.325  0.00  0.00    -0.355 N 
ATOM     21  HN          1     -21.344  -4.918  -2.863  1.00  0.00     0.166 HD
ENDBRANCH  14  15
ENDBRANCH   1  14
BRANCH   1  22
HETATM   22  N           1     -19.861  -6.070  -7.734  0.00  0.00    -0.066 N 
HETATM   23  H           1     -19.601  -7.010  -7.358  0.00  0.00     0.275 HD
HETATM   24  H           1     -19.087  -5.393  -7.547  0.00  0.00     0.275 HD
HETATM   25  H           1     -20.021  -6.139  -8.764  0.00  0.00     0.275 HD
ENDBRANCH   1  22
TORSDOF 8
ENDMDL
MODEL 3
REMARK VINA RESULT:      -6.0     13.119     15.397
REMARK  8 active torsions:
REMARK  status: ('A' for Active; 'I' for Inactive)
REMARK    1  A    between atoms: C_1  and  C_6 
REMARK    2  A    between atoms: C_1  and  C_11 
REMARK    3  A    between atoms: C_1  and  N_14 
REMARK       I    between atoms: C_6  and  N_7 
REMARK    4  A    between atoms: N_7  and  C_24 
REMARK    5  A    between atoms: C_9  and  C_11 
REMARK    6  A    between atoms: C_22  and  O_23 
REMARK    7  A    between atoms: C_22  and  C_24 
REMARK    8  A    between atoms: C_24  and  C_25 
ROOT
HETATM    1  C           1     -22.966  -4.218  -8.991  0.00  0.00     0.280 C 
ENDROOT
BRANCH   1   2
HETATM    2  C           1     -22.137  -4.414  -7.745  0.00  0.00     0.249 C 
HETATM    3  N           1     -22.108  -5.636  -7.128  0.00  0.00    -0.343 N 
HETATM    4  H           1     -22.643  -6.407  -7.506  0.00  0.00     0.163 HD
HETATM    5  O           1     -21.498  -3.494  -7.293  0.00  0.00    -0.271 OA
BRANCH   3   6
HETATM    6  C           1     -21.312  -5.825  -5.931  0.00  0.00     0.214 C 
BRANCH   6   7
HETATM    7  C           1     -22.149  -6.527  -4.869  0.00  0.00     0.147 C 
HETATM    8  C           1     -21.608  -6.182  -3.488  0.00  0.00     0.042 C 
BRANCH   7   9
HETATM    9  O           1     -23.481  -6.102  -4.968  0.00  0.00    -0.393 OA
HETATM   10  H           1     -23.800  -5.994  -4.089  0.00  0.00     0.210 HD
ENDBRANCH   7   9
ENDBRANCH   6   7
BRANCH   6  11
HETATM   11  C           1     -20.105  -6.670  -6.258  0.00  0.00     0.199 C 
HETATM   12  O           1     -19.897  -7.731  -5.629  0.00  0.00    -0.646 OA
HETATM   13  O           1     -19.316  -6.311  -7.157  0.00  0.00    -0.646 OA
ENDBRANCH   6  11
ENDBRANCH   3   6
ENDBRANCH   1   2
BRANCH   1  14
HETATM   14  C           1     -22.150  -3.461 -10.031  0.00  0.00     0.101 C 
BRANCH  14  15
HETATM   15  C           1     -22.876  -3.470 -11.340  0.00  0.00     0.028 A 
HETATM   16  C           1     -23.402  -4.592 -11.934  0.00  0.00     0.114 A 
HETATM   17  N           1     -23.966  -4.147 -13.097  0.00  0.00    -0.360 N 
HETATM   18  C           1     -23.762  -2.798 -13.161  0.00  0.00     0.180 A 
HETATM   19  H           1     -24.464  -4.735 -13.810  0.00  0.00     0.166 HD
HETATM   20  N           1     -23.105  -2.360 -12.111  0.00  0.00    -0.355 N 
ATOM     21  HN          1     -22.824  -1.399 -11.913  1.00  0.00     0.166 HD
ENDBRANCH  14  15
ENDBRANCH   1  14
BRANCH   1  22
HETATM   22  N           1     -24.196  -3.430  -8.652  0.00  0.00    -0.066 N 
HETATM   23  H           1     -24.840  -3.417  -9.475  0.00  0.00     0.275 HD
HETATM   24  H           1     -23.926  -2.451  -8.404  0.00  0.00     0.275 HD
HETATM   25  H           1     -24.680  -3.873  -7.838  0.00  0.00     0.275 HD
ENDBRANCH   1  22
TORSDOF 8
ENDMDL
MODEL 4
REMARK VINA RESULT:      -6.0      2.952      6.024
REMARK  8 active torsions:
REMARK  status: ('A' for Active; 'I' for Inactive)
REMARK    1  A    between atoms: C_1  and  C_6 
REMARK    2  A    between atoms: C_1  and  C_11 
REMARK    3  A    between atoms: C_1  and  N_14 
REMARK       I    between atoms: C_6  and  N_7 
REMARK    4  A    between atoms: N_7  and  C_24 
REMARK    5  A    between atoms: C_9  and  C_11 
REMARK    6  A    between atoms: C_22  and  O_23 
REMARK    7  A    between atoms: C_22  and  C_24 
REMARK    8  A    between atoms: C_24  and  C_25 
ROOT
HETATM    1  C           1     -36.051  -0.211 -11.700  0.00  0.00     0.280 C 
ENDROOT
BRANCH   1   2
HETATM    2  C           1     -35.273  -1.397 -11.186  0.00  0.00     0.249 C 
HETATM    3  N           1     -34.985  -2.442 -12.023  0.00  0.00    -0.343 N 
HETATM    4  H           1     -35.295  -2.419 -12.986  0.00  0.00     0.163 HD
HETATM    5  O           1     -34.902  -1.425 -10.036  0.00  0.00    -0.271 OA
BRANCH   3   6
HETATM    6  C           1     -34.237  -3.582 -11.529  0.00  0.00     0.214 C 
BRANCH   6   7
HETATM    7  C           1     -35.196  -4.727 -11.228  0.00  0.00     0.147 C 
HETATM    8  C           1     -34.498  -5.755 -10.348  0.00  0.00     0.042 C 
BRANCH   7   9
HETATM    9  O           1     -36.323  -4.229 -10.561  0.00  0.00    -0.393 OA
HETATM   10  H           1     -36.010  -3.644  -9.893  0.00  0.00     0.210 HD
ENDBRANCH   7   9
ENDBRANCH   6   7
BRANCH   6  11
HETATM   11  C           1     -33.243  -4.022 -12.575  0.00  0.00     0.199 C 
HETATM   12  O           1     -33.547  -3.970 -13.787  0.00  0.00    -0.646 OA
HETATM   13  O           1     -32.116  -4.438 -12.231  0.00  0.00    -0.646 OA
ENDBRANCH   6  11
ENDBRANCH   3   6
ENDBRANCH   1   2
BRANCH   1  14
HETATM   14  C           1     -35.253   0.484 -12.796  0.00  0.00     0.101 C 
BRANCH  14  15
HETATM   15  C           1     -36.020   0.433 -14.081  0.00  0.00     0.028 A 
HETATM   16  C           1     -35.593   0.981 -15.268  0.00  0.00     0.114 A 
HETATM   17  N           1     -36.588   0.705 -16.164  0.00  0.00    -0.360 N 
HETATM   18  C           1     -37.560   0.015 -15.497  0.00  0.00     0.180 A 
HETATM   19  H           1     -36.602   0.974 -17.178  0.00  0.00     0.166 HD
HETATM   20  N           1     -37.244  -0.164 -14.235  0.00  0.00    -0.355 N 
ATOM     21  HN          1     -37.793  -0.644 -13.521  1.00  0.00     0.166 HD
ENDBRANCH  14  15
ENDBRANCH   1  14
BRANCH   1  22
HETATM   22  N           1     -36.296   0.750 -10.575  0.00  0.00    -0.066 N 
HETATM   23  H           1     -37.183   0.494 -10.086  0.00  0.00     0.275 HD
HETATM   24  H           1     -36.374   1.720 -10.957  0.00  0.00     0.275 HD
HETATM   25  H           1     -35.501   0.705  -9.899  0.00  0.00     0.275 HD
ENDBRANCH   1  22
TORSDOF 8
ENDMDL
MODEL 5
REMARK VINA RESULT:      -5.8     13.965     16.375
REMARK  8 active torsions:
REMARK  status: ('A' for Active; 'I' for Inactive)
REMARK    1  A    between atoms: C_1  and  C_6 
REMARK    2  A    between atoms: C_1  and  C_11 
REMARK    3  A    between atoms: C_1  and  N_14 
REMARK       I    between atoms: C_6  and  N_7 
REMARK    4  A    between atoms: N_7  and  C_24 
REMARK    5  A    between atoms: C_9  and  C_11 
REMARK    6  A    between atoms: C_22  and  O_23 
REMARK    7  A    between atoms: C_22  and  C_24 
REMARK    8  A    between atoms: C_24  and  C_25 
ROOT
HETATM    1  C           1     -22.076  -4.393  -7.306  0.00  0.00     0.280 C 
ENDROOT
BRANCH   1   2
HETATM    2  C           1     -21.201  -5.155  -6.341  0.00  0.00     0.249 C 
HETATM    3  N           1     -21.758  -6.067  -5.486  0.00  0.00    -0.343 N 
HETATM    4  H           1     -22.757  -6.230  -5.501  0.00  0.00     0.163 HD
HETATM    5  O           1     -20.009  -4.961  -6.323  0.00  0.00    -0.271 OA
BRANCH   3   6
HETATM    6  C           1     -20.918  -6.800  -4.558  0.00  0.00     0.214 C 
BRANCH   6   7
HETATM    7  C           1     -21.711  -7.120  -3.298  0.00  0.00     0.147 C 
HETATM    8  C           1     -20.758  -7.571  -2.199  0.00  0.00     0.042 C 
BRANCH   7   9
HETATM    9  O           1     -22.401  -5.974  -2.876  0.00  0.00    -0.393 OA
HETATM   10  H           1     -22.148  -5.817  -1.982  0.00  0.00     0.210 HD
ENDBRANCH   7   9
ENDBRANCH   6   7
BRANCH   6  11
HETATM   11  C           1     -20.459  -8.084  -5.202  0.00  0.00     0.199 C 
HETATM   12  O           1     -21.281  -8.808  -5.806  0.00  0.00    -0.646 OA
HETATM   13  O           1     -19.260  -8.425  -5.133  0.00  0.00    -0.646 OA
ENDBRANCH   6  11
ENDBRANCH   3   6
ENDBRANCH   1   2
BRANCH   1  14
HETATM   14  C           1     -21.859  -4.925  -8.717  0.00  0.00     0.101 C 
BRANCH  14  15
HETATM   15  C           1     -22.824  -4.267  -9.654  0.00  0.00     0.028 A 
HETATM   16  C           1     -24.193  -4.339  -9.543  0.00  0.00     0.114 A 
HETATM   17  N           1     -24.672  -3.604 -10.592  0.00  0.00    -0.360 N 
HETATM   18  C           1     -23.595  -3.127 -11.284  0.00  0.00     0.180 A 
HETATM   19  H           1     -25.682  -3.439 -10.824  0.00  0.00     0.166 HD
HETATM   20  N           1     -22.464  -3.511 -10.740  0.00  0.00    -0.355 N 
ATOM     21  HN          1     -21.519  -3.295 -11.057  1.00  0.00     0.166 HD
ENDBRANCH  14  15
ENDBRANCH   1  14
BRANCH   1  22
HETATM   22  N           1     -21.718  -2.938  -7.261  0.00  0.00    -0.066 N 
HETATM   23  H           1     -21.513  -2.599  -8.228  0.00  0.00     0.275 HD
HETATM   24  H           1     -20.875  -2.805  -6.658  0.00  0.00     0.275 HD
HETATM   25  H           1     -22.518  -2.394  -6.865  0.00  0.00     0.275 HD
ENDBRANCH   1  22
TORSDOF 8
ENDMDL
MODEL 6
REMARK VINA RESULT:      -5.7     12.754     14.884
REMARK  8 active torsions:
REMARK  status: ('A' for Active; 'I' for Inactive)
REMARK    1  A    between atoms: C_1  and  C_6 
REMARK    2  A    between atoms: C_1  and  C_11 
REMARK    3  A    between atoms: C_1  and  N_14 
REMARK       I    between atoms: C_6  and  N_7 
REMARK    4  A    between atoms: N_7  and  C_24 
REMARK    5  A    between atoms: C_9  and  C_11 
REMARK    6  A    between atoms: C_22  and  O_23 
REMARK    7  A    between atoms: C_22  and  C_24 
REMARK    8  A    between atoms: C_24  and  C_25 
ROOT
HETATM    1  C           1     -23.862  -4.462 -10.039  0.00  0.00     0.280 C 
ENDROOT
BRANCH   1   2
HETATM    2  C           1     -22.884  -4.074  -8.957  0.00  0.00     0.249 C 
HETATM    3  N           1     -22.286  -5.042  -8.196  0.00  0.00    -0.343 N 
HETATM    4  H           1     -22.500  -6.017  -8.358  0.00  0.00     0.163 HD
HETATM    5  O           1     -22.628  -2.909  -8.763  0.00  0.00    -0.271 OA
BRANCH   3   6
HETATM    6  C           1     -21.346  -4.669  -7.156  0.00  0.00     0.214 C 
BRANCH   6   7
HETATM    7  C           1     -21.555  -5.561  -5.938  0.00  0.00     0.147 C 
HETATM    8  C           1     -21.268  -7.008  -6.314  0.00  0.00     0.042 C 
BRANCH   7   9
HETATM    9  O           1     -20.686  -5.163  -4.913  0.00  0.00    -0.393 OA
HETATM   10  H           1     -19.991  -5.799  -4.881  0.00  0.00     0.210 HD
ENDBRANCH   7   9
ENDBRANCH   6   7
BRANCH   6  11
HETATM   11  C           1     -19.937  -4.840  -7.667  0.00  0.00     0.199 C 
HETATM   12  O           1     -19.742  -5.252  -8.832  0.00  0.00    -0.646 OA
HETATM   13  O           1     -18.967  -4.571  -6.928  0.00  0.00    -0.646 OA
ENDBRANCH   6  11
ENDBRANCH   3   6
ENDBRANCH   1   2
BRANCH   1  14
HETATM   14  C           1     -24.361  -3.208 -10.746  0.00  0.00     0.101 C 
BRANCH  14  15
HETATM   15  C           1     -23.679  -3.077 -12.072  0.00  0.00     0.028 A 
HETATM   16  C           1     -22.471  -3.652 -12.390  0.00  0.00     0.114 A 
HETATM   17  N           1     -22.230  -3.278 -13.683  0.00  0.00    -0.360 N 
HETATM   18  C           1     -23.280  -2.505 -14.089  0.00  0.00     0.180 A 
HETATM   19  H           1     -21.390  -3.537 -14.257  0.00  0.00     0.166 HD
HETATM   20  N           1     -24.172  -2.365 -13.135  0.00  0.00    -0.355 N 
ATOM     21  HN          1     -25.045  -1.840 -13.176  1.00  0.00     0.166 HD
ENDBRANCH  14  15
ENDBRANCH   1  14
BRANCH   1  22
HETATM   22  N           1     -25.023  -5.185  -9.425  0.00  0.00    -0.066 N 
HETATM   23  H           1     -24.721  -6.139  -9.126  0.00  0.00     0.275 HD
HETATM   24  H           1     -25.793  -5.266 -10.128  0.00  0.00     0.275 HD
HETATM   25  H           1     -25.366  -4.652  -8.595  0.00  0.00     0.275 HD
ENDBRANCH   1  22
TORSDOF 8
ENDMDL
MODEL 7
REMARK VINA RESULT:      -5.6     17.465     18.927
REMARK  8 active torsions:
REMARK  status: ('A' for Active; 'I' for Inactive)
REMARK    1  A    between atoms: C_1  and  C_6 
REMARK    2  A    between atoms: C_1  and  C_11 
REMARK    3  A    between atoms: C_1  and  N_14 
REMARK       I    between atoms: C_6  and  N_7 
REMARK    4  A    between atoms: N_7  and  C_24 
REMARK    5  A    between atoms: C_9  and  C_11 
REMARK    6  A    between atoms: C_22  and  O_23 
REMARK    7  A    between atoms: C_22  and  C_24 
REMARK    8  A    between atoms: C_24  and  C_25 
ROOT
HETATM    1  C           1     -19.964  -8.678  -4.841  0.00  0.00     0.280 C 
ENDROOT
BRANCH   1   2
HETATM    2  C           1     -20.030  -8.704  -3.333  0.00  0.00     0.249 C 
HETATM    3  N           1     -21.194  -8.372  -2.694  0.00  0.00    -0.343 N 
HETATM    4  H           1     -22.009  -8.108  -3.232  0.00  0.00     0.163 HD
HETATM    5  O           1     -19.057  -9.020  -2.691  0.00  0.00    -0.271 OA
BRANCH   3   6
HETATM    6  C           1     -21.259  -8.397  -1.245  0.00  0.00     0.214 C 
BRANCH   6   7
HETATM    7  C           1     -21.989  -7.157  -0.747  0.00  0.00     0.147 C 
HETATM    8  C           1     -22.243  -6.214  -1.915  0.00  0.00     0.042 C 
BRANCH   7   9
HETATM    9  O           1     -23.212  -7.533  -0.175  0.00  0.00    -0.393 OA
HETATM   10  H           1     -23.247  -7.138   0.680  0.00  0.00     0.210 HD
ENDBRANCH   7   9
ENDBRANCH   6   7
BRANCH   6  11
HETATM   11  C           1     -22.002  -9.631  -0.797  0.00  0.00     0.199 C 
HETATM   12  O           1     -22.795 -10.201  -1.579  0.00  0.00    -0.646 OA
HETATM   13  O           1     -21.827 -10.083   0.354  0.00  0.00    -0.646 OA
ENDBRANCH   6  11
ENDBRANCH   3   6
ENDBRANCH   1   2
BRANCH   1  14
HETATM   14  C           1     -21.142  -7.882  -5.388  0.00  0.00     0.101 C 
BRANCH  14  15
HETATM   15  C           1     -20.653  -6.576  -5.932  0.00  0.00     0.028 A 
HETATM   16  C           1     -20.748  -5.371  -5.276  0.00  0.00     0.114 A 
HETATM   17  N           1     -20.186  -4.460  -6.126  0.00  0.00    -0.360 N 
HETATM   18  C           1     -19.781  -5.135  -7.242  0.00  0.00     0.180 A 
HETATM   19  H           1     -20.084  -3.429  -5.952  0.00  0.00     0.166 HD
HETATM   20  N           1     -20.051  -6.417  -7.154  0.00  0.00    -0.355 N 
ATOM     21  HN          1     -19.856  -7.141  -7.846  1.00  0.00     0.166 HD
ENDBRANCH  14  15
ENDBRANCH   1  14
BRANCH   1  22
HETATM   22  N           1     -20.022 -10.081  -5.367  0.00  0.00    -0.066 N 
HETATM   23  H           1     -20.460 -10.080  -6.315  0.00  0.00     0.275 HD
HETATM   24  H           1     -20.591 -10.672  -4.720  0.00  0.00     0.275 HD
HETATM   25  H           1     -19.054 -10.469  -5.432  0.00  0.00     0.275 HD
ENDBRANCH   1  22
TORSDOF 8
ENDMDL
MODEL 8
REMARK VINA RESULT:      -5.4     15.478     18.150
REMARK  8 active torsions:
REMARK  status: ('A' for Active; 'I' for Inactive)
REMARK    1  A    between atoms: C_1  and  C_6 
REMARK    2  A    between atoms: C_1  and  C_11 
REMARK    3  A    between atoms: C_1  and  N_14 
REMARK       I    between atoms: C_6  and  N_7 
REMARK    4  A    between atoms: N_7  and  C_24 
REMARK    5  A    between atoms: C_9  and  C_11 
REMARK    6  A    between atoms: C_22  and  O_23 
REMARK    7  A    between atoms: C_22  and  C_24 
REMARK    8  A    between atoms: C_24  and  C_25 
ROOT
HETATM    1  C           1     -21.693  -6.605  -5.428  0.00  0.00     0.280 C 
ENDROOT
BRANCH   1   2
HETATM    2  C           1     -20.928  -7.426  -4.419  0.00  0.00     0.249 C 
HETATM    3  N           1     -21.491  -7.719  -3.206  0.00  0.00    -0.343 N 
HETATM    4  H           1     -22.420  -7.384  -2.986  0.00  0.00     0.163 HD
HETATM    5  O           1     -19.819  -7.827  -4.682  0.00  0.00    -0.271 OA
BRANCH   3   6
HETATM    6  C           1     -20.757  -8.508  -2.237  0.00  0.00     0.214 C 
BRANCH   6   7
HETATM    7  C           1     -21.079  -8.016  -0.831  0.00  0.00     0.147 C 
HETATM    8  C           1     -22.241  -7.035  -0.891  0.00  0.00     0.042 C 
BRANCH   7   9
HETATM    9  O           1     -21.429  -9.107  -0.023  0.00  0.00    -0.393 OA
HETATM   10  H           1     -21.261  -9.885  -0.526  0.00  0.00     0.210 HD
ENDBRANCH   7   9
ENDBRANCH   6   7
BRANCH   6  11
HETATM   11  C           1     -21.154  -9.958  -2.364  0.00  0.00     0.199 C 
HETATM   12  O           1     -22.324 -10.258  -2.688  0.00  0.00    -0.646 OA
HETATM   13  O           1     -20.316 -10.858  -2.145  0.00  0.00    -0.646 OA
ENDBRANCH   6  11
ENDBRANCH   3   6
ENDBRANCH   1   2
BRANCH   1  14
HETATM   14  C           1     -20.938  -5.311  -5.707  0.00  0.00     0.101 C 
BRANCH  14  15
HETATM   15  C           1     -21.300  -4.805  -7.069  0.00  0.00     0.028 A 
HETATM   16  C           1     -20.586  -5.064  -8.214  0.00  0.00     0.114 A 
HETATM   17  N           1     -21.264  -4.416  -9.209  0.00  0.00    -0.360 N 
HETATM   18  C           1     -22.341  -3.801  -8.637  0.00  0.00     0.180 A 
HETATM   19  H           1     -21.003  -4.395 -10.226  0.00  0.00     0.166 HD
HETATM   20  N           1     -22.389  -4.018  -7.343  0.00  0.00    -0.355 N 
ATOM     21  HN          1     -23.087  -3.675  -6.683  1.00  0.00     0.166 HD
ENDBRANCH  14  15
ENDBRANCH   1  14
BRANCH   1  22
HETATM   22  N           1     -23.051  -6.283  -4.881  0.00  0.00    -0.066 N 
HETATM   23  H           1     -23.555  -5.653  -5.546  0.00  0.00     0.275 HD
HETATM   24  H           1     -22.950  -5.806  -3.956  0.00  0.00     0.275 HD
HETATM   25  H           1     -23.597  -7.166  -4.758  0.00  0.00     0.275 HD
ENDBRANCH   1  22
TORSDOF 8
ENDMDL
MODEL 9
REMARK VINA RESULT:      -5.3     15.299     17.816
REMARK  8 active torsions:
REMARK  status: ('A' for Active; 'I' for Inactive)
REMARK    1  A    between atoms: C_1  and  C_6 
REMARK    2  A    between atoms: C_1  and  C_11 
REMARK    3  A    between atoms: C_1  and  N_14 
REMARK       I    between atoms: C_6  and  N_7 
REMARK    4  A    between atoms: N_7  and  C_24 
REMARK    5  A    between atoms: C_9  and  C_11 
REMARK    6  A    between atoms: C_22  and  O_23 
REMARK    7  A    between atoms: C_22  and  C_24 
REMARK    8  A    between atoms: C_24  and  C_25 
ROOT
HETATM    1  C           1     -21.761  -6.154  -6.034  0.00  0.00     0.280 C 
ENDROOT
BRANCH   1   2
HETATM    2  C           1     -20.513  -6.997  -5.925  0.00  0.00     0.249 C 
HETATM    3  N           1     -20.433  -7.983  -4.979  0.00  0.00    -0.343 N 
HETATM    4  H           1     -21.210  -8.146  -4.352  0.00  0.00     0.163 HD
HETATM    5  O           1     -19.585  -6.802  -6.673  0.00  0.00    -0.271 OA
BRANCH   3   6
HETATM    6  C           1     -19.235  -8.793  -4.874  0.00  0.00     0.214 C 
BRANCH   6   7
HETATM    7  C           1     -19.006  -9.176  -3.418  0.00  0.00     0.147 C 
HETATM    8  C           1     -20.122  -8.598  -2.559  0.00  0.00     0.042 C 
BRANCH   7   9
HETATM    9  O           1     -18.999 -10.573  -3.298  0.00  0.00    -0.393 OA
HETATM   10  H           1     -18.110 -10.855  -3.432  0.00  0.00     0.210 HD
ENDBRANCH   7   9
ENDBRANCH   6   7
BRANCH   6  11
HETATM   11  C           1     -19.399 -10.043  -5.702  0.00  0.00     0.199 C 
HETATM   12  O           1     -18.405 -10.556  -6.261  0.00  0.00    -0.646 OA
HETATM   13  O           1     -20.526 -10.565  -5.830  0.00  0.00    -0.646 OA
ENDBRANCH   6  11
ENDBRANCH   3   6
ENDBRANCH   1   2
BRANCH   1  14
HETATM   14  C           1     -21.380  -4.731  -6.419  0.00  0.00     0.101 C 
BRANCH  14  15
HETATM   15  C           1     -22.133  -4.328  -7.649  0.00  0.00     0.028 A 
HETATM   16  C           1     -21.556  -4.084  -8.873  0.00  0.00     0.114 A 
HETATM   17  N           1     -22.597  -3.751  -9.695  0.00  0.00    -0.360 N 
HETATM   18  C           1     -23.741  -3.803  -8.950  0.00  0.00     0.180 A 
HETATM   19  H           1     -22.529  -3.499 -10.712  0.00  0.00     0.166 HD
HETATM   20  N           1     -23.491  -4.150  -7.708  0.00  0.00    -0.355 N 
ATOM     21  HN          1     -24.164  -4.262  -6.949  1.00  0.00     0.166 HD
ENDBRANCH  14  15
ENDBRANCH   1  14
BRANCH   1  22
HETATM   22  N           1     -22.470  -6.142  -4.713  0.00  0.00    -0.066 N 
HETATM   23  H           1     -23.501  -6.201  -4.870  0.00  0.00     0.275 HD
HETATM   24  H           1     -22.244  -5.256  -4.205  0.00  0.00     0.275 HD
HETATM   25  H           1     -22.158  -6.959  -4.141  0.00  0.00     0.275 HD
ENDBRANCH   1  22
TORSDOF 8
ENDMDL
