MODEL 1
REMARK VINA RESULT:      -6.5      0.000      0.000
REMARK  5 active torsions:
REMARK  status: ('A' for Active; 'I' for Inactive)
REMARK    1  A    between atoms: C_3  and  C_18 
REMARK    2  A    between atoms: C_4  and  C_9 
REMARK    3  A    between atoms: C_4  and  C_17 
REMARK    4  A    between atoms: C_4  and  N_13 
REMARK    5  A    between atoms: C_9  and  C_10 
REMARK       I    between atoms: N_13  and  C_18 
ROOT
HETATM    1  O           1     -37.710  -0.724 -13.465  0.00  0.00    -0.271 OA
HETATM    2  H           1     -34.880  -0.060 -12.283  0.00  0.00     0.163 HD
HETATM    3  N           1     -35.818  -0.437 -12.312  0.00  0.00    -0.344 N 
HETATM    4  C           1     -36.589  -0.272 -13.430  0.00  0.00     0.251 C 
ENDROOT
BRANCH   3   5
HETATM    5  C           1     -36.346  -1.154 -11.167  0.00  0.00     0.189 C 
BRANCH   5   6
HETATM    6  C           1     -35.281  -2.098 -10.624  0.00  0.00     0.014 C 
HETATM    7  C           1     -35.737  -3.539 -10.813  0.00  0.00     0.012 C 
BRANCH   6   8
HETATM    8  C           1     -33.975  -1.878 -11.375  0.00  0.00     0.002 C 
HETATM    9  C           1     -33.152  -3.159 -11.350  0.00  0.00     0.005 C 
ENDBRANCH   6   8
ENDBRANCH   5   6
BRANCH   5  10
HETATM   10  C           1     -36.737  -0.168 -10.094  0.00  0.00     0.197 C 
HETATM   11  O           1     -36.185  -0.211  -8.974  0.00  0.00    -0.646 OA
HETATM   12  O           1     -37.614   0.692 -10.326  0.00  0.00    -0.646 OA
ENDBRANCH   5  10
ENDBRANCH   3   5
BRANCH   4  13
HETATM   13  C           1     -36.041   0.474 -14.622  0.00  0.00     0.311 C 
HETATM   14  N           1     -34.842  -0.180 -15.138  0.00  0.00     0.097 N 
HETATM   15  H           1     -34.322   0.449 -15.750  0.00  0.00     0.317 HD
HETATM   16  C           1     -35.336  -1.314 -15.914  0.00  0.00     0.271 C 
HETATM   17  C           1     -36.552  -0.760 -16.635  0.00  0.00     0.033 C 
HETATM   18  C           1     -37.013   0.421 -15.788  0.00  0.00     0.047 C 
ENDBRANCH   4  13
TORSDOF 5
ENDMDL
MODEL 2
REMARK VINA RESULT:      -6.4     12.732     15.476
REMARK  5 active torsions:
REMARK  status: ('A' for Active; 'I' for Inactive)
REMARK    1  A    between atoms: C_3  and  C_18 
REMARK    2  A    between atoms: C_4  and  C_9 
REMARK    3  A    between atoms: C_4  and  C_17 
REMARK    4  A    between atoms: C_4  and  N_13 
REMARK    5  A    between atoms: C_9  and  C_10 
REMARK       I    between atoms: N_13  and  C_18 
ROOT
HETATM    1  O           1     -22.213  -3.515  -7.445  0.00  0.00    -0.271 OA
HETATM    2  H           1     -22.283  -5.697  -9.699  0.00  0.00     0.163 HD
HETATM    3  N           1     -22.433  -4.798  -9.260  0.00  0.00    -0.344 N 
HETATM    4  C           1     -22.034  -4.589  -7.968  0.00  0.00     0.251 C 
ENDROOT
BRANCH   3   5
HETATM    5  C           1     -23.073  -3.728 -10.003  0.00  0.00     0.189 C 
BRANCH   5   6
HETATM    6  C           1     -22.760  -3.882 -11.486  0.00  0.00     0.014 C 
HETATM    7  C           1     -23.040  -2.567 -12.202  0.00  0.00     0.012 C 
BRANCH   6   8
HETATM    8  C           1     -21.293  -4.250 -11.660  0.00  0.00     0.002 C 
HETATM    9  C           1     -20.422  -3.050 -11.309  0.00  0.00     0.005 C 
ENDBRANCH   6   8
ENDBRANCH   5   6
BRANCH   5  10
HETATM   10  C           1     -24.565  -3.795  -9.795  0.00  0.00     0.197 C 
HETATM   11  O           1     -25.148  -4.901  -9.798  0.00  0.00    -0.646 OA
HETATM   12  O           1     -25.220  -2.744  -9.620  0.00  0.00    -0.646 OA
ENDBRANCH   5  10
ENDBRANCH   3   5
BRANCH   4  13
HETATM   13  C           1     -21.369  -5.702  -7.195  0.00  0.00     0.311 C 
HETATM   14  N           1     -20.004  -5.920  -7.666  0.00  0.00     0.097 N 
HETATM   15  H           1     -19.653  -6.823  -7.351  0.00  0.00     0.317 HD
HETATM   16  C           1     -19.220  -4.851  -7.054  0.00  0.00     0.271 C 
HETATM   17  C           1     -19.779  -4.751  -5.645  0.00  0.00     0.033 C 
HETATM   18  C           1     -21.192  -5.316  -5.737  0.00  0.00     0.047 C 
ENDBRANCH   4  13
TORSDOF 5
ENDMDL
MODEL 3
REMARK VINA RESULT:      -6.4      2.594      5.082
REMARK  5 active torsions:
REMARK  status: ('A' for Active; 'I' for Inactive)
REMARK    1  A    between atoms: C_3  and  C_18 
REMARK    2  A    between atoms: C_4  and  C_9 
REMARK    3  A    between atoms: C_4  and  C_17 
REMARK    4  A    between atoms: C_4  and  N_13 
REMARK    5  A    between atoms: C_9  and  C_10 
REMARK       I    between atoms: N_13  and  C_18 
ROOT
HETATM    1  O           1     -34.408  -3.088 -13.514  0.00  0.00    -0.271 OA
HETATM    2  H           1     -34.629  -0.830 -11.347  0.00  0.00     0.163 HD
HETATM    3  N           1     -34.807  -1.313 -12.217  0.00  0.00    -0.344 N 
HETATM    4  C           1     -34.195  -2.510 -12.474  0.00  0.00     0.251 C 
ENDROOT
BRANCH   3   5
HETATM    5  C           1     -35.711  -0.737 -13.194  0.00  0.00     0.189 C 
BRANCH   5   6
HETATM    6  C           1     -36.815   0.027 -12.475  0.00  0.00     0.014 C 
HETATM    7  C           1     -38.075   0.023 -13.332  0.00  0.00     0.012 C 
BRANCH   6   8
HETATM    8  C           1     -37.109  -0.641 -11.139  0.00  0.00     0.002 C 
HETATM    9  C           1     -37.102   0.407 -10.034  0.00  0.00     0.005 C 
ENDBRANCH   6   8
ENDBRANCH   5   6
BRANCH   5  10
HETATM   10  C           1     -34.947   0.207 -14.090  0.00  0.00     0.197 C 
HETATM   11  O           1     -34.435   1.243 -13.613  0.00  0.00    -0.646 OA
HETATM   12  O           1     -34.827  -0.046 -15.308  0.00  0.00    -0.646 OA
ENDBRANCH   5  10
ENDBRANCH   3   5
BRANCH   4  13
HETATM   13  C           1     -33.254  -3.110 -11.459  0.00  0.00     0.311 C 
HETATM   14  N           1     -33.963  -3.447 -10.227  0.00  0.00     0.097 N 
HETATM   15  H           1     -33.307  -3.591  -9.460  0.00  0.00     0.317 HD
HETATM   16  C           1     -34.651  -4.701 -10.521  0.00  0.00     0.271 C 
HETATM   17  C           1     -33.637  -5.492 -11.330  0.00  0.00     0.033 C 
HETATM   18  C           1     -32.714  -4.445 -11.943  0.00  0.00     0.047 C 
ENDBRANCH   4  13
TORSDOF 5
ENDMDL
MODEL 4
REMARK VINA RESULT:      -5.5     15.813     17.535
REMARK  5 active torsions:
REMARK  status: ('A' for Active; 'I' for Inactive)
REMARK    1  A    between atoms: C_3  and  C_18 
REMARK    2  A    between atoms: C_4  and  C_9 
REMARK    3  A    between atoms: C_4  and  C_17 
REMARK    4  A    between atoms: C_4  and  N_13 
REMARK    5  A    between atoms: C_9  and  C_10 
REMARK       I    between atoms: N_13  and  C_18 
ROOT
HETATM    1  O           1     -19.445  -4.803  -5.772  0.00  0.00    -0.271 OA
HETATM    2  H           1     -22.338  -6.008  -5.618  0.00  0.00     0.163 HD
HETATM    3  N           1     -21.343  -5.934  -5.448  0.00  0.00    -0.344 N 
HETATM    4  C           1     -20.633  -4.891  -5.976  0.00  0.00     0.251 C 
ENDROOT
BRANCH   3   5
HETATM    5  C           1     -20.670  -6.937  -4.644  0.00  0.00     0.189 C 
BRANCH   5   6
HETATM    6  C           1     -21.571  -7.349  -3.487  0.00  0.00     0.014 C 
HETATM    7  C           1     -20.855  -8.387  -2.633  0.00  0.00     0.012 C 
BRANCH   6   8
HETATM    8  C           1     -21.896  -6.129  -2.636  0.00  0.00     0.002 C 
HETATM    9  C           1     -22.274  -6.578  -1.230  0.00  0.00     0.005 C 
ENDBRANCH   6   8
ENDBRANCH   5   6
BRANCH   5  10
HETATM   10  C           1     -20.364  -8.143  -5.497  0.00  0.00     0.197 C 
HETATM   11  O           1     -19.177  -8.471  -5.714  0.00  0.00    -0.646 OA
HETATM   12  O           1     -21.298  -8.814  -5.989  0.00  0.00    -0.646 OA
ENDBRANCH   5  10
ENDBRANCH   3   5
BRANCH   4  13
HETATM   13  C           1     -21.333  -3.848  -6.813  0.00  0.00     0.311 C 
HETATM   14  N           1     -20.516  -3.469  -7.962  0.00  0.00     0.097 N 
HETATM   15  H           1     -20.846  -2.594  -8.367  0.00  0.00     0.317 HD
HETATM   16  C           1     -20.698  -4.551  -8.926  0.00  0.00     0.271 C 
HETATM   17  C           1     -22.177  -4.882  -8.826  0.00  0.00     0.033 C 
HETATM   18  C           1     -22.597  -4.415  -7.437  0.00  0.00     0.047 C 
ENDBRANCH   4  13
TORSDOF 5
ENDMDL
MODEL 5
REMARK VINA RESULT:      -5.3      2.412      5.244
REMARK  5 active torsions:
REMARK  status: ('A' for Active; 'I' for Inactive)
REMARK    1  A    between atoms: C_3  and  C_18 
REMARK    2  A    between atoms: C_4  and  C_9 
REMARK    3  A    between atoms: C_4  and  C_17 
REMARK    4  A    between atoms: C_4  and  N_13 
REMARK    5  A    between atoms: C_9  and  C_10 
REMARK       I    between atoms: N_13  and  C_18 
ROOT
HETATM    1  O           1     -34.460  -3.141 -13.753  0.00  0.00    -0.271 OA
HETATM    2  H           1     -34.789  -0.569 -11.986  0.00  0.00     0.163 HD
HETATM    3  N           1     -34.878  -1.166 -12.798  0.00  0.00    -0.344 N 
HETATM    4  C           1     -34.353  -2.429 -12.782  0.00  0.00     0.251 C 
ENDROOT
BRANCH   3   5
HETATM    5  C           1     -35.562  -0.680 -13.981  0.00  0.00     0.189 C 
BRANCH   5   6
HETATM    6  C           1     -37.063  -0.651 -13.724  0.00  0.00     0.014 C 
HETATM    7  C           1     -37.331  -0.048 -12.351  0.00  0.00     0.012 C 
BRANCH   6   8
HETATM    8  C           1     -37.746   0.195 -14.790  0.00  0.00     0.002 C 
HETATM    9  C           1     -38.054  -0.671 -16.005  0.00  0.00     0.005 C 
ENDBRANCH   6   8
ENDBRANCH   5   6
BRANCH   5  10
HETATM   10  C           1     -35.081   0.713 -14.304  0.00  0.00     0.197 C 
HETATM   11  O           1     -35.251   1.184 -15.449  0.00  0.00    -0.646 OA
HETATM   12  O           1     -34.512   1.396 -13.425  0.00  0.00    -0.646 OA
ENDBRANCH   5  10
ENDBRANCH   3   5
BRANCH   4  13
HETATM   13  C           1     -33.641  -2.935 -11.551  0.00  0.00     0.311 C 
HETATM   14  N           1     -34.597  -3.313 -10.515  0.00  0.00     0.097 N 
HETATM   15  H           1     -34.136  -3.391  -9.609  0.00  0.00     0.317 HD
HETATM   16  C           1     -35.094  -4.624 -10.923  0.00  0.00     0.271 C 
HETATM   17  C           1     -33.858  -5.338 -11.439  0.00  0.00     0.033 C 
HETATM   18  C           1     -32.898  -4.227 -11.848  0.00  0.00     0.047 C 
ENDBRANCH   4  13
TORSDOF 5
ENDMDL
MODEL 6
REMARK VINA RESULT:      -5.2     17.937     19.915
REMARK  5 active torsions:
REMARK  status: ('A' for Active; 'I' for Inactive)
REMARK    1  A    between atoms: C_3  and  C_18 
REMARK    2  A    between atoms: C_4  and  C_9 
REMARK    3  A    between atoms: C_4  and  C_17 
REMARK    4  A    between atoms: C_4  and  N_13 
REMARK    5  A    between atoms: C_9  and  C_10 
REMARK       I    between atoms: N_13  and  C_18 
ROOT
HETATM    1  O           1     -22.956 -10.912  -3.605  0.00  0.00    -0.271 OA
HETATM    2  H           1     -20.621  -9.396  -2.157  0.00  0.00     0.163 HD
HETATM    3  N           1     -21.274  -9.625  -2.895  0.00  0.00    -0.344 N 
HETATM    4  C           1     -22.177 -10.639  -2.723  0.00  0.00     0.251 C 
ENDROOT
BRANCH   3   5
HETATM    5  C           1     -21.252  -8.878  -4.139  0.00  0.00     0.189 C 
BRANCH   5   6
HETATM    6  C           1     -21.034  -7.400  -3.840  0.00  0.00     0.014 C 
HETATM    7  C           1     -22.133  -6.581  -4.504  0.00  0.00     0.012 C 
BRANCH   6   8
HETATM    8  C           1     -21.076  -7.175  -2.334  0.00  0.00     0.002 C 
HETATM    9  C           1     -22.174  -6.173  -2.000  0.00  0.00     0.005 C 
ENDBRANCH   6   8
ENDBRANCH   5   6
BRANCH   5  10
HETATM   10  C           1     -20.129  -9.385  -5.009  0.00  0.00     0.197 C 
HETATM   11  O           1     -20.371 -10.184  -5.940  0.00  0.00    -0.646 OA
HETATM   12  O           1     -18.956  -9.005  -4.801  0.00  0.00    -0.646 OA
ENDBRANCH   5  10
ENDBRANCH   3   5
BRANCH   4  13
HETATM   13  C           1     -22.199 -11.416  -1.430  0.00  0.00     0.311 C 
HETATM   14  N           1     -21.824 -10.566  -0.304  0.00  0.00     0.097 N 
HETATM   15  H           1     -21.574 -11.130   0.508  0.00  0.00     0.317 HD
HETATM   16  C           1     -23.021  -9.786  -0.006  0.00  0.00     0.271 C 
HETATM   17  C           1     -24.154 -10.786  -0.158  0.00  0.00     0.033 C 
HETATM   18  C           1     -23.612 -11.862  -1.091  0.00  0.00     0.047 C 
ENDBRANCH   4  13
TORSDOF 5
ENDMDL
MODEL 7
REMARK VINA RESULT:      -5.2     13.024     15.200
REMARK  5 active torsions:
REMARK  status: ('A' for Active; 'I' for Inactive)
REMARK    1  A    between atoms: C_3  and  C_18 
REMARK    2  A    between atoms: C_4  and  C_9 
REMARK    3  A    between atoms: C_4  and  C_17 
REMARK    4  A    between atoms: C_4  and  N_13 
REMARK    5  A    between atoms: C_9  and  C_10 
REMARK       I    between atoms: N_13  and  C_18 
ROOT
HETATM    1  O           1     -23.233  -5.218  -9.943  0.00  0.00    -0.271 OA
HETATM    2  H           1     -20.199  -4.496  -9.594  0.00  0.00     0.163 HD
HETATM    3  N           1     -21.119  -4.828  -9.335  0.00  0.00    -0.344 N 
HETATM    4  C           1     -22.134  -4.821 -10.253  0.00  0.00     0.251 C 
ENDROOT
BRANCH   3   5
HETATM    5  C           1     -21.362  -5.310  -7.989  0.00  0.00     0.189 C 
BRANCH   5   6
HETATM    6  C           1     -20.033  -5.620  -7.312  0.00  0.00     0.014 C 
HETATM    7  C           1     -19.047  -4.492  -7.591  0.00  0.00     0.012 C 
BRANCH   6   8
HETATM    8  C           1     -20.245  -5.747  -5.810  0.00  0.00     0.002 C 
HETATM    9  C           1     -20.453  -7.213  -5.449  0.00  0.00     0.005 C 
ENDBRANCH   6   8
ENDBRANCH   5   6
BRANCH   5  10
HETATM   10  C           1     -22.092  -4.251  -7.200  0.00  0.00     0.197 C 
HETATM   11  O           1     -21.635  -3.089  -7.140  0.00  0.00    -0.646 OA
HETATM   12  O           1     -23.154  -4.536  -6.605  0.00  0.00    -0.646 OA
ENDBRANCH   5  10
ENDBRANCH   3   5
BRANCH   4  13
HETATM   13  C           1     -21.881  -4.319 -11.653  0.00  0.00     0.311 C 
HETATM   14  N           1     -23.051  -4.532 -12.501  0.00  0.00     0.097 N 
HETATM   15  H           1     -22.802  -4.453 -13.487  0.00  0.00     0.317 HD
HETATM   16  C           1     -23.975  -3.460 -12.145  0.00  0.00     0.271 C 
HETATM   17  C           1     -23.077  -2.245 -11.980  0.00  0.00     0.033 C 
HETATM   18  C           1     -21.698  -2.811 -11.662  0.00  0.00     0.047 C 
ENDBRANCH   4  13
TORSDOF 5
ENDMDL
MODEL 8
REMARK VINA RESULT:      -5.2     12.864     15.125
REMARK  5 active torsions:
REMARK  status: ('A' for Active; 'I' for Inactive)
REMARK    1  A    between atoms: C_3  and  C_18 
REMARK    2  A    between atoms: C_4  and  C_9 
REMARK    3  A    between atoms: C_4  and  C_17 
REMARK    4  A    between atoms: C_4  and  N_13 
REMARK    5  A    between atoms: C_9  and  C_10 
REMARK       I    between atoms: N_13  and  C_18 
ROOT
HETATM    1  O           1     -23.119  -2.906  -8.690  0.00  0.00    -0.271 OA
HETATM    2  H           1     -22.294  -5.934  -8.709  0.00  0.00     0.163 HD
HETATM    3  N           1     -22.242  -4.950  -8.479  0.00  0.00    -0.344 N 
HETATM    4  C           1     -23.181  -4.082  -8.965  0.00  0.00     0.251 C 
ENDROOT
BRANCH   3   5
HETATM    5  C           1     -21.171  -4.460  -7.632  0.00  0.00     0.189 C 
BRANCH   5   6
HETATM    6  C           1     -20.940  -5.437  -6.487  0.00  0.00     0.014 C 
HETATM    7  C           1     -20.160  -4.744  -5.378  0.00  0.00     0.012 C 
BRANCH   6   8
HETATM    8  C           1     -22.282  -5.909  -5.944  0.00  0.00     0.002 C 
HETATM    9  C           1     -22.053  -6.981  -4.885  0.00  0.00     0.005 C 
ENDBRANCH   6   8
ENDBRANCH   5   6
BRANCH   5  10
HETATM   10  C           1     -19.906  -4.332  -8.445  0.00  0.00     0.197 C 
HETATM   11  O           1     -19.783  -4.969  -9.514  0.00  0.00    -0.646 OA
HETATM   12  O           1     -18.982  -3.588  -8.051  0.00  0.00    -0.646 OA
ENDBRANCH   5  10
ENDBRANCH   3   5
BRANCH   4  13
HETATM   13  C           1     -24.295  -4.591  -9.847  0.00  0.00     0.311 C 
HETATM   14  N           1     -24.991  -3.485 -10.497  0.00  0.00     0.097 N 
HETATM   15  H           1     -25.892  -3.790 -10.864  0.00  0.00     0.317 HD
HETATM   16  C           1     -24.123  -3.092 -11.603  0.00  0.00     0.271 C 
HETATM   17  C           1     -23.622  -4.413 -12.160  0.00  0.00     0.033 C 
HETATM   18  C           1     -23.740  -5.401 -11.006  0.00  0.00     0.047 C 
ENDBRANCH   4  13
TORSDOF 5
ENDMDL
MODEL 9
REMARK VINA RESULT:      -5.2     13.162     15.932
REMARK  5 active torsions:
REMARK  status: ('A' for Active; 'I' for Inactive)
REMARK    1  A    between atoms: C_3  and  C_18 
REMARK    2  A    between atoms: C_4  and  C_9 
REMARK    3  A    between atoms: C_4  and  C_17 
REMARK    4  A    between atoms: C_4  and  N_13 
REMARK    5  A    between atoms: C_9  and  C_10 
REMARK       I    between atoms: N_13  and  C_18 
ROOT
HETATM    1  O           1     -20.120  -5.204  -8.657  0.00  0.00    -0.271 OA
HETATM    2  H           1     -22.869  -3.691  -8.655  0.00  0.00     0.163 HD
HETATM    3  N           1     -22.088  -4.213  -9.029  0.00  0.00    -0.344 N 
HETATM    4  C           1     -21.054  -4.579  -8.211  0.00  0.00     0.251 C 
ENDROOT
BRANCH   3   5
HETATM    5  C           1     -22.063  -4.575 -10.433  0.00  0.00     0.189 C 
BRANCH   5   6
HETATM    6  C           1     -23.474  -4.493 -11.003  0.00  0.00     0.014 C 
HETATM    7  C           1     -24.311  -3.549 -10.150  0.00  0.00     0.012 C 
BRANCH   6   8
HETATM    8  C           1     -23.416  -3.968 -12.431  0.00  0.00     0.002 C 
HETATM    9  C           1     -24.566  -2.995 -12.662  0.00  0.00     0.005 C 
ENDBRANCH   6   8
ENDBRANCH   5   6
BRANCH   5  10
HETATM   10  C           1     -21.164  -3.623 -11.182  0.00  0.00     0.197 C 
HETATM   11  O           1     -21.469  -2.414 -11.272  0.00  0.00    -0.646 OA
HETATM   12  O           1     -20.113  -4.044 -11.713  0.00  0.00    -0.646 OA
ENDBRANCH   5  10
ENDBRANCH   3   5
BRANCH   4  13
HETATM   13  C           1     -21.078  -4.203  -6.750  0.00  0.00     0.311 C 
HETATM   14  N           1     -22.223  -4.808  -6.075  0.00  0.00     0.097 N 
HETATM   15  H           1     -22.399  -4.350  -5.181  0.00  0.00     0.317 HD
HETATM   16  C           1     -21.833  -6.195  -5.844  0.00  0.00     0.271 C 
HETATM   17  C           1     -20.375  -6.099  -5.429  0.00  0.00     0.033 C 
HETATM   18  C           1     -19.879  -4.785  -6.021  0.00  0.00     0.047 C 
ENDBRANCH   4  13
TORSDOF 5
ENDMDL
