MODEL 1
REMARK VINA RESULT:      -6.7      0.000      0.000
REMARK  9 active torsions:
REMARK  status: ('A' for Active; 'I' for Inactive)
REMARK       I    between atoms: N_1  and  C_13 
REMARK    1  A    between atoms: N_3  and  C_22 
REMARK    2  A    between atoms: C_5  and  C_16 
REMARK    3  A    between atoms: C_5  and  C_6 
REMARK    4  A    between atoms: C_5  and  N_24 
REMARK    5  A    between atoms: C_13  and  C_18 
REMARK    6  A    between atoms: C_16  and  C_20 
REMARK    7  A    between atoms: C_18  and  C_19 
REMARK    8  A    between atoms: C_19  and  C_22 
REMARK    9  A    between atoms: C_22  and  C_23 
REMARK       I    between atoms: C_23  and  N_24 
ROOT
HETATM    1  C           1     -34.359  -3.859 -11.996  0.00  0.00     0.275 C 
ENDROOT
BRANCH   1   2
HETATM    2  N           1     -33.347  -4.069 -13.082  0.00  0.00    -0.066 N 
HETATM    3  H           1     -33.612  -4.905 -13.651  0.00  0.00     0.275 HD
HETATM    4  H           1     -33.317  -3.226 -13.699  0.00  0.00     0.275 HD
HETATM    5  H           1     -32.405  -4.223 -12.656  0.00  0.00     0.275 HD
ENDBRANCH   1   2
BRANCH   1   6
HETATM    6  C           1     -33.888  -4.551 -10.724  0.00  0.00     0.052 C 
BRANCH   6   7
HETATM    7  C           1     -33.531  -5.998 -11.034  0.00  0.00     0.105 C 
BRANCH   7   8
HETATM    8  C           1     -34.538  -6.917 -10.386  0.00  0.00     0.215 C 
HETATM    9  N           1     -34.757  -8.165 -10.901  0.00  0.00    -0.370 N 
HETATM   10  H           1     -35.432  -8.780 -10.467  0.00  0.00     0.159 HD
HETATM   11  H           1     -34.245  -8.472 -11.718  0.00  0.00     0.159 HD
HETATM   12  O           1     -35.150  -6.549  -9.411  0.00  0.00    -0.274 OA
ENDBRANCH   7   8
ENDBRANCH   6   7
ENDBRANCH   1   6
BRANCH   1  13
HETATM   13  C           1     -34.517  -2.381 -11.737  0.00  0.00     0.249 C 
HETATM   14  O           1     -33.764  -1.817 -10.980  0.00  0.00    -0.271 OA
HETATM   15  N           1     -35.516  -1.680 -12.358  0.00  0.00    -0.344 N 
HETATM   16  H           1     -36.147  -2.153 -12.992  0.00  0.00     0.163 HD
BRANCH  15  17
HETATM   17  C           1     -35.668  -0.260 -12.109  0.00  0.00     0.189 C 
BRANCH  17  18
HETATM   18  C           1     -35.942   0.459 -13.423  0.00  0.00     0.014 C 
HETATM   19  C           1     -34.665   1.136 -13.905  0.00  0.00     0.012 C 
BRANCH  18  20
HETATM   20  C           1     -36.406  -0.549 -14.465  0.00  0.00     0.002 C 
HETATM   21  C           1     -35.647  -0.324 -15.766  0.00  0.00     0.005 C 
ENDBRANCH  18  20
ENDBRANCH  17  18
BRANCH  17  22
HETATM   22  C           1     -36.823  -0.037 -11.164  0.00  0.00     0.197 C 
HETATM   23  O           1     -37.909  -0.629 -11.354  0.00  0.00    -0.646 OA
HETATM   24  O           1     -36.696   0.738 -10.192  0.00  0.00    -0.646 OA
ENDBRANCH  17  22
ENDBRANCH  15  17
ENDBRANCH   1  13
TORSDOF 9
ENDMDL
MODEL 2
REMARK VINA RESULT:      -6.5     12.655     14.239
REMARK  9 active torsions:
REMARK  status: ('A' for Active; 'I' for Inactive)
REMARK       I    between atoms: N_1  and  C_13 
REMARK    1  A    between atoms: N_3  and  C_22 
REMARK    2  A    between atoms: C_5  and  C_16 
REMARK    3  A    between atoms: C_5  and  C_6 
REMARK    4  A    between atoms: C_5  and  N_24 
REMARK    5  A    between atoms: C_13  and  C_18 
REMARK    6  A    between atoms: C_16  and  C_20 
REMARK    7  A    between atoms: C_18  and  C_19 
REMARK    8  A    between atoms: C_19  and  C_22 
REMARK    9  A    between atoms: C_22  and  C_23 
REMARK       I    between atoms: C_23  and  N_24 
ROOT
HETATM    1  C           1     -21.228  -5.885  -6.849  0.00  0.00     0.275 C 
ENDROOT
BRANCH   1   2
HETATM    2  N           1     -19.833  -6.221  -7.283  0.00  0.00    -0.066 N 
HETATM    3  H           1     -19.169  -5.504  -6.914  0.00  0.00     0.275 HD
HETATM    4  H           1     -19.570  -7.162  -6.910  0.00  0.00     0.275 HD
HETATM    5  H           1     -19.785  -6.234  -8.327  0.00  0.00     0.275 HD
ENDBRANCH   1   2
BRANCH   1   6
HETATM    6  C           1     -21.231  -5.560  -5.361  0.00  0.00     0.052 C 
BRANCH   6   7
HETATM    7  C           1     -22.123  -6.551  -4.626  0.00  0.00     0.105 C 
BRANCH   7   8
HETATM    8  C           1     -21.716  -6.616  -3.174  0.00  0.00     0.215 C 
HETATM    9  N           1     -22.344  -5.826  -2.250  0.00  0.00    -0.370 N 
HETATM   10  H           1     -22.071  -5.869  -1.277  0.00  0.00     0.159 HD
HETATM   11  H           1     -23.082  -5.197  -2.541  0.00  0.00     0.159 HD
HETATM   12  O           1     -20.835  -7.367  -2.827  0.00  0.00    -0.274 OA
ENDBRANCH   7   8
ENDBRANCH   6   7
ENDBRANCH   1   6
BRANCH   1  13
HETATM   13  C           1     -21.721  -4.689  -7.626  0.00  0.00     0.249 C 
HETATM   14  O           1     -21.552  -3.575  -7.192  0.00  0.00    -0.271 OA
HETATM   15  N           1     -22.360  -4.867  -8.823  0.00  0.00    -0.344 N 
HETATM   16  H           1     -22.502  -5.801  -9.187  0.00  0.00     0.163 HD
BRANCH  15  17
HETATM   17  C           1     -22.834  -3.718  -9.571  0.00  0.00     0.189 C 
BRANCH  17  18
HETATM   18  C           1     -22.236  -3.742 -10.971  0.00  0.00     0.014 C 
HETATM   19  C           1     -22.976  -2.747 -11.855  0.00  0.00     0.012 C 
BRANCH  18  20
HETATM   20  C           1     -20.763  -3.361 -10.899  0.00  0.00     0.002 C 
HETATM   21  C           1     -19.915  -4.622 -10.802  0.00  0.00     0.005 C 
ENDBRANCH  18  20
ENDBRANCH  17  18
BRANCH  17  22
HETATM   22  C           1     -24.339  -3.768  -9.666  0.00  0.00     0.197 C 
HETATM   23  O           1     -24.913  -4.845  -9.938  0.00  0.00    -0.646 OA
HETATM   24  O           1     -25.013  -2.733  -9.472  0.00  0.00    -0.646 OA
ENDBRANCH  17  22
ENDBRANCH  15  17
ENDBRANCH   1  13
TORSDOF 9
ENDMDL
MODEL 3
REMARK VINA RESULT:      -6.1     14.040     16.866
REMARK  9 active torsions:
REMARK  status: ('A' for Active; 'I' for Inactive)
REMARK       I    between atoms: N_1  and  C_13 
REMARK    1  A    between atoms: N_3  and  C_22 
REMARK    2  A    between atoms: C_5  and  C_16 
REMARK    3  A    between atoms: C_5  and  C_6 
REMARK    4  A    between atoms: C_5  and  N_24 
REMARK    5  A    between atoms: C_13  and  C_18 
REMARK    6  A    between atoms: C_16  and  C_20 
REMARK    7  A    between atoms: C_18  and  C_19 
REMARK    8  A    between atoms: C_19  and  C_22 
REMARK    9  A    between atoms: C_22  and  C_23 
REMARK       I    between atoms: C_23  and  N_24 
ROOT
HETATM    1  C           1     -20.416  -5.081  -6.439  0.00  0.00     0.275 C 
ENDROOT
BRANCH   1   2
HETATM    2  N           1     -19.961  -5.923  -7.593  0.00  0.00    -0.066 N 
HETATM    3  H           1     -20.014  -5.365  -8.475  0.00  0.00     0.275 HD
HETATM    4  H           1     -18.974  -6.228  -7.433  0.00  0.00     0.275 HD
HETATM    5  H           1     -20.578  -6.763  -7.676  0.00  0.00     0.275 HD
ENDBRANCH   1   2
BRANCH   1   6
HETATM    6  C           1     -21.213  -3.893  -6.962  0.00  0.00     0.052 C 
BRANCH   6   7
HETATM    7  C           1     -21.397  -4.027  -8.467  0.00  0.00     0.105 C 
BRANCH   7   8
HETATM    8  C           1     -22.863  -3.924  -8.808  0.00  0.00     0.215 C 
HETATM    9  N           1     -23.808  -4.141  -7.842  0.00  0.00    -0.370 N 
HETATM   10  H           1     -24.791  -4.072  -8.071  0.00  0.00     0.159 HD
HETATM   11  H           1     -23.523  -4.371  -6.899  0.00  0.00     0.159 HD
HETATM   12  O           1     -23.203  -3.650  -9.935  0.00  0.00    -0.274 OA
ENDBRANCH   7   8
ENDBRANCH   6   7
ENDBRANCH   1   6
BRANCH   1  13
HETATM   13  C           1     -21.285  -5.907  -5.525  0.00  0.00     0.249 C 
HETATM   14  O           1     -22.487  -5.803  -5.577  0.00  0.00    -0.271 OA
HETATM   15  N           1     -20.712  -6.776  -4.635  0.00  0.00    -0.344 N 
HETATM   16  H           1     -19.705  -6.864  -4.592  0.00  0.00     0.163 HD
BRANCH  15  17
HETATM   17  C           1     -21.548  -7.572  -3.757  0.00  0.00     0.189 C 
BRANCH  17  18
HETATM   18  C           1     -20.927  -8.951  -3.578  0.00  0.00     0.014 C 
HETATM   19  C           1     -21.849 -10.003  -4.178  0.00  0.00     0.012 C 
BRANCH  18  20
HETATM   20  C           1     -19.579  -8.995  -4.284  0.00  0.00     0.002 C 
HETATM   21  C           1     -18.492  -9.372  -3.285  0.00  0.00     0.005 C 
ENDBRANCH  18  20
ENDBRANCH  17  18
BRANCH  17  22
HETATM   22  C           1     -21.656  -6.890  -2.415  0.00  0.00     0.197 C 
HETATM   23  O           1     -20.991  -7.313  -1.444  0.00  0.00    -0.646 OA
HETATM   24  O           1     -22.410  -5.904  -2.273  0.00  0.00    -0.646 OA
ENDBRANCH  17  22
ENDBRANCH  15  17
ENDBRANCH   1  13
TORSDOF 9
ENDMDL
MODEL 4
REMARK VINA RESULT:      -6.0     13.467     16.313
REMARK  9 active torsions:
REMARK  status: ('A' for Active; 'I' for Inactive)
REMARK       I    between atoms: N_1  and  C_13 
REMARK    1  A    between atoms: N_3  and  C_22 
REMARK    2  A    between atoms: C_5  and  C_16 
REMARK    3  A    between atoms: C_5  and  C_6 
REMARK    4  A    between atoms: C_5  and  N_24 
REMARK    5  A    between atoms: C_13  and  C_18 
REMARK    6  A    between atoms: C_16  and  C_20 
REMARK    7  A    between atoms: C_18  and  C_19 
REMARK    8  A    between atoms: C_19  and  C_22 
REMARK    9  A    between atoms: C_22  and  C_23 
REMARK       I    between atoms: C_23  and  N_24 
ROOT
HETATM    1  C           1     -22.118  -4.519  -7.162  0.00  0.00     0.275 C 
ENDROOT
BRANCH   1   2
HETATM    2  N           1     -21.711  -3.076  -7.143  0.00  0.00    -0.066 N 
HETATM    3  H           1     -22.274  -2.563  -6.426  0.00  0.00     0.275 HD
HETATM    4  H           1     -20.697  -3.004  -6.903  0.00  0.00     0.275 HD
HETATM    5  H           1     -21.880  -2.653  -8.084  0.00  0.00     0.275 HD
ENDBRANCH   1   2
BRANCH   1   6
HETATM    6  C           1     -22.084  -5.036  -8.594  0.00  0.00     0.052 C 
BRANCH   6   7
HETATM    7  C           1     -22.556  -3.941  -9.542  0.00  0.00     0.105 C 
BRANCH   7   8
HETATM    8  C           1     -23.803  -4.398 -10.260  0.00  0.00     0.215 C 
HETATM    9  N           1     -24.979  -4.532  -9.573  0.00  0.00    -0.370 N 
HETATM   10  H           1     -25.814  -4.838 -10.055  0.00  0.00     0.159 HD
HETATM   11  H           1     -25.012  -4.325  -8.583  0.00  0.00     0.159 HD
HETATM   12  O           1     -23.761  -4.645 -11.442  0.00  0.00    -0.274 OA
ENDBRANCH   7   8
ENDBRANCH   6   7
ENDBRANCH   1   6
BRANCH   1  13
HETATM   13  C           1     -21.163  -5.321  -6.314  0.00  0.00     0.249 C 
HETATM   14  O           1     -19.975  -5.112  -6.380  0.00  0.00    -0.271 OA
HETATM   15  N           1     -21.642  -6.287  -5.470  0.00  0.00    -0.344 N 
HETATM   16  H           1     -22.637  -6.462  -5.415  0.00  0.00     0.163 HD
BRANCH  15  17
HETATM   17  C           1     -20.724  -7.058  -4.655  0.00  0.00     0.189 C 
BRANCH  17  18
HETATM   18  C           1     -21.415  -7.466  -3.360  0.00  0.00     0.014 C 
HETATM   19  C           1     -20.423  -8.197  -2.465  0.00  0.00     0.012 C 
BRANCH  18  20
HETATM   20  C           1     -21.926  -6.223  -2.645  0.00  0.00     0.002 C 
HETATM   21  C           1     -22.323  -6.582  -1.219  0.00  0.00     0.005 C 
ENDBRANCH  18  20
ENDBRANCH  17  18
BRANCH  17  22
HETATM   22  C           1     -20.300  -8.294  -5.410  0.00  0.00     0.197 C 
HETATM   23  O           1     -21.154  -9.142  -5.751  0.00  0.00    -0.646 OA
HETATM   24  O           1     -19.096  -8.471  -5.694  0.00  0.00    -0.646 OA
ENDBRANCH  17  22
ENDBRANCH  15  17
ENDBRANCH   1  13
TORSDOF 9
ENDMDL
MODEL 5
REMARK VINA RESULT:      -6.0      2.364      3.191
REMARK  9 active torsions:
REMARK  status: ('A' for Active; 'I' for Inactive)
REMARK       I    between atoms: N_1  and  C_13 
REMARK    1  A    between atoms: N_3  and  C_22 
REMARK    2  A    between atoms: C_5  and  C_16 
REMARK    3  A    between atoms: C_5  and  C_6 
REMARK    4  A    between atoms: C_5  and  N_24 
REMARK    5  A    between atoms: C_13  and  C_18 
REMARK    6  A    between atoms: C_16  and  C_20 
REMARK    7  A    between atoms: C_18  and  C_19 
REMARK    8  A    between atoms: C_19  and  C_22 
REMARK    9  A    between atoms: C_22  and  C_23 
REMARK       I    between atoms: C_23  and  N_24 
ROOT
HETATM    1  C           1     -33.553  -2.334 -11.632  0.00  0.00     0.275 C 
ENDROOT
BRANCH   1   2
HETATM    2  N           1     -33.909  -1.950 -10.227  0.00  0.00    -0.066 N 
HETATM    3  H           1     -34.365  -1.009 -10.226  0.00  0.00     0.275 HD
HETATM    4  H           1     -34.570  -2.656  -9.830  0.00  0.00     0.275 HD
HETATM    5  H           1     -33.042  -1.916  -9.645  0.00  0.00     0.275 HD
ENDBRANCH   1   2
BRANCH   1   6
HETATM    6  C           1     -33.053  -3.773 -11.654  0.00  0.00     0.052 C 
BRANCH   6   7
HETATM    7  C           1     -33.790  -4.583 -10.596  0.00  0.00     0.105 C 
BRANCH   7   8
HETATM    8  C           1     -34.305  -5.862 -11.210  0.00  0.00     0.215 C 
HETATM    9  N           1     -34.823  -5.854 -12.476  0.00  0.00    -0.370 N 
HETATM   10  H           1     -35.168  -6.712 -12.887  0.00  0.00     0.159 HD
HETATM   11  H           1     -34.861  -4.990 -13.001  0.00  0.00     0.159 HD
HETATM   12  O           1     -34.259  -6.894 -10.582  0.00  0.00    -0.274 OA
ENDBRANCH   7   8
ENDBRANCH   6   7
ENDBRANCH   1   6
BRANCH   1  13
HETATM   13  C           1     -34.774  -2.214 -12.510  0.00  0.00     0.249 C 
HETATM   14  O           1     -35.808  -2.746 -12.184  0.00  0.00    -0.271 OA
HETATM   15  N           1     -34.711  -1.500 -13.677  0.00  0.00    -0.344 N 
HETATM   16  H           1     -33.845  -1.054 -13.950  0.00  0.00     0.163 HD
BRANCH  15  17
HETATM   17  C           1     -35.884  -1.383 -14.521  0.00  0.00     0.189 C 
BRANCH  17  18
HETATM   18  C           1     -36.473   0.014 -14.380  0.00  0.00     0.014 C 
HETATM   19  C           1     -37.569  -0.003 -13.323  0.00  0.00     0.012 C 
BRANCH  18  20
HETATM   20  C           1     -35.378   0.985 -13.961  0.00  0.00     0.002 C 
HETATM   21  C           1     -35.157   2.011 -15.066  0.00  0.00     0.005 C 
ENDBRANCH  18  20
ENDBRANCH  17  18
BRANCH  17  22
HETATM   22  C           1     -35.493  -1.622 -15.959  0.00  0.00     0.197 C 
HETATM   23  O           1     -34.725  -2.565 -16.250  0.00  0.00    -0.646 OA
HETATM   24  O           1     -35.937  -0.878 -16.860  0.00  0.00    -0.646 OA
ENDBRANCH  17  22
ENDBRANCH  15  17
ENDBRANCH   1  13
TORSDOF 9
ENDMDL
MODEL 6
REMARK VINA RESULT:      -5.6     12.790     15.574
REMARK  9 active torsions:
REMARK  status: ('A' for Active; 'I' for Inactive)
REMARK       I    between atoms: N_1  and  C_13 
REMARK    1  A    between atoms: N_3  and  C_22 
REMARK    2  A    between atoms: C_5  and  C_16 
REMARK    3  A    between atoms: C_5  and  C_6 
REMARK    4  A    between atoms: C_5  and  N_24 
REMARK    5  A    between atoms: C_13  and  C_18 
REMARK    6  A    between atoms: C_16  and  C_20 
REMARK    7  A    between atoms: C_18  and  C_19 
REMARK    8  A    between atoms: C_19  and  C_22 
REMARK    9  A    between atoms: C_22  and  C_23 
REMARK       I    between atoms: C_23  and  N_24 
ROOT
HETATM    1  C           1     -21.819  -4.060  -7.833  0.00  0.00     0.275 C 
ENDROOT
BRANCH   1   2
HETATM    2  N           1     -20.321  -4.027  -7.758  0.00  0.00    -0.066 N 
HETATM    3  H           1     -19.969  -4.944  -7.398  0.00  0.00     0.275 HD
HETATM    4  H           1     -19.929  -3.856  -8.712  0.00  0.00     0.275 HD
HETATM    5  H           1     -20.020  -3.262  -7.113  0.00  0.00     0.275 HD
ENDBRANCH   1   2
BRANCH   1   6
HETATM    6  C           1     -22.247  -4.615  -9.185  0.00  0.00     0.052 C 
BRANCH   6   7
HETATM    7  C           1     -22.843  -3.496 -10.028  0.00  0.00     0.105 C 
BRANCH   7   8
HETATM    8  C           1     -24.320  -3.739 -10.219  0.00  0.00     0.215 C 
HETATM    9  N           1     -24.974  -4.640  -9.422  0.00  0.00    -0.370 N 
HETATM   10  H           1     -25.964  -4.803  -9.549  0.00  0.00     0.159 HD
HETATM   11  H           1     -24.466  -5.143  -8.706  0.00  0.00     0.159 HD
HETATM   12  O           1     -24.926  -3.139 -11.074  0.00  0.00    -0.274 OA
ENDBRANCH   7   8
ENDBRANCH   6   7
ENDBRANCH   1   6
BRANCH   1  13
HETATM   13  C           1     -22.357  -4.942  -6.734  0.00  0.00     0.249 C 
HETATM   14  O           1     -23.521  -4.871  -6.419  0.00  0.00    -0.271 OA
HETATM   15  N           1     -21.527  -5.822  -6.093  0.00  0.00    -0.344 N 
HETATM   16  H           1     -20.552  -5.881  -6.358  0.00  0.00     0.163 HD
BRANCH  15  17
HETATM   17  C           1     -22.045  -6.670  -5.037  0.00  0.00     0.189 C 
BRANCH  17  18
HETATM   18  C           1     -21.389  -8.042  -5.122  0.00  0.00     0.014 C 
HETATM   19  C           1     -19.918  -7.879  -5.480  0.00  0.00     0.012 C 
BRANCH  18  20
HETATM   20  C           1     -21.508  -8.744  -3.776  0.00  0.00     0.002 C 
HETATM   21  C           1     -22.007 -10.168  -3.987  0.00  0.00     0.005 C 
ENDBRANCH  18  20
ENDBRANCH  17  18
BRANCH  17  22
HETATM   22  C           1     -21.737  -6.047  -3.698  0.00  0.00     0.197 C 
HETATM   23  O           1     -22.585  -6.091  -2.779  0.00  0.00    -0.646 OA
HETATM   24  O           1     -20.637  -5.487  -3.506  0.00  0.00    -0.646 OA
ENDBRANCH  17  22
ENDBRANCH  15  17
ENDBRANCH   1  13
TORSDOF 9
ENDMDL
MODEL 7
REMARK VINA RESULT:      -5.6      1.896      2.713
REMARK  9 active torsions:
REMARK  status: ('A' for Active; 'I' for Inactive)
REMARK       I    between atoms: N_1  and  C_13 
REMARK    1  A    between atoms: N_3  and  C_22 
REMARK    2  A    between atoms: C_5  and  C_16 
REMARK    3  A    between atoms: C_5  and  C_6 
REMARK    4  A    between atoms: C_5  and  N_24 
REMARK    5  A    between atoms: C_13  and  C_18 
REMARK    6  A    between atoms: C_16  and  C_20 
REMARK    7  A    between atoms: C_18  and  C_19 
REMARK    8  A    between atoms: C_19  and  C_22 
REMARK    9  A    between atoms: C_22  and  C_23 
REMARK       I    between atoms: C_23  and  N_24 
ROOT
HETATM    1  C           1     -33.836  -4.387 -12.474  0.00  0.00     0.275 C 
ENDROOT
BRANCH   1   2
HETATM    2  N           1     -32.679  -3.986 -11.609  0.00  0.00    -0.066 N 
HETATM    3  H           1     -33.016  -3.803 -10.636  0.00  0.00     0.275 HD
HETATM    4  H           1     -31.974  -4.757 -11.592  0.00  0.00     0.275 HD
HETATM    5  H           1     -32.240  -3.119 -11.994  0.00  0.00     0.275 HD
ENDBRANCH   1   2
BRANCH   1   6
HETATM    6  C           1     -34.501  -5.626 -11.888  0.00  0.00     0.052 C 
BRANCH   6   7
HETATM    7  C           1     -33.684  -6.131 -10.707  0.00  0.00     0.105 C 
BRANCH   7   8
HETATM    8  C           1     -34.254  -7.442 -10.222  0.00  0.00     0.215 C 
HETATM    9  N           1     -33.557  -8.604 -10.416  0.00  0.00    -0.370 N 
HETATM   10  H           1     -33.940  -9.483 -10.091  0.00  0.00     0.159 HD
HETATM   11  H           1     -32.661  -8.585 -10.884  0.00  0.00     0.159 HD
HETATM   12  O           1     -35.324  -7.465  -9.663  0.00  0.00    -0.274 OA
ENDBRANCH   7   8
ENDBRANCH   6   7
ENDBRANCH   1   6
BRANCH   1  13
HETATM   13  C           1     -34.837  -3.259 -12.529  0.00  0.00     0.249 C 
HETATM   14  O           1     -35.775  -3.246 -11.769  0.00  0.00    -0.271 OA
HETATM   15  N           1     -34.680  -2.249 -13.441  0.00  0.00    -0.344 N 
HETATM   16  H           1     -33.894  -2.260 -14.077  0.00  0.00     0.163 HD
BRANCH  15  17
HETATM   17  C           1     -35.641  -1.165 -13.494  0.00  0.00     0.189 C 
BRANCH  17  18
HETATM   18  C           1     -35.191  -0.042 -12.568  0.00  0.00     0.014 C 
HETATM   19  C           1     -34.625   1.102 -13.398  0.00  0.00     0.012 C 
BRANCH  18  20
HETATM   20  C           1     -36.382   0.456 -11.760  0.00  0.00     0.002 C 
HETATM   21  C           1     -36.459  -0.306 -10.444  0.00  0.00     0.005 C 
ENDBRANCH  18  20
ENDBRANCH  17  18
BRANCH  17  22
HETATM   22  C           1     -35.732  -0.644 -14.908  0.00  0.00     0.197 C 
HETATM   23  O           1     -34.807  -0.872 -15.718  0.00  0.00    -0.646 OA
HETATM   24  O           1     -36.731   0.014 -15.269  0.00  0.00    -0.646 OA
ENDBRANCH  17  22
ENDBRANCH  15  17
ENDBRANCH   1  13
TORSDOF 9
ENDMDL
MODEL 8
REMARK VINA RESULT:      -5.4      2.230      2.950
REMARK  9 active torsions:
REMARK  status: ('A' for Active; 'I' for Inactive)
REMARK       I    between atoms: N_1  and  C_13 
REMARK    1  A    between atoms: N_3  and  C_22 
REMARK    2  A    between atoms: C_5  and  C_16 
REMARK    3  A    between atoms: C_5  and  C_6 
REMARK    4  A    between atoms: C_5  and  N_24 
REMARK    5  A    between atoms: C_13  and  C_18 
REMARK    6  A    between atoms: C_16  and  C_20 
REMARK    7  A    between atoms: C_18  and  C_19 
REMARK    8  A    between atoms: C_19  and  C_22 
REMARK    9  A    between atoms: C_22  and  C_23 
REMARK       I    between atoms: C_23  and  N_24 
ROOT
HETATM    1  C           1     -34.229  -3.767 -13.261  0.00  0.00     0.275 C 
ENDROOT
BRANCH   1   2
HETATM    2  N           1     -33.529  -4.042 -14.558  0.00  0.00    -0.066 N 
HETATM    3  H           1     -32.506  -4.173 -14.383  0.00  0.00     0.275 HD
HETATM    4  H           1     -33.921  -4.910 -14.988  0.00  0.00     0.275 HD
HETATM    5  H           1     -33.669  -3.236 -15.208  0.00  0.00     0.275 HD
ENDBRANCH   1   2
BRANCH   1   6
HETATM    6  C           1     -33.195  -3.569 -12.159  0.00  0.00     0.052 C 
BRANCH   6   7
HETATM    7  C           1     -32.743  -4.926 -11.637  0.00  0.00     0.105 C 
BRANCH   7   8
HETATM    8  C           1     -33.909  -5.634 -10.993  0.00  0.00     0.215 C 
HETATM    9  N           1     -34.491  -6.703 -11.618  0.00  0.00    -0.370 N 
HETATM   10  H           1     -35.274  -7.177 -11.186  0.00  0.00     0.159 HD
HETATM   11  H           1     -34.140  -7.018 -12.513  0.00  0.00     0.159 HD
HETATM   12  O           1     -34.328  -5.256  -9.925  0.00  0.00    -0.274 OA
ENDBRANCH   7   8
ENDBRANCH   6   7
ENDBRANCH   1   6
BRANCH   1  13
HETATM   13  C           1     -35.065  -2.518 -13.397  0.00  0.00     0.249 C 
HETATM   14  O           1     -35.774  -2.165 -12.486  0.00  0.00    -0.271 OA
HETATM   15  N           1     -35.019  -1.786 -14.552  0.00  0.00    -0.344 N 
HETATM   16  H           1     -34.424  -2.082 -15.315  0.00  0.00     0.163 HD
BRANCH  15  17
HETATM   17  C           1     -35.822  -0.585 -14.683  0.00  0.00     0.189 C 
BRANCH  17  18
HETATM   18  C           1     -34.911   0.609 -14.934  0.00  0.00     0.014 C 
HETATM   19  C           1     -35.725   1.747 -15.536  0.00  0.00     0.012 C 
BRANCH  18  20
HETATM   20  C           1     -34.297   1.064 -13.617  0.00  0.00     0.002 C 
HETATM   21  C           1     -35.319   0.909 -12.499  0.00  0.00     0.005 C 
ENDBRANCH  18  20
ENDBRANCH  17  18
BRANCH  17  22
HETATM   22  C           1     -36.776  -0.744 -15.841  0.00  0.00     0.197 C 
HETATM   23  O           1     -36.333  -0.859 -17.005  0.00  0.00    -0.646 OA
HETATM   24  O           1     -38.009  -0.759 -15.638  0.00  0.00    -0.646 OA
ENDBRANCH  17  22
ENDBRANCH  15  17
ENDBRANCH   1  13
TORSDOF 9
ENDMDL
MODEL 9
REMARK VINA RESULT:      -5.3     16.279     18.640
REMARK  9 active torsions:
REMARK  status: ('A' for Active; 'I' for Inactive)
REMARK       I    between atoms: N_1  and  C_13 
REMARK    1  A    between atoms: N_3  and  C_22 
REMARK    2  A    between atoms: C_5  and  C_16 
REMARK    3  A    between atoms: C_5  and  C_6 
REMARK    4  A    between atoms: C_5  and  N_24 
REMARK    5  A    between atoms: C_13  and  C_18 
REMARK    6  A    between atoms: C_16  and  C_20 
REMARK    7  A    between atoms: C_18  and  C_19 
REMARK    8  A    between atoms: C_19  and  C_22 
REMARK    9  A    between atoms: C_22  and  C_23 
REMARK       I    between atoms: C_23  and  N_24 
ROOT
HETATM    1  C           1     -21.742  -7.466  -4.188  0.00  0.00     0.275 C 
ENDROOT
BRANCH   1   2
HETATM    2  N           1     -22.706  -6.317  -4.192  0.00  0.00    -0.066 N 
HETATM    3  H           1     -22.274  -5.497  -3.708  0.00  0.00     0.275 HD
HETATM    4  H           1     -22.933  -6.057  -5.178  0.00  0.00     0.275 HD
HETATM    5  H           1     -23.581  -6.594  -3.693  0.00  0.00     0.275 HD
ENDBRANCH   1   2
BRANCH   1   6
HETATM    6  C           1     -20.517  -7.103  -5.018  0.00  0.00     0.052 C 
BRANCH   6   7
HETATM    7  C           1     -20.551  -5.618  -5.352  0.00  0.00     0.105 C 
BRANCH   7   8
HETATM    8  C           1     -20.329  -5.429  -6.833  0.00  0.00     0.215 C 
HETATM    9  N           1     -20.572  -4.213  -7.412  0.00  0.00    -0.370 N 
HETATM   10  H           1     -20.423  -4.086  -8.405  0.00  0.00     0.159 HD
HETATM   11  H           1     -20.901  -3.441  -6.848  0.00  0.00     0.159 HD
HETATM   12  O           1     -19.936  -6.351  -7.507  0.00  0.00    -0.274 OA
ENDBRANCH   7   8
ENDBRANCH   6   7
ENDBRANCH   1   6
BRANCH   1  13
HETATM   13  C           1     -21.320  -7.763  -2.771  0.00  0.00     0.249 C 
HETATM   14  O           1     -20.730  -6.927  -2.129  0.00  0.00    -0.271 OA
HETATM   15  N           1     -21.605  -8.980  -2.212  0.00  0.00    -0.344 N 
HETATM   16  H           1     -22.100  -9.679  -2.750  0.00  0.00     0.163 HD
BRANCH  15  17
HETATM   17  C           1     -21.200  -9.265  -0.849  0.00  0.00     0.189 C 
BRANCH  17  18
HETATM   18  C           1     -22.434  -9.543  -0.001  0.00  0.00     0.014 C 
HETATM   19  C           1     -23.101  -8.226   0.370  0.00  0.00     0.012 C 
BRANCH  18  20
HETATM   20  C           1     -23.411 -10.402  -0.794  0.00  0.00     0.002 C 
HETATM   21  C           1     -23.763 -11.646   0.010  0.00  0.00     0.005 C 
ENDBRANCH  18  20
ENDBRANCH  17  18
BRANCH  17  22
HETATM   22  C           1     -20.298 -10.475  -0.837  0.00  0.00     0.197 C 
HETATM   23  O           1     -20.069 -11.073   0.237  0.00  0.00    -0.646 OA
HETATM   24  O           1     -19.780 -10.880  -1.900  0.00  0.00    -0.646 OA
ENDBRANCH  17  22
ENDBRANCH  15  17
ENDBRANCH   1  13
TORSDOF 9
ENDMDL
