MODEL 1
REMARK VINA RESULT:      -7.5      0.000      0.000
REMARK  18 active torsions:
REMARK  status: ('A' for Active; 'I' for Inactive)
REMARK       I    between atoms: N_1  and  C_41 
REMARK    1  A    between atoms: N_2  and  C_23 
REMARK    2  A    between atoms: C_6  and  O_7 
REMARK    3  A    between atoms: O_7  and  P_8 
REMARK    4  A    between atoms: P_8  and  O_10 
REMARK    5  A    between atoms: N_14  and  C_35 
REMARK    6  A    between atoms: N_14  and  C_15 
REMARK    7  A    between atoms: C_15  and  C_16 
REMARK    8  A    between atoms: C_16  and  C_17 
REMARK    9  A    between atoms: C_17  and  C_18 
REMARK   10  A    between atoms: C_17  and  N_21 
REMARK       I    between atoms: N_21  and  C_22 
REMARK   11  A    between atoms: C_22  and  C_23 
REMARK   12  A    between atoms: C_23  and  C_30 
REMARK   13  A    between atoms: C_26  and  C_30 
REMARK   14  A    between atoms: C_26  and  C_27 
REMARK   15  A    between atoms: C_27  and  N_40 
REMARK   16  A    between atoms: C_33  and  C_35 
REMARK   17  A    between atoms: C_35  and  C_36 
REMARK   18  A    between atoms: C_36  and  C_37 
REMARK       I    between atoms: N_40  and  C_41 
ROOT
HETATM    1  C           1     -21.010  -6.519  -5.267  0.00  0.00     0.187 C 
ENDROOT
BRANCH   1   2
HETATM    2  C           1     -22.046  -6.622  -4.154  0.00  0.00     0.066 C 
BRANCH   2   3
HETATM    3  C           1     -21.415  -6.206  -2.832  0.00  0.00     0.273 C 
BRANCH   3   4
HETATM    4  N           1     -22.274  -6.593  -1.747  0.00  0.00     0.098 N 
HETATM    5  H           1     -23.243  -6.601  -2.067  0.00  0.00     0.317 HD
BRANCH   4   6
HETATM    6  C           1     -21.893  -7.916  -1.337  0.00  0.00     0.324 C 
BRANCH   6   7
HETATM    7  C           1     -22.435  -8.191   0.044  0.00  0.00     0.207 C 
HETATM    8  O           1     -21.897  -9.059   0.765  0.00  0.00    -0.646 OA
HETATM    9  O           1     -23.422  -7.550   0.467  0.00  0.00    -0.646 OA
ENDBRANCH   6   7
BRANCH   6  10
HETATM   10  C           1     -20.374  -8.023  -1.318  0.00  0.00     0.085 C 
BRANCH  10  11
HETATM   11  C           1     -19.944  -9.184  -2.160  0.00  0.00    -0.055 A 
HETATM   12  C           1     -20.824 -10.240  -2.394  0.00  0.00     0.010 A 
HETATM   13  C           1     -20.425 -11.322  -3.179  0.00  0.00     0.038 A 
HETATM   14  C           1     -19.144 -11.346  -3.731  0.00  0.00     0.081 A 
HETATM   15  C           1     -18.263 -10.289  -3.498  0.00  0.00     0.038 A 
HETATM   16  C           1     -18.663  -9.208  -2.713  0.00  0.00     0.010 A 
BRANCH  14  17
HETATM   17  O           1     -18.755 -12.397  -4.493  0.00  0.00    -0.247 OA
BRANCH  17  18
HETATM   18  P           1     -18.623 -12.168  -6.087  0.00  0.00     0.411 P 
HETATM   19  O           1     -18.852 -13.450  -6.791  0.00  0.00    -0.624 OA
HETATM   20  O           1     -17.266 -11.669  -6.402  0.00  0.00    -0.624 OA
BRANCH  18  21
HETATM   21  O           1     -19.723 -11.088  -6.568  0.00  0.00    -0.300 OA
HETATM   22  H           1     -20.552 -11.524  -6.470  0.00  0.00     0.223 HD
ENDBRANCH  18  21
ENDBRANCH  17  18
ENDBRANCH  14  17
ENDBRANCH  10  11
ENDBRANCH   6  10
ENDBRANCH   4   6
ENDBRANCH   3   4
ENDBRANCH   2   3
ENDBRANCH   1   2
BRANCH   1  23
HETATM   23  C           1     -20.506  -7.898  -5.615  0.00  0.00     0.196 C 
HETATM   24  O           1     -21.278  -8.880  -5.550  0.00  0.00    -0.646 OA
HETATM   25  O           1     -19.319  -8.059  -5.968  0.00  0.00    -0.646 OA
ENDBRANCH   1  23
BRANCH   1  26
HETATM   26  N           1     -21.617  -5.917  -6.438  0.00  0.00    -0.345 N 
HETATM   27  C           1     -20.882  -5.084  -7.238  0.00  0.00     0.249 C 
HETATM   28  O           1     -19.728  -4.850  -6.968  0.00  0.00    -0.271 OA
HETATM   29  H           1     -22.584  -6.112  -6.664  0.00  0.00     0.163 HD
BRANCH  27  30
HETATM   30  C           1     -21.514  -4.457  -8.456  0.00  0.00     0.274 C 
BRANCH  30  31
HETATM   31  N           1     -22.442  -3.359  -8.029  0.00  0.00    -0.067 N 
HETATM   32  H           1     -23.181  -3.225  -8.755  0.00  0.00     0.275 HD
HETATM   33  H           1     -22.889  -3.615  -7.120  0.00  0.00     0.275 HD
HETATM   34  H           1     -21.901  -2.471  -7.915  0.00  0.00     0.275 HD
ENDBRANCH  30  31
BRANCH  30  35
HETATM   35  C           1     -20.426  -3.883  -9.353  0.00  0.00     0.044 C 
BRANCH  35  36
HETATM   36  C           1     -20.662  -4.330 -10.789  0.00  0.00     0.023 C 
BRANCH  36  37
HETATM   37  C           1     -21.896  -3.630 -11.345  0.00  0.00     0.138 C 
BRANCH  37  38
HETATM   38  N           1     -21.829  -3.608 -12.813  0.00  0.00    -0.227 N 
HETATM   39  H           1     -21.065  -4.127 -13.312  0.00  0.00     0.177 HD
HETATM   40  C           1     -22.694  -2.965 -13.477  0.00  0.00     0.665 C 
HETATM   41  N           1     -23.641  -2.322 -12.859  0.00  0.00    -0.235 N 
HETATM   42  N           1     -22.637  -2.946 -14.741  0.00  0.00    -0.235 N 
HETATM   43  H           1     -24.355  -1.791 -13.407  0.00  0.00     0.174 HD
HETATM   44  H           1     -23.688  -2.337 -11.816  0.00  0.00     0.174 HD
HETATM   45  H           1     -23.354  -2.412 -15.292  0.00  0.00     0.174 HD
HETATM   46  H           1     -21.872  -3.466 -15.239  0.00  0.00     0.174 HD
ENDBRANCH  37  38
ENDBRANCH  36  37
ENDBRANCH  35  36
ENDBRANCH  30  35
ENDBRANCH  27  30
ENDBRANCH   1  26
TORSDOF 18
ENDMDL
MODEL 2
REMARK VINA RESULT:      -7.4      3.991      8.811
REMARK  18 active torsions:
REMARK  status: ('A' for Active; 'I' for Inactive)
REMARK       I    between atoms: N_1  and  C_41 
REMARK    1  A    between atoms: N_2  and  C_23 
REMARK    2  A    between atoms: C_6  and  O_7 
REMARK    3  A    between atoms: O_7  and  P_8 
REMARK    4  A    between atoms: P_8  and  O_10 
REMARK    5  A    between atoms: N_14  and  C_35 
REMARK    6  A    between atoms: N_14  and  C_15 
REMARK    7  A    between atoms: C_15  and  C_16 
REMARK    8  A    between atoms: C_16  and  C_17 
REMARK    9  A    between atoms: C_17  and  C_18 
REMARK   10  A    between atoms: C_17  and  N_21 
REMARK       I    between atoms: N_21  and  C_22 
REMARK   11  A    between atoms: C_22  and  C_23 
REMARK   12  A    between atoms: C_23  and  C_30 
REMARK   13  A    between atoms: C_26  and  C_30 
REMARK   14  A    between atoms: C_26  and  C_27 
REMARK   15  A    between atoms: C_27  and  N_40 
REMARK   16  A    between atoms: C_33  and  C_35 
REMARK   17  A    between atoms: C_35  and  C_36 
REMARK   18  A    between atoms: C_36  and  C_37 
REMARK       I    between atoms: N_40  and  C_41 
ROOT
HETATM    1  C           1     -21.513  -7.754  -1.524  0.00  0.00     0.187 C 
ENDROOT
BRANCH   1   2
HETATM    2  C           1     -22.085  -6.537  -2.240  0.00  0.00     0.066 C 
BRANCH   2   3
HETATM    3  C           1     -21.400  -6.372  -3.590  0.00  0.00     0.273 C 
BRANCH   3   4
HETATM    4  N           1     -22.388  -6.127  -4.604  0.00  0.00     0.098 N 
HETATM    5  H           1     -22.748  -5.177  -4.505  0.00  0.00     0.317 HD
BRANCH   4   6
HETATM    6  C           1     -21.747  -6.265  -5.883  0.00  0.00     0.324 C 
BRANCH   6   7
HETATM    7  C           1     -20.805  -7.444  -5.849  0.00  0.00     0.207 C 
HETATM    8  O           1     -19.597  -7.285  -6.126  0.00  0.00    -0.646 OA
HETATM    9  O           1     -21.234  -8.577  -5.543  0.00  0.00    -0.646 OA
ENDBRANCH   6   7
BRANCH   6  10
HETATM   10  C           1     -20.965  -4.997  -6.198  0.00  0.00     0.085 C 
BRANCH  10  11
HETATM   11  C           1     -21.313  -4.523  -7.575  0.00  0.00    -0.055 A 
HETATM   12  C           1     -22.605  -4.080  -7.853  0.00  0.00     0.010 A 
HETATM   13  C           1     -22.930  -3.637  -9.136  0.00  0.00     0.038 A 
HETATM   14  C           1     -21.961  -3.639 -10.139  0.00  0.00     0.081 A 
HETATM   15  C           1     -20.668  -4.082  -9.860  0.00  0.00     0.038 A 
HETATM   16  C           1     -20.344  -4.524  -8.578  0.00  0.00     0.010 A 
BRANCH  14  17
HETATM   17  O           1     -22.277  -3.209 -11.385  0.00  0.00    -0.247 OA
BRANCH  17  18
HETATM   18  P           1     -23.606  -3.809 -12.080  0.00  0.00     0.411 P 
HETATM   19  O           1     -24.800  -3.124 -11.536  0.00  0.00    -0.624 OA
HETATM   20  O           1     -23.698  -5.259 -11.798  0.00  0.00    -0.624 OA
BRANCH  18  21
HETATM   21  O           1     -23.532  -3.573 -13.676  0.00  0.00    -0.300 OA
HETATM   22  H           1     -22.682  -3.891 -13.930  0.00  0.00     0.223 HD
ENDBRANCH  18  21
ENDBRANCH  17  18
ENDBRANCH  14  17
ENDBRANCH  10  11
ENDBRANCH   6  10
ENDBRANCH   4   6
ENDBRANCH   3   4
ENDBRANCH   2   3
ENDBRANCH   1   2
BRANCH   1  23
HETATM   23  C           1     -21.996  -7.770  -0.095  0.00  0.00     0.196 C 
HETATM   24  O           1     -23.164  -7.412   0.174  0.00  0.00    -0.646 OA
HETATM   25  O           1     -21.230  -8.143   0.819  0.00  0.00    -0.646 OA
ENDBRANCH   1  23
BRANCH   1  26
HETATM   26  N           1     -21.953  -8.961  -2.197  0.00  0.00    -0.345 N 
HETATM   27  C           1     -21.157 -10.075  -2.194  0.00  0.00     0.249 C 
HETATM   28  O           1     -20.089 -10.053  -1.631  0.00  0.00    -0.271 OA
HETATM   29  H           1     -22.848  -8.980  -2.669  0.00  0.00     0.163 HD
BRANCH  27  30
HETATM   30  C           1     -21.615 -11.331  -2.893  0.00  0.00     0.274 C 
BRANCH  30  31
HETATM   31  N           1     -21.759 -11.061  -4.362  0.00  0.00    -0.067 N 
HETATM   32  H           1     -22.010 -11.946  -4.856  0.00  0.00     0.275 HD
HETATM   33  H           1     -22.513 -10.352  -4.513  0.00  0.00     0.275 HD
HETATM   34  H           1     -20.855 -10.695  -4.738  0.00  0.00     0.275 HD
ENDBRANCH  30  31
BRANCH  30  35
HETATM   35  C           1     -20.588 -12.435  -2.679  0.00  0.00     0.044 C 
BRANCH  35  36
HETATM   36  C           1     -19.881 -12.734  -3.993  0.00  0.00     0.023 C 
BRANCH  36  37
HETATM   37  C           1     -18.465 -12.172  -3.948  0.00  0.00     0.138 C 
BRANCH  37  38
HETATM   38  N           1     -18.164 -11.499  -5.221  0.00  0.00    -0.227 N 
HETATM   39  H           1     -17.966 -12.067  -6.081  0.00  0.00     0.177 HD
HETATM   40  C           1     -18.145 -10.235  -5.279  0.00  0.00     0.665 C 
HETATM   41  N           1     -18.391  -9.531  -4.213  0.00  0.00    -0.235 N 
HETATM   42  N           1     -17.886  -9.655  -6.374  0.00  0.00    -0.235 N 
HETATM   43  H           1     -18.374  -8.488  -4.261  0.00  0.00     0.174 HD
HETATM   44  H           1     -18.604 -10.010  -3.309  0.00  0.00     0.174 HD
HETATM   45  H           1     -17.870  -8.607  -6.422  0.00  0.00     0.174 HD
HETATM   46  H           1     -17.688 -10.224  -7.234  0.00  0.00     0.174 HD
ENDBRANCH  37  38
ENDBRANCH  36  37
ENDBRANCH  35  36
ENDBRANCH  30  35
ENDBRANCH  27  30
ENDBRANCH   1  26
TORSDOF 18
ENDMDL
MODEL 3
REMARK VINA RESULT:      -7.3      3.953      9.575
REMARK  18 active torsions:
REMARK  status: ('A' for Active; 'I' for Inactive)
REMARK       I    between atoms: N_1  and  C_41 
REMARK    1  A    between atoms: N_2  and  C_23 
REMARK    2  A    between atoms: C_6  and  O_7 
REMARK    3  A    between atoms: O_7  and  P_8 
REMARK    4  A    between atoms: P_8  and  O_10 
REMARK    5  A    between atoms: N_14  and  C_35 
REMARK    6  A    between atoms: N_14  and  C_15 
REMARK    7  A    between atoms: C_15  and  C_16 
REMARK    8  A    between atoms: C_16  and  C_17 
REMARK    9  A    between atoms: C_17  and  C_18 
REMARK   10  A    between atoms: C_17  and  N_21 
REMARK       I    between atoms: N_21  and  C_22 
REMARK   11  A    between atoms: C_22  and  C_23 
REMARK   12  A    between atoms: C_23  and  C_30 
REMARK   13  A    between atoms: C_26  and  C_30 
REMARK   14  A    between atoms: C_26  and  C_27 
REMARK   15  A    between atoms: C_27  and  N_40 
REMARK   16  A    between atoms: C_33  and  C_35 
REMARK   17  A    between atoms: C_35  and  C_36 
REMARK   18  A    between atoms: C_36  and  C_37 
REMARK       I    between atoms: N_40  and  C_41 
ROOT
HETATM    1  C           1     -21.314  -7.457  -1.624  0.00  0.00     0.187 C 
ENDROOT
BRANCH   1   2
HETATM    2  C           1     -21.963  -6.282  -2.345  0.00  0.00     0.066 C 
BRANCH   2   3
HETATM    3  C           1     -21.321  -6.109  -3.715  0.00  0.00     0.273 C 
BRANCH   3   4
HETATM    4  N           1     -22.338  -6.136  -4.730  0.00  0.00     0.098 N 
HETATM    5  H           1     -22.815  -5.234  -4.757  0.00  0.00     0.317 HD
BRANCH   4   6
HETATM    6  C           1     -21.692  -6.375  -5.991  0.00  0.00     0.324 C 
BRANCH   6   7
HETATM    7  C           1     -20.863  -7.633  -5.901  0.00  0.00     0.207 C 
HETATM    8  O           1     -19.617  -7.566  -5.975  0.00  0.00    -0.646 OA
HETATM    9  O           1     -21.423  -8.741  -5.753  0.00  0.00    -0.646 OA
ENDBRANCH   6   7
BRANCH   6  10
HETATM   10  C           1     -20.791  -5.195  -6.331  0.00  0.00     0.085 C 
BRANCH  10  11
HETATM   11  C           1     -21.197  -4.620  -7.653  0.00  0.00    -0.055 A 
HETATM   12  C           1     -20.281  -4.575  -8.703  0.00  0.00     0.010 A 
HETATM   13  C           1     -20.658  -4.040  -9.935  0.00  0.00     0.038 A 
HETATM   14  C           1     -21.952  -3.551 -10.116  0.00  0.00     0.081 A 
HETATM   15  C           1     -22.868  -3.597  -9.065  0.00  0.00     0.038 A 
HETATM   16  C           1     -22.491  -4.132  -7.833  0.00  0.00     0.010 A 
BRANCH  14  17
HETATM   17  O           1     -22.318  -3.031 -11.312  0.00  0.00    -0.247 OA
BRANCH  17  18
HETATM   18  P           1     -23.644  -3.622 -12.021  0.00  0.00     0.411 P 
HETATM   19  O           1     -23.712  -3.144 -13.420  0.00  0.00    -0.624 OA
HETATM   20  O           1     -24.843  -3.162 -11.284  0.00  0.00    -0.624 OA
BRANCH  18  21
HETATM   21  O           1     -23.588  -5.236 -12.007  0.00  0.00    -0.300 OA
HETATM   22  H           1     -23.929  -5.484 -11.164  0.00  0.00     0.223 HD
ENDBRANCH  18  21
ENDBRANCH  17  18
ENDBRANCH  14  17
ENDBRANCH  10  11
ENDBRANCH   6  10
ENDBRANCH   4   6
ENDBRANCH   3   4
ENDBRANCH   2   3
ENDBRANCH   1   2
BRANCH   1  23
HETATM   23  C           1     -22.035  -7.710  -0.324  0.00  0.00     0.196 C 
HETATM   24  O           1     -23.195  -7.273  -0.157  0.00  0.00    -0.646 OA
HETATM   25  O           1     -21.474  -8.357   0.587  0.00  0.00    -0.646 OA
ENDBRANCH   1  23
BRANCH   1  26
HETATM   26  N           1     -21.393  -8.640  -2.459  0.00  0.00    -0.345 N 
HETATM   27  C           1     -20.310  -9.468  -2.578  0.00  0.00     0.249 C 
HETATM   28  O           1     -19.287  -9.213  -1.989  0.00  0.00    -0.271 OA
HETATM   29  H           1     -22.250  -8.854  -2.953  0.00  0.00     0.163 HD
BRANCH  27  30
HETATM   30  C           1     -20.393 -10.698  -3.447  0.00  0.00     0.274 C 
BRANCH  30  31
HETATM   31  N           1     -19.388 -10.597  -4.555  0.00  0.00    -0.067 N 
HETATM   32  H           1     -19.741 -11.110  -5.394  0.00  0.00     0.275 HD
HETATM   33  H           1     -19.238  -9.592  -4.799  0.00  0.00     0.275 HD
HETATM   34  H           1     -18.483 -11.020  -4.244  0.00  0.00     0.275 HD
ENDBRANCH  30  31
BRANCH  30  35
HETATM   35  C           1     -20.099 -11.934  -2.606  0.00  0.00     0.044 C 
BRANCH  35  36
HETATM   36  C           1     -21.226 -12.943  -2.774  0.00  0.00     0.023 C 
BRANCH  36  37
HETATM   37  C           1     -22.045 -13.009  -1.491  0.00  0.00     0.138 C 
BRANCH  37  38
HETATM   38  N           1     -22.743 -11.731  -1.289  0.00  0.00    -0.227 N 
HETATM   39  H           1     -22.765 -11.017  -2.058  0.00  0.00     0.177 HD
HETATM   40  C           1     -23.320 -11.492  -0.188  0.00  0.00     0.665 C 
HETATM   41  N           1     -23.294 -12.377   0.765  0.00  0.00    -0.235 N 
HETATM   42  N           1     -23.921 -10.392  -0.013  0.00  0.00    -0.235 N 
HETATM   43  H           1     -23.770 -12.180   1.674  0.00  0.00     0.174 HD
HETATM   44  H           1     -22.797 -13.285   0.621  0.00  0.00     0.174 HD
HETATM   45  H           1     -24.400 -10.194   0.901  0.00  0.00     0.174 HD
HETATM   46  H           1     -23.942  -9.678  -0.783  0.00  0.00     0.174 HD
ENDBRANCH  37  38
ENDBRANCH  36  37
ENDBRANCH  35  36
ENDBRANCH  30  35
ENDBRANCH  27  30
ENDBRANCH   1  26
TORSDOF 18
ENDMDL
MODEL 4
REMARK VINA RESULT:      -7.3      4.960      9.581
REMARK  18 active torsions:
REMARK  status: ('A' for Active; 'I' for Inactive)
REMARK       I    between atoms: N_1  and  C_41 
REMARK    1  A    between atoms: N_2  and  C_23 
REMARK    2  A    between atoms: C_6  and  O_7 
REMARK    3  A    between atoms: O_7  and  P_8 
REMARK    4  A    between atoms: P_8  and  O_10 
REMARK    5  A    between atoms: N_14  and  C_35 
REMARK    6  A    between atoms: N_14  and  C_15 
REMARK    7  A    between atoms: C_15  and  C_16 
REMARK    8  A    between atoms: C_16  and  C_17 
REMARK    9  A    between atoms: C_17  and  C_18 
REMARK   10  A    between atoms: C_17  and  N_21 
REMARK       I    between atoms: N_21  and  C_22 
REMARK   11  A    between atoms: C_22  and  C_23 
REMARK   12  A    between atoms: C_23  and  C_30 
REMARK   13  A    between atoms: C_26  and  C_30 
REMARK   14  A    between atoms: C_26  and  C_27 
REMARK   15  A    between atoms: C_27  and  N_40 
REMARK   16  A    between atoms: C_33  and  C_35 
REMARK   17  A    between atoms: C_35  and  C_36 
REMARK   18  A    between atoms: C_36  and  C_37 
REMARK       I    between atoms: N_40  and  C_41 
ROOT
HETATM    1  C           1     -20.827  -7.807  -2.653  0.00  0.00     0.187 C 
ENDROOT
BRANCH   1   2
HETATM    2  C           1     -21.894  -6.868  -3.203  0.00  0.00     0.066 C 
BRANCH   2   3
HETATM    3  C           1     -21.758  -6.776  -4.717  0.00  0.00     0.273 C 
BRANCH   3   4
HETATM    4  N           1     -21.504  -5.412  -5.094  0.00  0.00     0.098 N 
HETATM    5  H           1     -20.682  -5.070  -4.596  0.00  0.00     0.317 HD
BRANCH   4   6
HETATM    6  C           1     -21.251  -5.390  -6.509  0.00  0.00     0.324 C 
BRANCH   6   7
HETATM    7  C           1     -19.791  -5.672  -6.764  0.00  0.00     0.207 C 
HETATM    8  O           1     -19.436  -6.794  -7.184  0.00  0.00    -0.646 OA
HETATM    9  O           1     -18.937  -4.783  -6.555  0.00  0.00    -0.646 OA
ENDBRANCH   6   7
BRANCH   6  10
HETATM   10  C           1     -21.609  -4.018  -7.065  0.00  0.00     0.085 C 
BRANCH  10  11
HETATM   11  C           1     -22.173  -4.169  -8.445  0.00  0.00    -0.055 A 
HETATM   12  C           1     -21.316  -4.315  -9.535  0.00  0.00     0.010 A 
HETATM   13  C           1     -21.840  -4.456 -10.820  0.00  0.00     0.038 A 
HETATM   14  C           1     -23.222  -4.452 -11.013  0.00  0.00     0.081 A 
HETATM   15  C           1     -24.079  -4.308  -9.922  0.00  0.00     0.038 A 
HETATM   16  C           1     -23.554  -4.166  -8.638  0.00  0.00     0.010 A 
BRANCH  14  17
HETATM   17  O           1     -23.731  -4.590 -12.262  0.00  0.00    -0.247 OA
BRANCH  17  18
HETATM   18  P           1     -24.042  -3.248 -13.105  0.00  0.00     0.411 P 
HETATM   19  O           1     -23.095  -2.183 -12.706  0.00  0.00    -0.624 OA
HETATM   20  O           1     -25.427  -2.804 -12.833  0.00  0.00    -0.624 OA
BRANCH  18  21
HETATM   21  O           1     -23.872  -3.553 -14.683  0.00  0.00    -0.300 OA
HETATM   22  H           1     -24.366  -2.877 -15.115  0.00  0.00     0.223 HD
ENDBRANCH  18  21
ENDBRANCH  17  18
ENDBRANCH  14  17
ENDBRANCH  10  11
ENDBRANCH   6  10
ENDBRANCH   4   6
ENDBRANCH   3   4
ENDBRANCH   2   3
ENDBRANCH   1   2
BRANCH   1  23
HETATM   23  C           1     -21.466  -8.799  -1.713  0.00  0.00     0.196 C 
HETATM   24  O           1     -21.322  -8.671  -0.477  0.00  0.00    -0.646 OA
HETATM   25  O           1     -22.140  -9.747  -2.169  0.00  0.00    -0.646 OA
ENDBRANCH   1  23
BRANCH   1  26
HETATM   26  N           1     -20.198  -8.518  -3.749  0.00  0.00    -0.345 N 
HETATM   27  C           1     -18.971  -9.099  -3.573  0.00  0.00     0.249 C 
HETATM   28  O           1     -18.413  -9.021  -2.505  0.00  0.00    -0.271 OA
HETATM   29  H           1     -20.665  -8.584  -4.645  0.00  0.00     0.163 HD
BRANCH  27  30
HETATM   30  C           1     -18.316  -9.838  -4.714  0.00  0.00     0.274 C 
BRANCH  30  31
HETATM   31  N           1     -18.764  -9.244  -6.017  0.00  0.00    -0.067 N 
HETATM   32  H           1     -19.783  -9.020  -5.966  0.00  0.00     0.275 HD
HETATM   33  H           1     -18.223  -8.370  -6.205  0.00  0.00     0.275 HD
HETATM   34  H           1     -18.596  -9.931  -6.788  0.00  0.00     0.275 HD
ENDBRANCH  30  31
BRANCH  30  35
HETATM   35  C           1     -16.803  -9.718  -4.595  0.00  0.00     0.044 C 
BRANCH  35  36
HETATM   36  C           1     -16.162 -10.002  -5.946  0.00  0.00     0.023 C 
BRANCH  36  37
HETATM   37  C           1     -15.828 -11.485  -6.050  0.00  0.00     0.138 C 
BRANCH  37  38
HETATM   38  N           1     -15.092 -11.907  -4.849  0.00  0.00    -0.227 N 
HETATM   39  H           1     -15.535 -11.817  -3.902  0.00  0.00     0.177 HD
HETATM   40  C           1     -13.924 -12.382  -4.959  0.00  0.00     0.665 C 
HETATM   41  N           1     -13.374 -12.495  -6.132  0.00  0.00    -0.235 N 
HETATM   42  N           1     -13.289 -12.746  -3.926  0.00  0.00    -0.235 N 
HETATM   43  H           1     -12.410 -12.887  -6.222  0.00  0.00     0.174 HD
HETATM   44  H           1     -13.898 -12.194  -6.985  0.00  0.00     0.174 HD
HETATM   45  H           1     -12.320 -13.140  -4.016  0.00  0.00     0.174 HD
HETATM   46  H           1     -13.733 -12.655  -2.978  0.00  0.00     0.174 HD
ENDBRANCH  37  38
ENDBRANCH  36  37
ENDBRANCH  35  36
ENDBRANCH  30  35
ENDBRANCH  27  30
ENDBRANCH   1  26
TORSDOF 18
ENDMDL
MODEL 5
REMARK VINA RESULT:      -7.2      4.101      9.337
REMARK  18 active torsions:
REMARK  status: ('A' for Active; 'I' for Inactive)
REMARK       I    between atoms: N_1  and  C_41 
REMARK    1  A    between atoms: N_2  and  C_23 
REMARK    2  A    between atoms: C_6  and  O_7 
REMARK    3  A    between atoms: O_7  and  P_8 
REMARK    4  A    between atoms: P_8  and  O_10 
REMARK    5  A    between atoms: N_14  and  C_35 
REMARK    6  A    between atoms: N_14  and  C_15 
REMARK    7  A    between atoms: C_15  and  C_16 
REMARK    8  A    between atoms: C_16  and  C_17 
REMARK    9  A    between atoms: C_17  and  C_18 
REMARK   10  A    between atoms: C_17  and  N_21 
REMARK       I    between atoms: N_21  and  C_22 
REMARK   11  A    between atoms: C_22  and  C_23 
REMARK   12  A    between atoms: C_23  and  C_30 
REMARK   13  A    between atoms: C_26  and  C_30 
REMARK   14  A    between atoms: C_26  and  C_27 
REMARK   15  A    between atoms: C_27  and  N_40 
REMARK   16  A    between atoms: C_33  and  C_35 
REMARK   17  A    between atoms: C_35  and  C_36 
REMARK   18  A    between atoms: C_36  and  C_37 
REMARK       I    between atoms: N_40  and  C_41 
ROOT
HETATM    1  C           1     -21.269  -7.526  -2.296  0.00  0.00     0.187 C 
ENDROOT
BRANCH   1   2
HETATM    2  C           1     -21.694  -7.544  -3.759  0.00  0.00     0.066 C 
BRANCH   2   3
HETATM    3  C           1     -20.806  -6.599  -4.558  0.00  0.00     0.273 C 
BRANCH   3   4
HETATM    4  N           1     -21.614  -5.571  -5.156  0.00  0.00     0.098 N 
HETATM    5  H           1     -21.386  -4.671  -4.732  0.00  0.00     0.317 HD
BRANCH   4   6
HETATM    6  C           1     -21.304  -5.533  -6.559  0.00  0.00     0.324 C 
BRANCH   6   7
HETATM    7  C           1     -19.848  -5.874  -6.763  0.00  0.00     0.207 C 
HETATM    8  O           1     -19.484  -7.070  -6.784  0.00  0.00    -0.646 OA
HETATM    9  O           1     -19.007  -4.962  -6.910  0.00  0.00    -0.646 OA
ENDBRANCH   6   7
BRANCH   6  10
HETATM   10  C           1     -21.579  -4.136  -7.100  0.00  0.00     0.085 C 
BRANCH  10  11
HETATM   11  C           1     -22.130  -4.237  -8.489  0.00  0.00    -0.055 A 
HETATM   12  C           1     -21.266  -4.235  -9.584  0.00  0.00     0.010 A 
HETATM   13  C           1     -21.778  -4.330 -10.878  0.00  0.00     0.038 A 
HETATM   14  C           1     -23.156  -4.427 -11.076  0.00  0.00     0.081 A 
HETATM   15  C           1     -24.020  -4.431  -9.981  0.00  0.00     0.038 A 
HETATM   16  C           1     -23.507  -4.335  -8.687  0.00  0.00     0.010 A 
BRANCH  14  17
HETATM   17  O           1     -23.654  -4.520 -12.333  0.00  0.00    -0.247 OA
BRANCH  17  18
HETATM   18  P           1     -24.070  -3.152 -13.085  0.00  0.00     0.411 P 
HETATM   19  O           1     -25.479  -2.825 -12.772  0.00  0.00    -0.624 OA
HETATM   20  O           1     -23.919  -3.329 -14.547  0.00  0.00    -0.624 OA
BRANCH  18  21
HETATM   21  O           1     -23.114  -1.950 -12.584  0.00  0.00    -0.300 OA
HETATM   22  H           1     -22.820  -2.214 -11.729  0.00  0.00     0.223 HD
ENDBRANCH  18  21
ENDBRANCH  17  18
ENDBRANCH  14  17
ENDBRANCH  10  11
ENDBRANCH   6  10
ENDBRANCH   4   6
ENDBRANCH   3   4
ENDBRANCH   2   3
ENDBRANCH   1   2
BRANCH   1  23
HETATM   23  C           1     -22.228  -6.672  -1.504  0.00  0.00     0.196 C 
HETATM   24  O           1     -22.539  -5.534  -1.918  0.00  0.00    -0.646 OA
HETATM   25  O           1     -22.712  -7.103  -0.435  0.00  0.00    -0.646 OA
ENDBRANCH   1  23
BRANCH   1  26
HETATM   26  N           1     -21.282  -8.878  -1.773  0.00  0.00    -0.345 N 
HETATM   27  C           1     -20.128  -9.616  -1.754  0.00  0.00     0.249 C 
HETATM   28  O           1     -19.101  -9.140  -2.174  0.00  0.00    -0.271 OA
HETATM   29  H           1     -22.143  -9.277  -1.421  0.00  0.00     0.163 HD
BRANCH  27  30
HETATM   30  C           1     -20.142 -11.023  -1.210  0.00  0.00     0.274 C 
BRANCH  30  31
HETATM   31  N           1     -21.357 -11.742  -1.714  0.00  0.00    -0.067 N 
HETATM   32  H           1     -21.296 -11.846  -2.752  0.00  0.00     0.275 HD
HETATM   33  H           1     -21.411 -12.688  -1.272  0.00  0.00     0.275 HD
HETATM   34  H           1     -22.213 -11.193  -1.470  0.00  0.00     0.275 HD
ENDBRANCH  30  31
BRANCH  30  35
HETATM   35  C           1     -18.890 -11.757  -1.671  0.00  0.00     0.044 C 
BRANCH  35  36
HETATM   36  C           1     -19.248 -12.718  -2.795  0.00  0.00     0.023 C 
BRANCH  36  37
HETATM   37  C           1     -18.740 -12.165  -4.120  0.00  0.00     0.138 C 
BRANCH  37  38
HETATM   38  N           1     -19.874 -11.664  -4.910  0.00  0.00    -0.227 N 
HETATM   39  H           1     -20.700 -12.285  -5.097  0.00  0.00     0.177 HD
HETATM   40  C           1     -19.857 -10.482  -5.363  0.00  0.00     0.665 C 
HETATM   41  N           1     -18.835  -9.711  -5.132  0.00  0.00    -0.235 N 
HETATM   42  N           1     -20.833 -10.050  -6.043  0.00  0.00    -0.235 N 
HETATM   43  H           1     -18.820  -8.736  -5.507  0.00  0.00     0.174 HD
HETATM   44  H           1     -18.029 -10.068  -4.571  0.00  0.00     0.174 HD
HETATM   45  H           1     -20.819  -9.070  -6.420  0.00  0.00     0.174 HD
HETATM   46  H           1     -21.659 -10.672  -6.230  0.00  0.00     0.174 HD
ENDBRANCH  37  38
ENDBRANCH  36  37
ENDBRANCH  35  36
ENDBRANCH  30  35
ENDBRANCH  27  30
ENDBRANCH   1  26
TORSDOF 18
ENDMDL
MODEL 6
REMARK VINA RESULT:      -7.0      4.430     10.119
REMARK  18 active torsions:
REMARK  status: ('A' for Active; 'I' for Inactive)
REMARK       I    between atoms: N_1  and  C_41 
REMARK    1  A    between atoms: N_2  and  C_23 
REMARK    2  A    between atoms: C_6  and  O_7 
REMARK    3  A    between atoms: O_7  and  P_8 
REMARK    4  A    between atoms: P_8  and  O_10 
REMARK    5  A    between atoms: N_14  and  C_35 
REMARK    6  A    between atoms: N_14  and  C_15 
REMARK    7  A    between atoms: C_15  and  C_16 
REMARK    8  A    between atoms: C_16  and  C_17 
REMARK    9  A    between atoms: C_17  and  C_18 
REMARK   10  A    between atoms: C_17  and  N_21 
REMARK       I    between atoms: N_21  and  C_22 
REMARK   11  A    between atoms: C_22  and  C_23 
REMARK   12  A    between atoms: C_23  and  C_30 
REMARK   13  A    between atoms: C_26  and  C_30 
REMARK   14  A    between atoms: C_26  and  C_27 
REMARK   15  A    between atoms: C_27  and  N_40 
REMARK   16  A    between atoms: C_33  and  C_35 
REMARK   17  A    between atoms: C_35  and  C_36 
REMARK   18  A    between atoms: C_36  and  C_37 
REMARK       I    between atoms: N_40  and  C_41 
ROOT
HETATM    1  C           1     -21.103  -8.745  -3.391  0.00  0.00     0.187 C 
ENDROOT
BRANCH   1   2
HETATM    2  C           1     -21.339  -7.249  -3.561  0.00  0.00     0.066 C 
BRANCH   2   3
HETATM    3  C           1     -22.066  -6.995  -4.875  0.00  0.00     0.273 C 
BRANCH   3   4
HETATM    4  N           1     -22.017  -5.593  -5.188  0.00  0.00     0.098 N 
HETATM    5  H           1     -21.381  -5.123  -4.543  0.00  0.00     0.317 HD
BRANCH   4   6
HETATM    6  C           1     -21.523  -5.462  -6.531  0.00  0.00     0.324 C 
BRANCH   6   7
HETATM    7  C           1     -20.023  -5.628  -6.533  0.00  0.00     0.207 C 
HETATM    8  O           1     -19.508  -6.643  -7.050  0.00  0.00    -0.646 OA
HETATM    9  O           1     -19.297  -4.750  -6.019  0.00  0.00    -0.646 OA
ENDBRANCH   6   7
BRANCH   6  10
HETATM   10  C           1     -21.883  -4.084  -7.071  0.00  0.00     0.085 C 
BRANCH  10  11
HETATM   11  C           1     -22.356  -4.209  -8.486  0.00  0.00    -0.055 A 
HETATM   12  C           1     -21.432  -4.383  -9.516  0.00  0.00     0.010 A 
HETATM   13  C           1     -21.871  -4.501 -10.835  0.00  0.00     0.038 A 
HETATM   14  C           1     -23.235  -4.443 -11.123  0.00  0.00     0.081 A 
HETATM   15  C           1     -24.159  -4.270 -10.092  0.00  0.00     0.038 A 
HETATM   16  C           1     -23.719  -4.152  -8.774  0.00  0.00     0.010 A 
BRANCH  14  17
HETATM   17  O           1     -23.662  -4.557 -12.404  0.00  0.00    -0.247 OA
BRANCH  17  18
HETATM   18  P           1     -23.879  -3.201 -13.254  0.00  0.00     0.411 P 
HETATM   19  O           1     -22.958  -2.154 -12.757  0.00  0.00    -0.624 OA
HETATM   20  O           1     -25.277  -2.741 -13.099  0.00  0.00    -0.624 OA
BRANCH  18  21
HETATM   21  O           1     -23.574  -3.489 -14.814  0.00  0.00    -0.300 OA
HETATM   22  H           1     -23.490  -2.637 -15.206  0.00  0.00     0.223 HD
ENDBRANCH  18  21
ENDBRANCH  17  18
ENDBRANCH  14  17
ENDBRANCH  10  11
ENDBRANCH   6  10
ENDBRANCH   4   6
ENDBRANCH   3   4
ENDBRANCH   2   3
ENDBRANCH   1   2
BRANCH   1  23
HETATM   23  C           1     -19.629  -9.040  -3.520  0.00  0.00     0.196 C 
HETATM   24  O           1     -18.865  -8.840  -2.550  0.00  0.00    -0.646 OA
HETATM   25  O           1     -19.172  -9.484  -4.594  0.00  0.00    -0.646 OA
ENDBRANCH   1  23
BRANCH   1  26
HETATM   26  N           1     -21.567  -9.161  -2.082  0.00  0.00    -0.345 N 
HETATM   27  C           1     -22.374 -10.260  -1.959  0.00  0.00     0.249 C 
HETATM   28  O           1     -22.700 -10.883  -2.941  0.00  0.00    -0.271 OA
HETATM   29  H           1     -21.293  -8.639  -1.258  0.00  0.00     0.163 HD
BRANCH  27  30
HETATM   30  C           1     -22.856 -10.693  -0.596  0.00  0.00     0.274 C 
BRANCH  30  31
HETATM   31  N           1     -24.226 -11.290  -0.717  0.00  0.00    -0.067 N 
HETATM   32  H           1     -24.244 -12.222  -0.246  0.00  0.00     0.275 HD
HETATM   33  H           1     -24.923 -10.657  -0.263  0.00  0.00     0.275 HD
HETATM   34  H           1     -24.467 -11.406  -1.728  0.00  0.00     0.275 HD
ENDBRANCH  30  31
BRANCH  30  35
HETATM   35  C           1     -21.899 -11.731  -0.026  0.00  0.00     0.044 C 
BRANCH  35  36
HETATM   36  C           1     -20.760 -11.028   0.700  0.00  0.00     0.023 C 
BRANCH  36  37
HETATM   37  C           1     -19.429 -11.621   0.254  0.00  0.00     0.138 C 
BRANCH  37  38
HETATM   38  N           1     -19.610 -12.326  -1.024  0.00  0.00    -0.227 N 
HETATM   39  H           1     -20.470 -12.904  -1.188  0.00  0.00     0.177 HD
HETATM   40  C           1     -18.728 -12.233  -1.927  0.00  0.00     0.665 C 
HETATM   41  N           1     -17.662 -11.516  -1.724  0.00  0.00    -0.235 N 
HETATM   42  N           1     -18.883 -12.839  -3.028  0.00  0.00    -0.235 N 
HETATM   43  H           1     -16.934 -11.440  -2.470  0.00  0.00     0.174 HD
HETATM   44  H           1     -17.534 -11.016  -0.816  0.00  0.00     0.174 HD
HETATM   45  H           1     -18.151 -12.762  -3.777  0.00  0.00     0.174 HD
HETATM   46  H           1     -19.744 -13.417  -3.191  0.00  0.00     0.174 HD
ENDBRANCH  37  38
ENDBRANCH  36  37
ENDBRANCH  35  36
ENDBRANCH  30  35
ENDBRANCH  27  30
ENDBRANCH   1  26
TORSDOF 18
ENDMDL
MODEL 7
REMARK VINA RESULT:      -7.0      5.087     11.256
REMARK  18 active torsions:
REMARK  status: ('A' for Active; 'I' for Inactive)
REMARK       I    between atoms: N_1  and  C_41 
REMARK    1  A    between atoms: N_2  and  C_23 
REMARK    2  A    between atoms: C_6  and  O_7 
REMARK    3  A    between atoms: O_7  and  P_8 
REMARK    4  A    between atoms: P_8  and  O_10 
REMARK    5  A    between atoms: N_14  and  C_35 
REMARK    6  A    between atoms: N_14  and  C_15 
REMARK    7  A    between atoms: C_15  and  C_16 
REMARK    8  A    between atoms: C_16  and  C_17 
REMARK    9  A    between atoms: C_17  and  C_18 
REMARK   10  A    between atoms: C_17  and  N_21 
REMARK       I    between atoms: N_21  and  C_22 
REMARK   11  A    between atoms: C_22  and  C_23 
REMARK   12  A    between atoms: C_23  and  C_30 
REMARK   13  A    between atoms: C_26  and  C_30 
REMARK   14  A    between atoms: C_26  and  C_27 
REMARK   15  A    between atoms: C_27  and  N_40 
REMARK   16  A    between atoms: C_33  and  C_35 
REMARK   17  A    between atoms: C_35  and  C_36 
REMARK   18  A    between atoms: C_36  and  C_37 
REMARK       I    between atoms: N_40  and  C_41 
ROOT
HETATM    1  C           1     -21.013  -8.647  -3.130  0.00  0.00     0.187 C 
ENDROOT
BRANCH   1   2
HETATM    2  C           1     -21.174  -7.162  -3.431  0.00  0.00     0.066 C 
BRANCH   2   3
HETATM    3  C           1     -21.852  -6.988  -4.783  0.00  0.00     0.273 C 
BRANCH   3   4
HETATM    4  N           1     -21.879  -5.593  -5.131  0.00  0.00     0.098 N 
HETATM    5  H           1     -21.219  -5.084  -4.542  0.00  0.00     0.317 HD
BRANCH   4   6
HETATM    6  C           1     -21.482  -5.477  -6.507  0.00  0.00     0.324 C 
BRANCH   6   7
HETATM    7  C           1     -19.987  -5.647  -6.615  0.00  0.00     0.207 C 
HETATM    8  O           1     -19.225  -4.743  -6.209  0.00  0.00    -0.646 OA
HETATM    9  O           1     -19.510  -6.690  -7.112  0.00  0.00    -0.646 OA
ENDBRANCH   6   7
BRANCH   6  10
HETATM   10  C           1     -21.878  -4.105  -7.035  0.00  0.00     0.085 C 
BRANCH  10  11
HETATM   11  C           1     -22.338  -4.229  -8.455  0.00  0.00    -0.055 A 
HETATM   12  C           1     -21.405  -4.405  -9.477  0.00  0.00     0.010 A 
HETATM   13  C           1     -21.833  -4.521 -10.800  0.00  0.00     0.038 A 
HETATM   14  C           1     -23.194  -4.461 -11.099  0.00  0.00     0.081 A 
HETATM   15  C           1     -24.127  -4.286 -10.077  0.00  0.00     0.038 A 
HETATM   16  C           1     -23.699  -4.170  -8.755  0.00  0.00     0.010 A 
BRANCH  14  17
HETATM   17  O           1     -23.610  -4.574 -12.384  0.00  0.00    -0.247 OA
BRANCH  17  18
HETATM   18  P           1     -23.877  -3.216 -13.216  0.00  0.00     0.411 P 
HETATM   19  O           1     -22.984  -2.146 -12.717  0.00  0.00    -0.624 OA
HETATM   20  O           1     -25.287  -2.800 -13.042  0.00  0.00    -0.624 OA
BRANCH  18  21
HETATM   21  O           1     -23.580  -3.477 -14.782  0.00  0.00    -0.300 OA
HETATM   22  H           1     -24.398  -3.302 -15.217  0.00  0.00     0.223 HD
ENDBRANCH  18  21
ENDBRANCH  17  18
ENDBRANCH  14  17
ENDBRANCH  10  11
ENDBRANCH   6  10
ENDBRANCH   4   6
ENDBRANCH   3   4
ENDBRANCH   2   3
ENDBRANCH   1   2
BRANCH   1  23
HETATM   23  C           1     -19.566  -9.040  -3.297  0.00  0.00     0.196 C 
HETATM   24  O           1     -18.988  -8.850  -4.390  0.00  0.00    -0.646 OA
HETATM   25  O           1     -18.944  -9.555  -2.343  0.00  0.00    -0.646 OA
ENDBRANCH   1  23
BRANCH   1  26
HETATM   26  N           1     -21.431  -8.912  -1.767  0.00  0.00    -0.345 N 
HETATM   27  C           1     -22.344  -9.900  -1.511  0.00  0.00     0.249 C 
HETATM   28  O           1     -22.800 -10.551  -2.421  0.00  0.00    -0.271 OA
HETATM   29  H           1     -21.049  -8.367  -1.005  0.00  0.00     0.163 HD
BRANCH  27  30
HETATM   30  C           1     -22.779 -10.176  -0.094  0.00  0.00     0.274 C 
BRANCH  30  31
HETATM   31  N           1     -23.729  -9.106   0.355  0.00  0.00    -0.067 N 
HETATM   32  H           1     -23.199  -8.352   0.846  0.00  0.00     0.275 HD
HETATM   33  H           1     -24.217  -8.703  -0.477  0.00  0.00     0.275 HD
HETATM   34  H           1     -24.434  -9.518   1.008  0.00  0.00     0.275 HD
ENDBRANCH  30  31
BRANCH  30  35
HETATM   35  C           1     -23.472 -11.530  -0.030  0.00  0.00     0.044 C 
BRANCH  35  36
HETATM   36  C           1     -22.579 -12.525   0.698  0.00  0.00     0.023 C 
BRANCH  36  37
HETATM   37  C           1     -23.440 -13.594   1.360  0.00  0.00     0.138 C 
BRANCH  37  38
HETATM   38  N           1     -22.781 -14.064   2.587  0.00  0.00    -0.227 N 
HETATM   39  H           1     -21.851 -13.667   2.869  0.00  0.00     0.177 HD
HETATM   40  C           1     -23.336 -14.947   3.305  0.00  0.00     0.665 C 
HETATM   41  N           1     -24.489 -15.438   2.956  0.00  0.00    -0.235 N 
HETATM   42  N           1     -22.769 -15.352   4.361  0.00  0.00    -0.235 N 
HETATM   43  H           1     -24.946 -16.167   3.548  0.00  0.00     0.174 HD
HETATM   44  H           1     -24.957 -15.104   2.084  0.00  0.00     0.174 HD
HETATM   45  H           1     -23.229 -16.084   4.957  0.00  0.00     0.174 HD
HETATM   46  H           1     -21.838 -14.955   4.643  0.00  0.00     0.174 HD
ENDBRANCH  37  38
ENDBRANCH  36  37
ENDBRANCH  35  36
ENDBRANCH  30  35
ENDBRANCH  27  30
ENDBRANCH   1  26
TORSDOF 18
ENDMDL
MODEL 8
REMARK VINA RESULT:      -6.7      4.241      9.962
REMARK  18 active torsions:
REMARK  status: ('A' for Active; 'I' for Inactive)
REMARK       I    between atoms: N_1  and  C_41 
REMARK    1  A    between atoms: N_2  and  C_23 
REMARK    2  A    between atoms: C_6  and  O_7 
REMARK    3  A    between atoms: O_7  and  P_8 
REMARK    4  A    between atoms: P_8  and  O_10 
REMARK    5  A    between atoms: N_14  and  C_35 
REMARK    6  A    between atoms: N_14  and  C_15 
REMARK    7  A    between atoms: C_15  and  C_16 
REMARK    8  A    between atoms: C_16  and  C_17 
REMARK    9  A    between atoms: C_17  and  C_18 
REMARK   10  A    between atoms: C_17  and  N_21 
REMARK       I    between atoms: N_21  and  C_22 
REMARK   11  A    between atoms: C_22  and  C_23 
REMARK   12  A    between atoms: C_23  and  C_30 
REMARK   13  A    between atoms: C_26  and  C_30 
REMARK   14  A    between atoms: C_26  and  C_27 
REMARK   15  A    between atoms: C_27  and  N_40 
REMARK   16  A    between atoms: C_33  and  C_35 
REMARK   17  A    between atoms: C_35  and  C_36 
REMARK   18  A    between atoms: C_36  and  C_37 
REMARK       I    between atoms: N_40  and  C_41 
ROOT
HETATM    1  C           1     -20.800  -8.073  -3.915  0.00  0.00     0.187 C 
ENDROOT
BRANCH   1   2
HETATM    2  C           1     -21.947  -7.815  -4.884  0.00  0.00     0.066 C 
BRANCH   2   3
HETATM    3  C           1     -22.391  -6.362  -4.771  0.00  0.00     0.273 C 
BRANCH   3   4
HETATM    4  N           1     -21.285  -5.497  -5.079  0.00  0.00     0.098 N 
HETATM    5  H           1     -20.434  -5.871  -4.658  0.00  0.00     0.317 HD
BRANCH   4   6
HETATM    6  C           1     -21.140  -5.465  -6.509  0.00  0.00     0.324 C 
BRANCH   6   7
HETATM    7  C           1     -19.705  -5.759  -6.875  0.00  0.00     0.207 C 
HETATM    8  O           1     -18.910  -4.818  -7.087  0.00  0.00    -0.646 OA
HETATM    9  O           1     -19.314  -6.942  -6.966  0.00  0.00    -0.646 OA
ENDBRANCH   6   7
BRANCH   6  10
HETATM   10  C           1     -21.525  -4.086  -7.027  0.00  0.00     0.085 C 
BRANCH  10  11
HETATM   11  C           1     -22.090  -4.210  -8.408  0.00  0.00    -0.055 A 
HETATM   12  C           1     -23.471  -4.259  -8.594  0.00  0.00     0.010 A 
HETATM   13  C           1     -23.998  -4.374  -9.881  0.00  0.00     0.038 A 
HETATM   14  C           1     -23.143  -4.440 -10.981  0.00  0.00     0.081 A 
HETATM   15  C           1     -21.761  -4.390 -10.794  0.00  0.00     0.038 A 
HETATM   16  C           1     -21.235  -4.275  -9.508  0.00  0.00     0.010 A 
BRANCH  14  17
HETATM   17  O           1     -23.655  -4.551 -12.230  0.00  0.00    -0.247 OA
BRANCH  17  18
HETATM   18  P           1     -24.077  -3.196 -13.000  0.00  0.00     0.411 P 
HETATM   19  O           1     -25.493  -2.880 -12.704  0.00  0.00    -0.624 OA
HETATM   20  O           1     -23.910  -3.384 -14.459  0.00  0.00    -0.624 OA
BRANCH  18  21
HETATM   21  O           1     -23.140  -1.979 -12.501  0.00  0.00    -0.300 OA
HETATM   22  H           1     -23.009  -2.134 -11.581  0.00  0.00     0.223 HD
ENDBRANCH  18  21
ENDBRANCH  17  18
ENDBRANCH  14  17
ENDBRANCH  10  11
ENDBRANCH   6  10
ENDBRANCH   4   6
ENDBRANCH   3   4
ENDBRANCH   2   3
ENDBRANCH   1   2
BRANCH   1  23
HETATM   23  C           1     -21.328  -8.087  -2.502  0.00  0.00     0.196 C 
HETATM   24  O           1     -20.941  -7.226  -1.682  0.00  0.00    -0.646 OA
HETATM   25  O           1     -22.153  -8.958  -2.151  0.00  0.00    -0.646 OA
ENDBRANCH   1  23
BRANCH   1  26
HETATM   26  N           1     -20.193  -9.355  -4.216  0.00  0.00    -0.345 N 
HETATM   27  C           1     -18.935  -9.642  -3.758  0.00  0.00     0.249 C 
HETATM   28  O           1     -18.331  -8.826  -3.104  0.00  0.00    -0.271 OA
HETATM   29  H           1     -20.700 -10.039  -4.765  0.00  0.00     0.163 HD
BRANCH  27  30
HETATM   30  C           1     -18.304 -10.975  -4.072  0.00  0.00     0.274 C 
BRANCH  30  31
HETATM   31  N           1     -17.122 -11.193  -3.175  0.00  0.00    -0.067 N 
HETATM   32  H           1     -17.394 -11.823  -2.387  0.00  0.00     0.275 HD
HETATM   33  H           1     -16.347 -11.631  -3.720  0.00  0.00     0.275 HD
HETATM   34  H           1     -16.804 -10.274  -2.790  0.00  0.00     0.275 HD
ENDBRANCH  30  31
BRANCH  30  35
HETATM   35  C           1     -19.324 -12.084  -3.847  0.00  0.00     0.044 C 
BRANCH  35  36
HETATM   36  C           1     -19.263 -12.544  -2.397  0.00  0.00     0.023 C 
BRANCH  36  37
HETATM   37  C           1     -20.583 -12.224  -1.706  0.00  0.00     0.138 C 
BRANCH  37  38
HETATM   38  N           1     -20.399 -11.076  -0.806  0.00  0.00    -0.227 N 
HETATM   39  H           1     -19.907 -10.214  -1.147  0.00  0.00     0.177 HD
HETATM   40  C           1     -20.837 -11.126   0.381  0.00  0.00     0.665 C 
HETATM   41  N           1     -21.449 -12.194   0.804  0.00  0.00    -0.235 N 
HETATM   42  N           1     -20.680 -10.138   1.156  0.00  0.00    -0.235 N 
HETATM   43  H           1     -21.809 -12.234   1.784  0.00  0.00     0.174 HD
HETATM   44  H           1     -21.578 -13.009   0.164  0.00  0.00     0.174 HD
HETATM   45  H           1     -21.043 -10.179   2.140  0.00  0.00     0.174 HD
HETATM   46  H           1     -20.187  -9.276   0.814  0.00  0.00     0.174 HD
ENDBRANCH  37  38
ENDBRANCH  36  37
ENDBRANCH  35  36
ENDBRANCH  30  35
ENDBRANCH  27  30
ENDBRANCH   1  26
TORSDOF 18
ENDMDL
MODEL 9
REMARK VINA RESULT:      -6.6      4.767     10.367
REMARK  18 active torsions:
REMARK  status: ('A' for Active; 'I' for Inactive)
REMARK       I    between atoms: N_1  and  C_41 
REMARK    1  A    between atoms: N_2  and  C_23 
REMARK    2  A    between atoms: C_6  and  O_7 
REMARK    3  A    between atoms: O_7  and  P_8 
REMARK    4  A    between atoms: P_8  and  O_10 
REMARK    5  A    between atoms: N_14  and  C_35 
REMARK    6  A    between atoms: N_14  and  C_15 
REMARK    7  A    between atoms: C_15  and  C_16 
REMARK    8  A    between atoms: C_16  and  C_17 
REMARK    9  A    between atoms: C_17  and  C_18 
REMARK   10  A    between atoms: C_17  and  N_21 
REMARK       I    between atoms: N_21  and  C_22 
REMARK   11  A    between atoms: C_22  and  C_23 
REMARK   12  A    between atoms: C_23  and  C_30 
REMARK   13  A    between atoms: C_26  and  C_30 
REMARK   14  A    between atoms: C_26  and  C_27 
REMARK   15  A    between atoms: C_27  and  N_40 
REMARK   16  A    between atoms: C_33  and  C_35 
REMARK   17  A    between atoms: C_35  and  C_36 
REMARK   18  A    between atoms: C_36  and  C_37 
REMARK       I    between atoms: N_40  and  C_41 
ROOT
HETATM    1  C           1     -20.980  -7.619  -3.594  0.00  0.00     0.187 C 
ENDROOT
BRANCH   1   2
HETATM    2  C           1     -21.956  -7.740  -4.758  0.00  0.00     0.066 C 
BRANCH   2   3
HETATM    3  C           1     -22.520  -6.366  -5.093  0.00  0.00     0.273 C 
BRANCH   3   4
HETATM    4  N           1     -21.440  -5.445  -5.319  0.00  0.00     0.098 N 
HETATM    5  H           1     -20.598  -5.789  -4.856  0.00  0.00     0.317 HD
BRANCH   4   6
HETATM    6  C           1     -21.213  -5.375  -6.736  0.00  0.00     0.324 C 
BRANCH   6   7
HETATM    7  C           1     -19.759  -5.656  -7.028  0.00  0.00     0.207 C 
HETATM    8  O           1     -18.959  -4.709  -7.183  0.00  0.00    -0.646 OA
HETATM    9  O           1     -19.357  -6.836  -7.114  0.00  0.00    -0.646 OA
ENDBRANCH   6   7
BRANCH   6  10
HETATM   10  C           1     -21.573  -3.983  -7.239  0.00  0.00     0.085 C 
BRANCH  10  11
HETATM   11  C           1     -22.177  -4.085  -8.605  0.00  0.00    -0.055 A 
HETATM   12  C           1     -23.562  -4.049  -8.758  0.00  0.00     0.010 A 
HETATM   13  C           1     -24.126  -4.144 -10.031  0.00  0.00     0.038 A 
HETATM   14  C           1     -23.303  -4.273 -11.150  0.00  0.00     0.081 A 
HETATM   15  C           1     -21.917  -4.307 -10.996  0.00  0.00     0.038 A 
HETATM   16  C           1     -21.354  -4.213  -9.724  0.00  0.00     0.010 A 
BRANCH  14  17
HETATM   17  O           1     -23.851  -4.364 -12.386  0.00  0.00    -0.247 OA
BRANCH  17  18
HETATM   18  P           1     -23.879  -3.035 -13.302  0.00  0.00     0.411 P 
HETATM   19  O           1     -23.658  -3.405 -14.718  0.00  0.00    -0.624 OA
HETATM   20  O           1     -22.810  -2.110 -12.863  0.00  0.00    -0.624 OA
BRANCH  18  21
HETATM   21  O           1     -25.315  -2.310 -13.154  0.00  0.00    -0.300 OA
HETATM   22  H           1     -25.172  -1.425 -13.447  0.00  0.00     0.223 HD
ENDBRANCH  18  21
ENDBRANCH  17  18
ENDBRANCH  14  17
ENDBRANCH  10  11
ENDBRANCH   6  10
ENDBRANCH   4   6
ENDBRANCH   3   4
ENDBRANCH   2   3
ENDBRANCH   1   2
BRANCH   1  23
HETATM   23  C           1     -21.686  -7.015  -2.406  0.00  0.00     0.196 C 
HETATM   24  O           1     -22.228  -7.757  -1.557  0.00  0.00    -0.646 OA
HETATM   25  O           1     -21.728  -5.774  -2.269  0.00  0.00    -0.646 OA
ENDBRANCH   1  23
BRANCH   1  26
HETATM   26  N           1     -20.482  -8.936  -3.243  0.00  0.00    -0.345 N 
HETATM   27  C           1     -19.277  -9.365  -3.730  0.00  0.00     0.249 C 
HETATM   28  O           1     -18.628  -8.647  -4.453  0.00  0.00    -0.271 OA
HETATM   29  H           1     -21.026  -9.537  -2.637  0.00  0.00     0.163 HD
BRANCH  27  30
HETATM   30  C           1     -18.760 -10.734  -3.364  0.00  0.00     0.274 C 
BRANCH  30  31
HETATM   31  N           1     -19.678 -11.780  -3.922  0.00  0.00    -0.067 N 
HETATM   32  H           1     -20.631 -11.374  -4.055  0.00  0.00     0.275 HD
HETATM   33  H           1     -19.309 -12.112  -4.842  0.00  0.00     0.275 HD
HETATM   34  H           1     -19.732 -12.586  -3.257  0.00  0.00     0.275 HD
ENDBRANCH  30  31
BRANCH  30  35
HETATM   35  C           1     -17.364 -10.921  -3.943  0.00  0.00     0.044 C 
BRANCH  35  36
HETATM   36  C           1     -16.370 -11.144  -2.812  0.00  0.00     0.023 C 
BRANCH  36  37
HETATM   37  C           1     -16.835 -12.309  -1.948  0.00  0.00     0.138 C 
BRANCH  37  38
HETATM   38  N           1     -16.837 -11.902  -0.535  0.00  0.00    -0.227 N 
HETATM   39  H           1     -17.511 -11.170  -0.201  0.00  0.00     0.177 HD
HETATM   40  C           1     -16.027 -12.435   0.278  0.00  0.00     0.665 C 
HETATM   41  N           1     -15.193 -13.343  -0.136  0.00  0.00    -0.235 N 
HETATM   42  N           1     -16.029 -12.085   1.495  0.00  0.00    -0.235 N 
HETATM   43  H           1     -14.524 -13.782   0.536  0.00  0.00     0.174 HD
HETATM   44  H           1     -15.191 -13.631  -1.140  0.00  0.00     0.174 HD
HETATM   45  H           1     -15.357 -12.527   2.170  0.00  0.00     0.174 HD
HETATM   46  H           1     -16.704 -11.352   1.829  0.00  0.00     0.174 HD
ENDBRANCH  37  38
ENDBRANCH  36  37
ENDBRANCH  35  36
ENDBRANCH  30  35
ENDBRANCH  27  30
ENDBRANCH   1  26
TORSDOF 18
ENDMDL
