MODEL 1
REMARK VINA RESULT:      -5.7      0.000      0.000
REMARK  9 active torsions:
REMARK  status: ('A' for Active; 'I' for Inactive)
REMARK       I    between atoms: C_1  and  N_7 
REMARK    1  A    between atoms: C_1  and  C_3 
REMARK    2  A    between atoms: C_2  and  C_8 
REMARK    3  A    between atoms: C_2  and  C_17 
REMARK    4  A    between atoms: C_2  and  N_7 
REMARK    5  A    between atoms: C_3  and  C_4 
REMARK    6  A    between atoms: C_3  and  N_20 
REMARK    7  A    between atoms: C_4  and  C_13 
REMARK    8  A    between atoms: C_8  and  C_9 
REMARK    9  A    between atoms: C_9  and  Se_10 
ROOT
HETATM    1  C           1     -22.369  -4.104  -8.212  0.00  0.00     0.249 C 
HETATM    2  N           1     -22.134  -5.271  -7.537  0.00  0.00    -0.345 N 
HETATM    3  H           1     -22.567  -6.131  -7.848  0.00  0.00     0.163 HD
HETATM    4  O           1     -21.852  -3.077  -7.841  0.00  0.00    -0.271 OA
ENDROOT
BRANCH   1   5
HETATM    5  C           1     -23.275  -4.100  -9.419  0.00  0.00     0.278 C 
BRANCH   5   6
HETATM    6  C           1     -22.569  -3.414 -10.582  0.00  0.00     0.021 C 
HETATM    7  C           1     -21.579  -4.383 -11.218  0.00  0.00     0.012 C 
BRANCH   6   8
HETATM    8  C           1     -23.600  -2.990 -11.621  0.00  0.00     0.002 C 
HETATM    9  C           1     -22.983  -3.071 -13.010  0.00  0.00     0.005 C 
ENDBRANCH   6   8
ENDBRANCH   5   6
BRANCH   5  10
HETATM   10  N           1     -24.537  -3.357  -9.094  0.00  0.00    -0.066 N 
HETATM   11  H           1     -24.564  -3.146  -8.071  0.00  0.00     0.275 HD
HETATM   12  H           1     -25.363  -3.944  -9.351  0.00  0.00     0.275 HD
HETATM   13  H           1     -24.563  -2.462  -9.635  0.00  0.00     0.275 HD
ENDBRANCH   5  10
ENDBRANCH   1   5
BRANCH   2  14
HETATM   14  C           1     -21.263  -5.275  -6.377  0.00  0.00     0.185 C 
BRANCH  14  15
HETATM   15  C           1     -21.782  -6.280  -5.357  0.00  0.00     0.036 C 
BRANCH  15  16
HETATM   16  C           1     -21.185  -5.971  -3.991  0.00  0.00     0.003 C 
BRANCH  16  17
HETATM   17 Se           1     -21.347  -7.537  -2.841  0.00  0.00     0.000 Se
HETATM   18  C           1     -22.247  -6.586  -1.397  0.00  0.00     0.000 C 
ENDBRANCH  16  17
ENDBRANCH  15  16
ENDBRANCH  14  15
BRANCH  14  19
HETATM   19  C           1     -19.867  -5.659  -6.798  0.00  0.00     0.196 C 
HETATM   20  O           1     -19.016  -4.771  -7.028  0.00  0.00    -0.646 OA
HETATM   21  O           1     -19.558  -6.865  -6.915  0.00  0.00    -0.646 OA
ENDBRANCH  14  19
ENDBRANCH   2  14
TORSDOF 9
ENDMDL
MODEL 2
REMARK VINA RESULT:      -5.7      3.312      7.233
REMARK  9 active torsions:
REMARK  status: ('A' for Active; 'I' for Inactive)
REMARK       I    between atoms: C_1  and  N_7 
REMARK    1  A    between atoms: C_1  and  C_3 
REMARK    2  A    between atoms: C_2  and  C_8 
REMARK    3  A    between atoms: C_2  and  C_17 
REMARK    4  A    between atoms: C_2  and  N_7 
REMARK    5  A    between atoms: C_3  and  C_4 
REMARK    6  A    between atoms: C_3  and  N_20 
REMARK    7  A    between atoms: C_4  and  C_13 
REMARK    8  A    between atoms: C_8  and  C_9 
REMARK    9  A    between atoms: C_9  and  Se_10 
ROOT
HETATM    1  C           1     -21.623  -4.852  -7.708  0.00  0.00     0.249 C 
HETATM    2  N           1     -22.185  -5.000  -8.947  0.00  0.00    -0.345 N 
HETATM    3  H           1     -22.274  -5.922  -9.356  0.00  0.00     0.163 HD
HETATM    4  O           1     -21.517  -3.752  -7.220  0.00  0.00    -0.271 OA
ENDROOT
BRANCH   1   5
HETATM    5  C           1     -21.136  -6.063  -6.951  0.00  0.00     0.278 C 
BRANCH   5   6
HETATM    6  C           1     -21.447  -5.897  -5.469  0.00  0.00     0.021 C 
HETATM    7  C           1     -22.897  -6.286  -5.208  0.00  0.00     0.012 C 
BRANCH   6   8
HETATM    8  C           1     -20.527  -6.796  -4.654  0.00  0.00     0.002 C 
HETATM    9  C           1     -21.346  -7.901  -4.000  0.00  0.00     0.005 C 
ENDBRANCH   6   8
ENDBRANCH   5   6
BRANCH   5  10
HETATM   10  N           1     -19.654  -6.205  -7.136  0.00  0.00    -0.066 N 
HETATM   11  H           1     -19.156  -5.612  -6.433  0.00  0.00     0.275 HD
HETATM   12  H           1     -19.392  -5.898  -8.100  0.00  0.00     0.275 HD
HETATM   13  H           1     -19.381  -7.206  -7.003  0.00  0.00     0.275 HD
ENDBRANCH   5  10
ENDBRANCH   1   5
BRANCH   2  14
HETATM   14  C           1     -22.654  -3.837  -9.674  0.00  0.00     0.185 C 
BRANCH  14  15
HETATM   15  C           1     -22.118  -3.879 -11.099  0.00  0.00     0.036 C 
BRANCH  15  16
HETATM   16  C           1     -22.640  -2.677 -11.874  0.00  0.00     0.003 C 
BRANCH  16  17
HETATM   17 Se           1     -23.882  -3.282 -13.251  0.00  0.00     0.000 Se
HETATM   18  C           1     -22.969  -2.365 -14.708  0.00  0.00     0.000 C 
ENDBRANCH  16  17
ENDBRANCH  15  16
ENDBRANCH  14  15
BRANCH  14  19
HETATM   19  C           1     -24.162  -3.835  -9.703  0.00  0.00     0.196 C 
HETATM   20  O           1     -24.784  -4.888  -9.960  0.00  0.00    -0.646 OA
HETATM   21  O           1     -24.790  -2.780  -9.467  0.00  0.00    -0.646 OA
ENDBRANCH  14  19
ENDBRANCH   2  14
TORSDOF 9
ENDMDL
MODEL 3
REMARK VINA RESULT:      -5.6      2.997      7.240
REMARK  9 active torsions:
REMARK  status: ('A' for Active; 'I' for Inactive)
REMARK       I    between atoms: C_1  and  N_7 
REMARK    1  A    between atoms: C_1  and  C_3 
REMARK    2  A    between atoms: C_2  and  C_8 
REMARK    3  A    between atoms: C_2  and  C_17 
REMARK    4  A    between atoms: C_2  and  N_7 
REMARK    5  A    between atoms: C_3  and  C_4 
REMARK    6  A    between atoms: C_3  and  N_20 
REMARK    7  A    between atoms: C_4  and  C_13 
REMARK    8  A    between atoms: C_8  and  C_9 
REMARK    9  A    between atoms: C_9  and  Se_10 
ROOT
HETATM    1  C           1     -21.538  -6.496  -4.208  0.00  0.00     0.249 C 
HETATM    2  N           1     -20.963  -5.516  -4.972  0.00  0.00    -0.345 N 
HETATM    3  H           1     -20.389  -4.806  -4.537  0.00  0.00     0.163 HD
HETATM    4  O           1     -22.223  -7.343  -4.729  0.00  0.00    -0.271 OA
ENDROOT
BRANCH   1   5
HETATM    5  C           1     -21.315  -6.517  -2.716  0.00  0.00     0.278 C 
BRANCH   5   6
HETATM    6  C           1     -21.397  -7.951  -2.209  0.00  0.00     0.021 C 
HETATM    7  C           1     -19.992  -8.528  -2.088  0.00  0.00     0.012 C 
BRANCH   6   8
HETATM    8  C           1     -22.070  -7.968  -0.843  0.00  0.00     0.002 C 
HETATM    9  C           1     -22.374  -9.405  -0.444  0.00  0.00     0.005 C 
ENDBRANCH   6   8
ENDBRANCH   5   6
BRANCH   5  10
HETATM   10  N           1     -22.369  -5.689  -2.042  0.00  0.00    -0.066 N 
HETATM   11  H           1     -22.793  -6.235  -1.258  0.00  0.00     0.275 HD
HETATM   12  H           1     -23.111  -5.439  -2.734  0.00  0.00     0.275 HD
HETATM   13  H           1     -21.935  -4.815  -1.664  0.00  0.00     0.275 HD
ENDBRANCH   5  10
ENDBRANCH   1   5
BRANCH   2  14
HETATM   14  C           1     -21.177  -5.497  -6.406  0.00  0.00     0.185 C 
BRANCH  14  15
HETATM   15  C           1     -21.725  -4.137  -6.819  0.00  0.00     0.036 C 
BRANCH  15  16
HETATM   16  C           1     -23.019  -4.326  -7.598  0.00  0.00     0.003 C 
BRANCH  16  17
HETATM   17 Se           1     -22.717  -3.892  -9.475  0.00  0.00     0.000 Se
HETATM   18  C           1     -24.570  -3.401  -9.829  0.00  0.00     0.000 C 
ENDBRANCH  16  17
ENDBRANCH  15  16
ENDBRANCH  14  15
BRANCH  14  19
HETATM   19  C           1     -19.869  -5.748  -7.114  0.00  0.00     0.196 C 
HETATM   20  O           1     -19.343  -6.882  -7.071  0.00  0.00    -0.646 OA
HETATM   21  O           1     -19.311  -4.824  -7.744  0.00  0.00    -0.646 OA
ENDBRANCH  14  19
ENDBRANCH   2  14
TORSDOF 9
ENDMDL
MODEL 4
REMARK VINA RESULT:      -5.3      2.732      7.076
REMARK  9 active torsions:
REMARK  status: ('A' for Active; 'I' for Inactive)
REMARK       I    between atoms: C_1  and  N_7 
REMARK    1  A    between atoms: C_1  and  C_3 
REMARK    2  A    between atoms: C_2  and  C_8 
REMARK    3  A    between atoms: C_2  and  C_17 
REMARK    4  A    between atoms: C_2  and  N_7 
REMARK    5  A    between atoms: C_3  and  C_4 
REMARK    6  A    between atoms: C_3  and  N_20 
REMARK    7  A    between atoms: C_4  and  C_13 
REMARK    8  A    between atoms: C_8  and  C_9 
REMARK    9  A    between atoms: C_9  and  Se_10 
ROOT
HETATM    1  C           1     -21.450  -7.143  -5.436  0.00  0.00     0.249 C 
HETATM    2  N           1     -21.778  -5.863  -5.794  0.00  0.00    -0.345 N 
HETATM    3  H           1     -22.338  -5.292  -5.174  0.00  0.00     0.163 HD
HETATM    4  O           1     -20.780  -7.824  -6.175  0.00  0.00    -0.271 OA
ENDROOT
BRANCH   1   5
HETATM    5  C           1     -21.924  -7.702  -4.117  0.00  0.00     0.278 C 
BRANCH   5   6
HETATM    6  C           1     -21.176  -7.024  -2.977  0.00  0.00     0.021 C 
HETATM    7  C           1     -22.152  -6.199  -2.148  0.00  0.00     0.012 C 
BRANCH   6   8
HETATM    8  C           1     -20.531  -8.083  -2.093  0.00  0.00     0.002 C 
HETATM    9  C           1     -21.164  -8.044  -0.709  0.00  0.00     0.005 C 
ENDBRANCH   6   8
ENDBRANCH   5   6
BRANCH   5  10
HETATM   10  N           1     -21.660  -9.179  -4.077  0.00  0.00    -0.066 N 
HETATM   11  H           1     -22.077  -9.585  -3.209  0.00  0.00     0.275 HD
HETATM   12  H           1     -20.629  -9.349  -4.081  0.00  0.00     0.275 HD
HETATM   13  H           1     -22.091  -9.631  -4.916  0.00  0.00     0.275 HD
ENDBRANCH   5  10
ENDBRANCH   1   5
BRANCH   2  14
HETATM   14  C           1     -21.321  -5.326  -7.061  0.00  0.00     0.185 C 
BRANCH  14  15
HETATM   15  C           1     -22.303  -4.267  -7.546  0.00  0.00     0.036 C 
BRANCH  15  16
HETATM   16  C           1     -22.582  -4.475  -9.028  0.00  0.00     0.003 C 
BRANCH  16  17
HETATM   17 Se           1     -24.261  -3.604  -9.502  0.00  0.00     0.000 Se
HETATM   18  C           1     -23.762  -3.287 -11.359  0.00  0.00     0.000 C 
ENDBRANCH  16  17
ENDBRANCH  15  16
ENDBRANCH  14  15
BRANCH  14  19
HETATM   19  C           1     -19.958  -4.704  -6.882  0.00  0.00     0.196 C 
HETATM   20  O           1     -19.249  -4.454  -7.881  0.00  0.00    -0.646 OA
HETATM   21  O           1     -19.538  -4.438  -5.735  0.00  0.00    -0.646 OA
ENDBRANCH  14  19
ENDBRANCH   2  14
TORSDOF 9
ENDMDL
MODEL 5
REMARK VINA RESULT:      -5.2      1.562      2.010
REMARK  9 active torsions:
REMARK  status: ('A' for Active; 'I' for Inactive)
REMARK       I    between atoms: C_1  and  N_7 
REMARK    1  A    between atoms: C_1  and  C_3 
REMARK    2  A    between atoms: C_2  and  C_8 
REMARK    3  A    between atoms: C_2  and  C_17 
REMARK    4  A    between atoms: C_2  and  N_7 
REMARK    5  A    between atoms: C_3  and  C_4 
REMARK    6  A    between atoms: C_3  and  N_20 
REMARK    7  A    between atoms: C_4  and  C_13 
REMARK    8  A    between atoms: C_8  and  C_9 
REMARK    9  A    between atoms: C_9  and  Se_10 
ROOT
HETATM    1  C           1     -21.586  -5.102  -6.998  0.00  0.00     0.249 C 
HETATM    2  N           1     -21.497  -6.400  -6.576  0.00  0.00    -0.345 N 
HETATM    3  H           1     -21.890  -7.144  -7.139  0.00  0.00     0.163 HD
HETATM    4  O           1     -21.117  -4.214  -6.326  0.00  0.00    -0.271 OA
ENDROOT
BRANCH   1   5
HETATM    5  C           1     -22.269  -4.778  -8.305  0.00  0.00     0.278 C 
BRANCH   5   6
HETATM    6  C           1     -21.347  -3.921  -9.163  0.00  0.00     0.021 C 
HETATM    7  C           1     -20.130  -4.739  -9.574  0.00  0.00     0.012 C 
BRANCH   6   8
HETATM    8  C           1     -22.095  -3.464 -10.409  0.00  0.00     0.002 C 
HETATM    9  C           1     -21.676  -4.322 -11.595  0.00  0.00     0.005 C 
ENDBRANCH   6   8
ENDBRANCH   5   6
BRANCH   5  10
HETATM   10  N           1     -23.538  -4.026  -8.031  0.00  0.00    -0.066 N 
HETATM   11  H           1     -24.209  -4.176  -8.819  0.00  0.00     0.275 HD
HETATM   12  H           1     -23.326  -3.006  -7.943  0.00  0.00     0.275 HD
HETATM   13  H           1     -23.963  -4.373  -7.141  0.00  0.00     0.275 HD
ENDBRANCH   5  10
ENDBRANCH   1   5
BRANCH   2  14
HETATM   14  C           1     -20.840  -6.711  -5.321  0.00  0.00     0.185 C 
BRANCH  14  15
HETATM   15  C           1     -21.890  -6.994  -4.255  0.00  0.00     0.036 C 
BRANCH  15  16
HETATM   16  C           1     -21.483  -6.324  -2.950  0.00  0.00     0.003 C 
BRANCH  16  17
HETATM   17 Se           1     -21.027  -7.688  -1.633  0.00  0.00     0.000 Se
HETATM   18  C           1     -22.455  -7.205  -0.397  0.00  0.00     0.000 C 
ENDBRANCH  16  17
ENDBRANCH  15  16
ENDBRANCH  14  15
BRANCH  14  19
HETATM   19  C           1     -19.962  -7.925  -5.499  0.00  0.00     0.196 C 
HETATM   20  O           1     -19.022  -7.901  -6.324  0.00  0.00    -0.646 OA
HETATM   21  O           1     -20.174  -8.954  -4.822  0.00  0.00    -0.646 OA
ENDBRANCH  14  19
ENDBRANCH   2  14
TORSDOF 9
ENDMDL
MODEL 6
REMARK VINA RESULT:      -5.2      3.033      4.030
REMARK  9 active torsions:
REMARK  status: ('A' for Active; 'I' for Inactive)
REMARK       I    between atoms: C_1  and  N_7 
REMARK    1  A    between atoms: C_1  and  C_3 
REMARK    2  A    between atoms: C_2  and  C_8 
REMARK    3  A    between atoms: C_2  and  C_17 
REMARK    4  A    between atoms: C_2  and  N_7 
REMARK    5  A    between atoms: C_3  and  C_4 
REMARK    6  A    between atoms: C_3  and  N_20 
REMARK    7  A    between atoms: C_4  and  C_13 
REMARK    8  A    between atoms: C_8  and  C_9 
REMARK    9  A    between atoms: C_9  and  Se_10 
ROOT
HETATM    1  C           1     -21.710  -5.535  -5.827  0.00  0.00     0.249 C 
HETATM    2  N           1     -20.986  -6.373  -5.023  0.00  0.00    -0.345 N 
HETATM    3  H           1     -19.975  -6.332  -5.028  0.00  0.00     0.163 HD
HETATM    4  O           1     -22.917  -5.584  -5.821  0.00  0.00    -0.271 OA
ENDROOT
BRANCH   1   5
HETATM    5  C           1     -21.000  -4.547  -6.721  0.00  0.00     0.278 C 
BRANCH   5   6
HETATM    6  C           1     -21.365  -4.822  -8.174  0.00  0.00     0.021 C 
HETATM    7  C           1     -22.369  -3.779  -8.651  0.00  0.00     0.012 C 
BRANCH   6   8
HETATM    8  C           1     -20.110  -4.747  -9.034  0.00  0.00     0.002 C 
HETATM    9  C           1     -20.488  -4.322 -10.447  0.00  0.00     0.005 C 
ENDBRANCH   6   8
ENDBRANCH   5   6
BRANCH   5  10
HETATM   10  N           1     -19.517  -4.690  -6.544  0.00  0.00    -0.066 N 
HETATM   11  H           1     -19.131  -3.818  -6.117  0.00  0.00     0.275 HD
HETATM   12  H           1     -19.069  -4.851  -7.475  0.00  0.00     0.275 HD
HETATM   13  H           1     -19.319  -5.503  -5.916  0.00  0.00     0.275 HD
ENDBRANCH   5  10
ENDBRANCH   1   5
BRANCH   2  14
HETATM   14  C           1     -21.669  -7.321  -4.164  0.00  0.00     0.185 C 
BRANCH  14  15
HETATM   15  C           1     -20.975  -8.674  -4.250  0.00  0.00     0.036 C 
BRANCH  15  16
HETATM   16  C           1     -19.635  -8.514  -4.955  0.00  0.00     0.003 C 
BRANCH  16  17
HETATM   17 Se           1     -18.272  -9.533  -4.003  0.00  0.00     0.000 Se
HETATM   18  C           1     -19.543 -10.491  -2.877  0.00  0.00     0.000 C 
ENDBRANCH  16  17
ENDBRANCH  15  16
ENDBRANCH  14  15
BRANCH  14  19
HETATM   19  C           1     -21.634  -6.826  -2.740  0.00  0.00     0.196 C 
HETATM   20  O           1     -22.396  -5.902  -2.380  0.00  0.00    -0.646 OA
HETATM   21  O           1     -20.844  -7.340  -1.918  0.00  0.00    -0.646 OA
ENDBRANCH  14  19
ENDBRANCH   2  14
TORSDOF 9
ENDMDL
MODEL 7
REMARK VINA RESULT:      -5.2      3.024      4.030
REMARK  9 active torsions:
REMARK  status: ('A' for Active; 'I' for Inactive)
REMARK       I    between atoms: C_1  and  N_7 
REMARK    1  A    between atoms: C_1  and  C_3 
REMARK    2  A    between atoms: C_2  and  C_8 
REMARK    3  A    between atoms: C_2  and  C_17 
REMARK    4  A    between atoms: C_2  and  N_7 
REMARK    5  A    between atoms: C_3  and  C_4 
REMARK    6  A    between atoms: C_3  and  N_20 
REMARK    7  A    between atoms: C_4  and  C_13 
REMARK    8  A    between atoms: C_8  and  C_9 
REMARK    9  A    between atoms: C_9  and  Se_10 
ROOT
HETATM    1  C           1     -21.673  -5.559  -5.817  0.00  0.00     0.249 C 
HETATM    2  N           1     -20.925  -6.386  -5.023  0.00  0.00    -0.345 N 
HETATM    3  H           1     -19.915  -6.333  -5.047  0.00  0.00     0.163 HD
HETATM    4  O           1     -22.879  -5.621  -5.788  0.00  0.00    -0.271 OA
ENDROOT
BRANCH   1   5
HETATM    5  C           1     -20.990  -4.567  -6.727  0.00  0.00     0.278 C 
BRANCH   5   6
HETATM    6  C           1     -21.374  -4.854  -8.173  0.00  0.00     0.021 C 
HETATM    7  C           1     -22.389  -3.820  -8.644  0.00  0.00     0.012 C 
BRANCH   6   8
HETATM    8  C           1     -20.132  -4.781  -9.051  0.00  0.00     0.002 C 
HETATM    9  C           1     -20.515  -4.261 -10.429  0.00  0.00     0.005 C 
ENDBRANCH   6   8
ENDBRANCH   5   6
BRANCH   5  10
HETATM   10  N           1     -19.503  -4.689  -6.572  0.00  0.00    -0.066 N 
HETATM   11  H           1     -19.256  -4.682  -5.556  0.00  0.00     0.275 HD
HETATM   12  H           1     -19.036  -3.885  -7.050  0.00  0.00     0.275 HD
HETATM   13  H           1     -19.181  -5.586  -7.003  0.00  0.00     0.275 HD
ENDBRANCH   5  10
ENDBRANCH   1   5
BRANCH   2  14
HETATM   14  C           1     -21.581  -7.338  -4.149  0.00  0.00     0.185 C 
BRANCH  14  15
HETATM   15  C           1     -20.835  -8.665  -4.193  0.00  0.00     0.036 C 
BRANCH  15  16
HETATM   16  C           1     -21.822  -9.810  -4.005  0.00  0.00     0.003 C 
BRANCH  16  17
HETATM   17 Se           1     -21.394 -10.774  -2.365  0.00  0.00     0.000 Se
HETATM   18  C           1     -23.244 -11.237  -1.961  0.00  0.00     0.000 C 
ENDBRANCH  16  17
ENDBRANCH  15  16
ENDBRANCH  14  15
BRANCH  14  19
HETATM   19  C           1     -21.582  -6.807  -2.737  0.00  0.00     0.196 C 
HETATM   20  O           1     -22.424  -5.951  -2.391  0.00  0.00    -0.646 OA
HETATM   21  O           1     -20.741  -7.225  -1.911  0.00  0.00    -0.646 OA
ENDBRANCH  14  19
ENDBRANCH   2  14
TORSDOF 9
ENDMDL
MODEL 8
REMARK VINA RESULT:      -4.9      4.986      8.330
REMARK  9 active torsions:
REMARK  status: ('A' for Active; 'I' for Inactive)
REMARK       I    between atoms: C_1  and  N_7 
REMARK    1  A    between atoms: C_1  and  C_3 
REMARK    2  A    between atoms: C_2  and  C_8 
REMARK    3  A    between atoms: C_2  and  C_17 
REMARK    4  A    between atoms: C_2  and  N_7 
REMARK    5  A    between atoms: C_3  and  C_4 
REMARK    6  A    between atoms: C_3  and  N_20 
REMARK    7  A    between atoms: C_4  and  C_13 
REMARK    8  A    between atoms: C_8  and  C_9 
REMARK    9  A    between atoms: C_9  and  Se_10 
ROOT
HETATM    1  C           1     -20.518  -8.217  -2.111  0.00  0.00     0.249 C 
HETATM    2  N           1     -21.161  -7.857  -3.264  0.00  0.00    -0.345 N 
HETATM    3  H           1     -22.100  -7.483  -3.225  0.00  0.00     0.163 HD
HETATM    4  O           1     -19.397  -8.664  -2.158  0.00  0.00    -0.271 OA
ENDROOT
BRANCH   1   5
HETATM    5  C           1     -21.210  -8.055  -0.779  0.00  0.00     0.278 C 
BRANCH   5   6
HETATM    6  C           1     -21.727  -9.408  -0.306  0.00  0.00     0.021 C 
HETATM    7  C           1     -20.956  -9.839   0.936  0.00  0.00     0.012 C 
BRANCH   6   8
HETATM    8  C           1     -23.208  -9.295   0.031  0.00  0.00     0.002 C 
HETATM    9  C           1     -23.877 -10.649  -0.160  0.00  0.00     0.005 C 
ENDBRANCH   6   8
ENDBRANCH   5   6
BRANCH   5  10
HETATM   10  N           1     -22.362  -7.106  -0.928  0.00  0.00    -0.066 N 
HETATM   11  H           1     -23.253  -7.597  -0.687  0.00  0.00     0.275 HD
HETATM   12  H           1     -22.408  -6.765  -1.915  0.00  0.00     0.275 HD
HETATM   13  H           1     -22.228  -6.293  -0.284  0.00  0.00     0.275 HD
ENDBRANCH   5  10
ENDBRANCH   1   5
BRANCH   2  14
HETATM   14  C           1     -20.496  -8.012  -4.543  0.00  0.00     0.185 C 
BRANCH  14  15
HETATM   15  C           1     -21.081  -9.211  -5.277  0.00  0.00     0.036 C 
BRANCH  15  16
HETATM   16  C           1     -20.111 -10.382  -5.193  0.00  0.00     0.003 C 
BRANCH  16  17
HETATM   17 Se           1     -18.292  -9.741  -5.478  0.00  0.00     0.000 Se
HETATM   18  C           1     -17.491 -10.935  -4.163  0.00  0.00     0.000 C 
ENDBRANCH  16  17
ENDBRANCH  15  16
ENDBRANCH  14  15
BRANCH  14  19
HETATM   19  C           1     -20.698  -6.767  -5.370  0.00  0.00     0.196 C 
HETATM   20  O           1     -20.951  -5.678  -4.809  0.00  0.00    -0.646 OA
HETATM   21  O           1     -20.611  -6.823  -6.616  0.00  0.00    -0.646 OA
ENDBRANCH  14  19
ENDBRANCH   2  14
TORSDOF 9
ENDMDL
MODEL 9
REMARK VINA RESULT:      -4.8      4.363      8.606
REMARK  9 active torsions:
REMARK  status: ('A' for Active; 'I' for Inactive)
REMARK       I    between atoms: C_1  and  N_7 
REMARK    1  A    between atoms: C_1  and  C_3 
REMARK    2  A    between atoms: C_2  and  C_8 
REMARK    3  A    between atoms: C_2  and  C_17 
REMARK    4  A    between atoms: C_2  and  N_7 
REMARK    5  A    between atoms: C_3  and  C_4 
REMARK    6  A    between atoms: C_3  and  N_20 
REMARK    7  A    between atoms: C_4  and  C_13 
REMARK    8  A    between atoms: C_8  and  C_9 
REMARK    9  A    between atoms: C_9  and  Se_10 
ROOT
HETATM    1  C           1     -20.790  -9.029  -2.279  0.00  0.00     0.249 C 
HETATM    2  N           1     -21.427  -8.630  -3.422  0.00  0.00    -0.345 N 
HETATM    3  H           1     -22.154  -9.207  -3.825  0.00  0.00     0.163 HD
HETATM    4  O           1     -19.922  -8.340  -1.798  0.00  0.00    -0.271 OA
ENDROOT
BRANCH   1   5
HETATM    5  C           1     -21.170 -10.332  -1.619  0.00  0.00     0.278 C 
BRANCH   5   6
HETATM    6  C           1     -22.450 -10.140  -0.815  0.00  0.00     0.021 C 
HETATM    7  C           1     -22.962 -11.496  -0.344  0.00  0.00     0.012 C 
BRANCH   6   8
HETATM    8  C           1     -22.162  -9.260   0.395  0.00  0.00     0.002 C 
HETATM    9  C           1     -23.165  -8.116   0.439  0.00  0.00     0.005 C 
ENDBRANCH   6   8
ENDBRANCH   5   6
BRANCH   5  10
HETATM   10  N           1     -20.067 -10.768  -0.701  0.00  0.00    -0.066 N 
HETATM   11  H           1     -20.353 -10.608   0.291  0.00  0.00     0.275 HD
HETATM   12  H           1     -19.203 -10.216  -0.908  0.00  0.00     0.275 HD
HETATM   13  H           1     -19.874 -11.785  -0.849  0.00  0.00     0.275 HD
ENDBRANCH   5  10
ENDBRANCH   1   5
BRANCH   2  14
HETATM   14  C           1     -21.061  -7.378  -4.055  0.00  0.00     0.185 C 
BRANCH  14  15
HETATM   15  C           1     -20.925  -7.590  -5.557  0.00  0.00     0.036 C 
BRANCH  15  16
HETATM   16  C           1     -20.021  -6.514  -6.143  0.00  0.00     0.003 C 
BRANCH  16  17
HETATM   17 Se           1     -20.915  -5.664  -7.653  0.00  0.00     0.000 Se
HETATM   18  C           1     -20.961  -3.894  -6.839  0.00  0.00     0.000 C 
ENDBRANCH  16  17
ENDBRANCH  15  16
ENDBRANCH  14  15
BRANCH  14  19
HETATM   19  C           1     -22.130  -6.347  -3.787  0.00  0.00     0.196 C 
HETATM   20  O           1     -22.942  -6.040  -4.686  0.00  0.00    -0.646 OA
HETATM   21  O           1     -22.203  -5.800  -2.665  0.00  0.00    -0.646 OA
ENDBRANCH  14  19
ENDBRANCH   2  14
TORSDOF 9
ENDMDL
