MODEL 1
REMARK VINA RESULT:      -8.2      0.000      0.000
REMARK  9 active torsions:
REMARK  status: ('A' for Active; 'I' for Inactive)
REMARK       I    between atoms: C_1  and  N_10 
REMARK    1  A    between atoms: C_1  and  C_22 
REMARK    2  A    between atoms: C_2  and  C_19 
REMARK    3  A    between atoms: C_2  and  C_17 
REMARK    4  A    between atoms: C_3  and  C_17 
REMARK    5  A    between atoms: C_9  and  C_23 
REMARK    6  A    between atoms: N_10  and  C_17 
REMARK    7  A    between atoms: N_11  and  C_22 
REMARK    8  A    between atoms: S_18  and  C_19 
REMARK    9  A    between atoms: C_22  and  C_23 
ROOT
HETATM    1  C           1     -21.058  -5.869  -6.960  0.00  0.00     0.278 C 
ENDROOT
BRANCH   1   2
HETATM    2  C           1     -21.633  -4.697  -7.715  0.00  0.00     0.249 C 
HETATM    3  N           1     -22.099  -4.868  -8.992  0.00  0.00    -0.345 N 
HETATM    4  H           1     -22.056  -5.780  -9.428  0.00  0.00     0.163 HD
HETATM    5  O           1     -21.685  -3.608  -7.194  0.00  0.00    -0.271 OA
BRANCH   3   6
HETATM    6  C           1     -22.653  -3.741  -9.718  0.00  0.00     0.186 C 
BRANCH   6   7
HETATM    7  C           1     -22.170  -3.781 -11.163  0.00  0.00     0.046 C 
BRANCH   7   8
HETATM    8  C           1     -22.786  -2.623 -11.936  0.00  0.00     0.076 C 
BRANCH   8   9
HETATM    9  S           1     -23.891  -3.271 -13.221  0.00  0.00    -0.173 SA
HETATM   10  C           1     -22.920  -2.681 -14.636  0.00  0.00     0.089 C 
ENDBRANCH   8   9
ENDBRANCH   7   8
ENDBRANCH   6   7
BRANCH   6  11
HETATM   11  C           1     -24.159  -3.818  -9.690  0.00  0.00     0.196 C 
HETATM   12  O           1     -24.832  -2.803  -9.407  0.00  0.00    -0.646 OA
HETATM   13  O           1     -24.735  -4.897  -9.952  0.00  0.00    -0.646 OA
ENDBRANCH   6  11
ENDBRANCH   3   6
ENDBRANCH   1   2
BRANCH   1  14
HETATM   14  N           1     -19.635  -6.087  -7.384  0.00  0.00    -0.066 N 
HETATM   15  H           1     -19.093  -5.203  -7.255  0.00  0.00     0.275 HD
HETATM   16  H           1     -19.211  -6.843  -6.802  0.00  0.00     0.275 HD
HETATM   17  H           1     -19.611  -6.365  -8.391  0.00  0.00     0.275 HD
ENDBRANCH   1  14
BRANCH   1  18
HETATM   18  C           1     -21.102  -5.581  -5.465  0.00  0.00     0.083 C 
BRANCH  18  19
HETATM   19  C           1     -21.145  -6.872  -4.708  0.00  0.00    -0.028 A 
HETATM   20  C           1     -21.528  -7.034  -3.348  0.00  0.00    -0.002 A 
HETATM   21  C           1     -21.422  -8.393  -3.051  0.00  0.00     0.042 A 
HETATM   22  C           1     -21.955  -6.152  -2.339  0.00  0.00     0.014 A 
HETATM   23  C           1     -21.725  -8.917  -1.788  0.00  0.00     0.030 A 
HETATM   24  N           1     -20.990  -9.025  -4.196  0.00  0.00    -0.365 N 
HETATM   25  C           1     -22.148  -8.021  -0.802  0.00  0.00     0.002 A 
HETATM   26  C           1     -22.262  -6.659  -1.070  0.00  0.00     0.001 A 
HETATM   27  C           1     -20.819  -8.114  -5.204  0.00  0.00     0.096 A 
HETATM   28  H           1     -20.816 -10.057  -4.283  0.00  0.00     0.165 HD
ENDBRANCH  18  19
ENDBRANCH   1  18
TORSDOF 9
ENDMDL
MODEL 2
REMARK VINA RESULT:      -7.7      3.551      8.675
REMARK  9 active torsions:
REMARK  status: ('A' for Active; 'I' for Inactive)
REMARK       I    between atoms: C_1  and  N_10 
REMARK    1  A    between atoms: C_1  and  C_22 
REMARK    2  A    between atoms: C_2  and  C_19 
REMARK    3  A    between atoms: C_2  and  C_17 
REMARK    4  A    between atoms: C_3  and  C_17 
REMARK    5  A    between atoms: C_9  and  C_23 
REMARK    6  A    between atoms: N_10  and  C_17 
REMARK    7  A    between atoms: N_11  and  C_22 
REMARK    8  A    between atoms: S_18  and  C_19 
REMARK    9  A    between atoms: C_22  and  C_23 
ROOT
HETATM    1  C           1     -21.993  -4.309  -7.153  0.00  0.00     0.278 C 
ENDROOT
BRANCH   1   2
HETATM    2  C           1     -21.132  -5.143  -6.238  0.00  0.00     0.249 C 
HETATM    3  N           1     -21.672  -6.216  -5.579  0.00  0.00    -0.345 N 
HETATM    4  H           1     -22.648  -6.448  -5.707  0.00  0.00     0.163 HD
HETATM    5  O           1     -19.967  -4.865  -6.086  0.00  0.00    -0.271 OA
BRANCH   3   6
HETATM    6  C           1     -20.844  -7.018  -4.699  0.00  0.00     0.186 C 
BRANCH   6   7
HETATM    7  C           1     -21.667  -7.470  -3.500  0.00  0.00     0.046 C 
BRANCH   7   8
HETATM    8  C           1     -21.757  -6.336  -2.488  0.00  0.00     0.076 C 
BRANCH   8   9
HETATM    9  S           1     -22.279  -6.997  -0.881  0.00  0.00    -0.173 SA
HETATM   10  C           1     -21.855  -8.728  -1.229  0.00  0.00     0.089 C 
ENDBRANCH   8   9
ENDBRANCH   7   8
ENDBRANCH   6   7
BRANCH   6  11
HETATM   11  C           1     -20.342  -8.227  -5.448  0.00  0.00     0.196 C 
HETATM   12  O           1     -19.163  -8.259  -5.865  0.00  0.00    -0.646 OA
HETATM   13  O           1     -21.103  -9.198  -5.651  0.00  0.00    -0.646 OA
ENDBRANCH   6  11
ENDBRANCH   3   6
ENDBRANCH   1   2
BRANCH   1  14
HETATM   14  N           1     -21.529  -2.882  -7.114  0.00  0.00    -0.066 N 
HETATM   15  H           1     -22.355  -2.248  -7.038  0.00  0.00     0.275 HD
HETATM   16  H           1     -20.905  -2.743  -6.288  0.00  0.00     0.275 HD
HETATM   17  H           1     -21.002  -2.664  -7.990  0.00  0.00     0.275 HD
ENDBRANCH   1  14
BRANCH   1  18
HETATM   18  C           1     -21.884  -4.839  -8.577  0.00  0.00     0.083 C 
BRANCH  18  19
HETATM   19  C           1     -23.030  -4.327  -9.391  0.00  0.00    -0.028 A 
HETATM   20  C           1     -22.965  -3.866 -10.736  0.00  0.00    -0.002 A 
HETATM   21  C           1     -24.256  -3.484 -11.102  0.00  0.00     0.042 A 
HETATM   22  C           1     -21.928  -3.739 -11.678  0.00  0.00     0.014 A 
HETATM   23  C           1     -24.562  -2.977 -12.371  0.00  0.00     0.030 A 
HETATM   24  N           1     -25.068  -3.708 -10.013  0.00  0.00    -0.365 N 
HETATM   25  C           1     -23.516  -2.860 -13.290  0.00  0.00     0.002 A 
HETATM   26  C           1     -22.217  -3.234 -12.951  0.00  0.00     0.001 A 
HETATM   27  C           1     -24.337  -4.217  -8.973  0.00  0.00     0.096 A 
HETATM   28  H           1     -26.100  -3.514  -9.983  0.00  0.00     0.165 HD
ENDBRANCH  18  19
ENDBRANCH   1  18
TORSDOF 9
ENDMDL
MODEL 3
REMARK VINA RESULT:      -7.6      3.921      8.578
REMARK  9 active torsions:
REMARK  status: ('A' for Active; 'I' for Inactive)
REMARK       I    between atoms: C_1  and  N_10 
REMARK    1  A    between atoms: C_1  and  C_22 
REMARK    2  A    between atoms: C_2  and  C_19 
REMARK    3  A    between atoms: C_2  and  C_17 
REMARK    4  A    between atoms: C_3  and  C_17 
REMARK    5  A    between atoms: C_9  and  C_23 
REMARK    6  A    between atoms: N_10  and  C_17 
REMARK    7  A    between atoms: N_11  and  C_22 
REMARK    8  A    between atoms: S_18  and  C_19 
REMARK    9  A    between atoms: C_22  and  C_23 
ROOT
HETATM    1  C           1     -20.807  -5.513  -6.032  0.00  0.00     0.278 C 
ENDROOT
BRANCH   1   2
HETATM    2  C           1     -20.274  -6.888  -5.714  0.00  0.00     0.249 C 
HETATM    3  N           1     -20.693  -7.541  -4.586  0.00  0.00    -0.345 N 
HETATM    4  H           1     -21.359  -7.100  -3.965  0.00  0.00     0.163 HD
HETATM    5  O           1     -19.479  -7.414  -6.456  0.00  0.00    -0.271 OA
BRANCH   3   6
HETATM    6  C           1     -20.181  -8.863  -4.281  0.00  0.00     0.186 C 
BRANCH   6   7
HETATM    7  C           1     -20.011  -9.008  -2.774  0.00  0.00     0.046 C 
BRANCH   7   8
HETATM    8  C           1     -20.565  -7.772  -2.079  0.00  0.00     0.076 C 
BRANCH   8   9
HETATM    9  S           1     -21.961  -8.246  -1.021  0.00  0.00    -0.173 SA
HETATM   10  C           1     -21.078  -9.529  -0.088  0.00  0.00     0.089 C 
ENDBRANCH   8   9
ENDBRANCH   7   8
ENDBRANCH   6   7
BRANCH   6  11
HETATM   11  C           1     -21.154  -9.904  -4.778  0.00  0.00     0.196 C 
HETATM   12  O           1     -22.053 -10.331  -4.022  0.00  0.00    -0.646 OA
HETATM   13  O           1     -21.061 -10.339  -5.946  0.00  0.00    -0.646 OA
ENDBRANCH   6  11
ENDBRANCH   3   6
ENDBRANCH   1   2
BRANCH   1  14
HETATM   14  N           1     -20.090  -4.494  -5.195  0.00  0.00    -0.066 N 
HETATM   15  H           1     -19.538  -4.979  -4.452  0.00  0.00     0.275 HD
HETATM   16  H           1     -19.446  -3.939  -5.801  0.00  0.00     0.275 HD
HETATM   17  H           1     -20.788  -3.857  -4.750  0.00  0.00     0.275 HD
ENDBRANCH   1  14
BRANCH   1  18
HETATM   18  C           1     -20.581  -5.208  -7.506  0.00  0.00     0.083 C 
BRANCH  18  19
HETATM   19  C           1     -21.831  -4.635  -8.096  0.00  0.00    -0.028 A 
HETATM   20  C           1     -21.998  -4.187  -9.436  0.00  0.00    -0.002 A 
HETATM   21  C           1     -23.311  -3.731  -9.557  0.00  0.00     0.042 A 
HETATM   22  C           1     -21.154  -4.126 -10.560  0.00  0.00     0.014 A 
HETATM   23  C           1     -23.825  -3.215 -10.753  0.00  0.00     0.030 A 
HETATM   24  N           1     -23.912  -3.901  -8.330  0.00  0.00    -0.365 N 
HETATM   25  C           1     -22.968  -3.164 -11.856  0.00  0.00     0.002 A 
HETATM   26  C           1     -21.651  -3.612 -11.764  0.00  0.00     0.001 A 
HETATM   27  C           1     -23.026  -4.446  -7.439  0.00  0.00     0.096 A 
HETATM   28  H           1     -24.907  -3.647  -8.108  0.00  0.00     0.165 HD
ENDBRANCH  18  19
ENDBRANCH   1  18
TORSDOF 9
ENDMDL
MODEL 4
REMARK VINA RESULT:      -7.6      3.687      8.573
REMARK  9 active torsions:
REMARK  status: ('A' for Active; 'I' for Inactive)
REMARK       I    between atoms: C_1  and  N_10 
REMARK    1  A    between atoms: C_1  and  C_22 
REMARK    2  A    between atoms: C_2  and  C_19 
REMARK    3  A    between atoms: C_2  and  C_17 
REMARK    4  A    between atoms: C_3  and  C_17 
REMARK    5  A    between atoms: C_9  and  C_23 
REMARK    6  A    between atoms: N_10  and  C_17 
REMARK    7  A    between atoms: N_11  and  C_22 
REMARK    8  A    between atoms: S_18  and  C_19 
REMARK    9  A    between atoms: C_22  and  C_23 
ROOT
HETATM    1  C           1     -22.123  -5.163  -6.881  0.00  0.00     0.278 C 
ENDROOT
BRANCH   1   2
HETATM    2  C           1     -21.295  -5.658  -5.720  0.00  0.00     0.249 C 
HETATM    3  N           1     -21.413  -6.956  -5.301  0.00  0.00    -0.345 N 
HETATM    4  H           1     -22.055  -7.582  -5.769  0.00  0.00     0.163 HD
HETATM    5  O           1     -20.529  -4.909  -5.162  0.00  0.00    -0.271 OA
BRANCH   3   6
HETATM    6  C           1     -20.617  -7.432  -4.186  0.00  0.00     0.186 C 
BRANCH   6   7
HETATM    7  C           1     -21.539  -7.896  -3.065  0.00  0.00     0.046 C 
BRANCH   7   8
HETATM    8  C           1     -21.879  -6.715  -2.166  0.00  0.00     0.076 C 
BRANCH   8   9
HETATM    9  S           1     -22.312  -7.319  -0.510  0.00  0.00    -0.173 SA
HETATM   10  C           1     -21.333  -8.845  -0.591  0.00  0.00     0.089 C 
ENDBRANCH   8   9
ENDBRANCH   7   8
ENDBRANCH   6   7
BRANCH   6  11
HETATM   11  C           1     -19.758  -8.587  -4.639  0.00  0.00     0.196 C 
HETATM   12  O           1     -18.788  -8.956  -3.942  0.00  0.00    -0.646 OA
HETATM   13  O           1     -20.018  -9.176  -5.711  0.00  0.00    -0.646 OA
ENDBRANCH   6  11
ENDBRANCH   3   6
ENDBRANCH   1   2
BRANCH   1  14
HETATM   14  N           1     -23.530  -4.917  -6.422  0.00  0.00    -0.066 N 
HETATM   15  H           1     -23.803  -3.933  -6.643  0.00  0.00     0.275 HD
HETATM   16  H           1     -24.175  -5.576  -6.913  0.00  0.00     0.275 HD
HETATM   17  H           1     -23.592  -5.072  -5.390  0.00  0.00     0.275 HD
ENDBRANCH   1  14
BRANCH   1  18
HETATM   18  C           1     -21.529  -3.865  -7.411  0.00  0.00     0.083 C 
BRANCH  18  19
HETATM   19  C           1     -21.340  -3.970  -8.892  0.00  0.00    -0.028 A 
HETATM   20  C           1     -22.340  -3.760  -9.882  0.00  0.00    -0.002 A 
HETATM   21  C           1     -21.736  -3.959 -11.124  0.00  0.00     0.042 A 
HETATM   22  C           1     -23.704  -3.417  -9.839  0.00  0.00     0.014 A 
HETATM   23  C           1     -22.433  -3.832 -12.332  0.00  0.00     0.030 A 
HETATM   24  N           1     -20.418  -4.278 -10.887  0.00  0.00    -0.365 N 
HETATM   25  C           1     -23.787  -3.492 -12.264  0.00  0.00     0.002 A 
HETATM   26  C           1     -24.416  -3.287 -11.038  0.00  0.00     0.001 A 
HETATM   27  C           1     -20.168  -4.288  -9.540  0.00  0.00     0.096 A 
HETATM   28  H           1     -19.706  -4.485 -11.631  0.00  0.00     0.165 HD
ENDBRANCH  18  19
ENDBRANCH   1  18
TORSDOF 9
ENDMDL
MODEL 5
REMARK VINA RESULT:      -7.1      4.510      8.696
REMARK  9 active torsions:
REMARK  status: ('A' for Active; 'I' for Inactive)
REMARK       I    between atoms: C_1  and  N_10 
REMARK    1  A    between atoms: C_1  and  C_22 
REMARK    2  A    between atoms: C_2  and  C_19 
REMARK    3  A    between atoms: C_2  and  C_17 
REMARK    4  A    between atoms: C_3  and  C_17 
REMARK    5  A    between atoms: C_9  and  C_23 
REMARK    6  A    between atoms: N_10  and  C_17 
REMARK    7  A    between atoms: N_11  and  C_22 
REMARK    8  A    between atoms: S_18  and  C_19 
REMARK    9  A    between atoms: C_22  and  C_23 
ROOT
HETATM    1  C           1     -21.522  -6.240  -5.571  0.00  0.00     0.278 C 
ENDROOT
BRANCH   1   2
HETATM    2  C           1     -20.499  -7.345  -5.665  0.00  0.00     0.249 C 
HETATM    3  N           1     -20.553  -8.403  -4.797  0.00  0.00    -0.345 N 
HETATM    4  H           1     -21.278  -8.443  -4.093  0.00  0.00     0.163 HD
HETATM    5  O           1     -19.634  -7.297  -6.506  0.00  0.00    -0.271 OA
BRANCH   3   6
HETATM    6  C           1     -19.571  -9.466  -4.888  0.00  0.00     0.186 C 
BRANCH   6   7
HETATM    7  C           1     -18.876  -9.633  -3.542  0.00  0.00     0.046 C 
BRANCH   7   8
HETATM    8  C           1     -17.376  -9.775  -3.759  0.00  0.00     0.076 C 
BRANCH   8   9
HETATM    9  S           1     -16.910 -11.525  -3.640  0.00  0.00    -0.173 SA
HETATM   10  C           1     -15.415 -11.267  -2.643  0.00  0.00     0.089 C 
ENDBRANCH   8   9
ENDBRANCH   7   8
ENDBRANCH   6   7
BRANCH   6  11
HETATM   11  C           1     -20.260 -10.755  -5.260  0.00  0.00     0.196 C 
HETATM   12  O           1     -20.496 -11.614  -4.383  0.00  0.00    -0.646 OA
HETATM   13  O           1     -20.596 -10.965  -6.446  0.00  0.00    -0.646 OA
ENDBRANCH   6  11
ENDBRANCH   3   6
ENDBRANCH   1   2
BRANCH   1  14
HETATM   14  N           1     -21.789  -5.928  -4.127  0.00  0.00    -0.066 N 
HETATM   15  H           1     -22.419  -6.657  -3.724  0.00  0.00     0.275 HD
HETATM   16  H           1     -20.887  -5.918  -3.602  0.00  0.00     0.275 HD
HETATM   17  H           1     -22.247  -4.991  -4.053  0.00  0.00     0.275 HD
ENDBRANCH   1  14
BRANCH   1  18
HETATM   18  C           1     -20.991  -4.995  -6.269  0.00  0.00     0.083 C 
BRANCH  18  19
HETATM   19  C           1     -21.948  -4.574  -7.339  0.00  0.00    -0.028 A 
HETATM   20  C           1     -21.616  -4.263  -8.687  0.00  0.00    -0.002 A 
HETATM   21  C           1     -22.803  -3.922  -9.334  0.00  0.00     0.042 A 
HETATM   22  C           1     -20.414  -4.241  -9.419  0.00  0.00     0.014 A 
HETATM   23  C           1     -22.849  -3.557 -10.686  0.00  0.00     0.030 A 
HETATM   24  N           1     -23.814  -4.025  -8.406  0.00  0.00    -0.365 N 
HETATM   25  C           1     -21.643  -3.541 -11.392  0.00  0.00     0.002 A 
HETATM   26  C           1     -20.442  -3.877 -10.771  0.00  0.00     0.001 A 
HETATM   27  C           1     -23.308  -4.418  -7.195  0.00  0.00     0.096 A 
HETATM   28  H           1     -24.828  -3.828  -8.597  0.00  0.00     0.165 HD
ENDBRANCH  18  19
ENDBRANCH   1  18
TORSDOF 9
ENDMDL
MODEL 6
REMARK VINA RESULT:      -7.0      2.395      3.489
REMARK  9 active torsions:
REMARK  status: ('A' for Active; 'I' for Inactive)
REMARK       I    between atoms: C_1  and  N_10 
REMARK    1  A    between atoms: C_1  and  C_22 
REMARK    2  A    between atoms: C_2  and  C_19 
REMARK    3  A    between atoms: C_2  and  C_17 
REMARK    4  A    between atoms: C_3  and  C_17 
REMARK    5  A    between atoms: C_9  and  C_23 
REMARK    6  A    between atoms: N_10  and  C_17 
REMARK    7  A    between atoms: N_11  and  C_22 
REMARK    8  A    between atoms: S_18  and  C_19 
REMARK    9  A    between atoms: C_22  and  C_23 
ROOT
HETATM    1  C           1     -21.110  -8.199  -5.338  0.00  0.00     0.278 C 
ENDROOT
BRANCH   1   2
HETATM    2  C           1     -20.647  -7.204  -6.373  0.00  0.00     0.249 C 
HETATM    3  N           1     -21.549  -6.352  -6.955  0.00  0.00    -0.345 N 
HETATM    4  H           1     -22.524  -6.392  -6.691  0.00  0.00     0.163 HD
HETATM    5  O           1     -19.482  -7.157  -6.688  0.00  0.00    -0.271 OA
BRANCH   3   6
HETATM    6  C           1     -21.104  -5.396  -7.950  0.00  0.00     0.186 C 
BRANCH   6   7
HETATM    7  C           1     -22.315  -4.771  -8.632  0.00  0.00     0.046 C 
BRANCH   7   8
HETATM    8  C           1     -21.992  -4.504 -10.096  0.00  0.00     0.076 C 
BRANCH   8   9
HETATM    9  S           1     -23.533  -4.420 -11.050  0.00  0.00    -0.173 SA
HETATM   10  C           1     -24.469  -3.451  -9.834  0.00  0.00     0.089 C 
ENDBRANCH   8   9
ENDBRANCH   7   8
ENDBRANCH   6   7
BRANCH   6  11
HETATM   11  C           1     -20.293  -4.315  -7.279  0.00  0.00     0.196 C 
HETATM   12  O           1     -19.308  -3.817  -7.866  0.00  0.00    -0.646 OA
HETATM   13  O           1     -20.606  -3.917  -6.136  0.00  0.00    -0.646 OA
ENDBRANCH   6  11
ENDBRANCH   3   6
ENDBRANCH   1   2
BRANCH   1  14
HETATM   14  N           1     -20.952  -9.590  -5.876  0.00  0.00    -0.066 N 
HETATM   15  H           1     -20.950 -10.273  -5.085  0.00  0.00     0.275 HD
HETATM   16  H           1     -21.745  -9.806  -6.520  0.00  0.00     0.275 HD
HETATM   17  H           1     -20.050  -9.660  -6.399  0.00  0.00     0.275 HD
ENDBRANCH   1  14
BRANCH   1  18
HETATM   18  C           1     -20.272  -8.046  -4.075  0.00  0.00     0.083 C 
BRANCH  18  19
HETATM   19  C           1     -21.092  -7.395  -3.006  0.00  0.00    -0.028 A 
HETATM   20  C           1     -21.536  -8.006  -1.800  0.00  0.00    -0.002 A 
HETATM   21  C           1     -22.266  -7.047  -1.098  0.00  0.00     0.042 A 
HETATM   22  C           1     -21.384  -9.288  -1.239  0.00  0.00     0.014 A 
HETATM   23  C           1     -22.855  -7.307   0.146  0.00  0.00     0.030 A 
HETATM   24  N           1     -22.260  -5.898  -1.857  0.00  0.00    -0.365 N 
HETATM   25  C           1     -22.691  -8.587   0.683  0.00  0.00     0.002 A 
HETATM   26  C           1     -21.967  -9.564   0.004  0.00  0.00     0.001 A 
HETATM   27  C           1     -21.553  -6.098  -3.014  0.00  0.00     0.096 A 
HETATM   28  H           1     -22.731  -4.999  -1.589  0.00  0.00     0.165 HD
ENDBRANCH  18  19
ENDBRANCH   1  18
TORSDOF 9
ENDMDL
MODEL 7
REMARK VINA RESULT:      -6.7      4.461      8.402
REMARK  9 active torsions:
REMARK  status: ('A' for Active; 'I' for Inactive)
REMARK       I    between atoms: C_1  and  N_10 
REMARK    1  A    between atoms: C_1  and  C_22 
REMARK    2  A    between atoms: C_2  and  C_19 
REMARK    3  A    between atoms: C_2  and  C_17 
REMARK    4  A    between atoms: C_3  and  C_17 
REMARK    5  A    between atoms: C_9  and  C_23 
REMARK    6  A    between atoms: N_10  and  C_17 
REMARK    7  A    between atoms: N_11  and  C_22 
REMARK    8  A    between atoms: S_18  and  C_19 
REMARK    9  A    between atoms: C_22  and  C_23 
ROOT
HETATM    1  C           1     -21.774  -6.437  -5.094  0.00  0.00     0.278 C 
ENDROOT
BRANCH   1   2
HETATM    2  C           1     -21.080  -7.770  -4.961  0.00  0.00     0.249 C 
HETATM    3  N           1     -20.518  -8.134  -3.767  0.00  0.00    -0.345 N 
HETATM    4  H           1     -20.567  -7.507  -2.974  0.00  0.00     0.163 HD
HETATM    5  O           1     -21.022  -8.517  -5.909  0.00  0.00    -0.271 OA
BRANCH   3   6
HETATM    6  C           1     -19.851  -9.415  -3.640  0.00  0.00     0.186 C 
BRANCH   6   7
HETATM    7  C           1     -18.342  -9.205  -3.629  0.00  0.00     0.046 C 
BRANCH   7   8
HETATM    8  C           1     -17.731  -9.851  -4.864  0.00  0.00     0.076 C 
BRANCH   8   9
HETATM    9  S           1     -15.996 -10.267  -4.534  0.00  0.00    -0.173 SA
HETATM   10  C           1     -15.955  -9.628  -2.836  0.00  0.00     0.089 C 
ENDBRANCH   8   9
ENDBRANCH   7   8
ENDBRANCH   6   7
BRANCH   6  11
HETATM   11  C           1     -20.275 -10.075  -2.351  0.00  0.00     0.196 C 
HETATM   12  O           1     -19.492 -10.847  -1.757  0.00  0.00    -0.646 OA
HETATM   13  O           1     -21.409  -9.848  -1.876  0.00  0.00    -0.646 OA
ENDBRANCH   6  11
ENDBRANCH   3   6
ENDBRANCH   1   2
BRANCH   1  14
HETATM   14  N           1     -22.663  -6.216  -3.905  0.00  0.00    -0.066 N 
HETATM   15  H           1     -22.971  -7.139  -3.524  0.00  0.00     0.275 HD
HETATM   16  H           1     -22.136  -5.694  -3.170  0.00  0.00     0.275 HD
HETATM   17  H           1     -23.500  -5.662  -4.195  0.00  0.00     0.275 HD
ENDBRANCH   1  14
BRANCH   1  18
HETATM   18  C           1     -20.733  -5.327  -5.161  0.00  0.00     0.083 C 
BRANCH  18  19
HETATM   19  C           1     -20.512  -4.936  -6.589  0.00  0.00    -0.028 A 
HETATM   20  C           1     -21.519  -4.567  -7.524  0.00  0.00    -0.002 A 
HETATM   21  C           1     -20.876  -4.282  -8.728  0.00  0.00     0.042 A 
HETATM   22  C           1     -22.919  -4.449  -7.458  0.00  0.00     0.014 A 
HETATM   23  C           1     -21.569  -3.881  -9.878  0.00  0.00     0.030 A 
HETATM   24  N           1     -19.528  -4.473  -8.523  0.00  0.00    -0.365 N 
HETATM   25  C           1     -22.959  -3.771  -9.789  0.00  0.00     0.002 A 
HETATM   26  C           1     -23.627  -4.050  -8.598  0.00  0.00     0.001 A 
HETATM   27  C           1     -19.297  -4.869  -7.232  0.00  0.00     0.096 A 
HETATM   28  H           1     -18.784  -4.336  -9.251  0.00  0.00     0.165 HD
ENDBRANCH  18  19
ENDBRANCH   1  18
TORSDOF 9
ENDMDL
MODEL 8
REMARK VINA RESULT:      -6.7      4.189      8.584
REMARK  9 active torsions:
REMARK  status: ('A' for Active; 'I' for Inactive)
REMARK       I    between atoms: C_1  and  N_10 
REMARK    1  A    between atoms: C_1  and  C_22 
REMARK    2  A    between atoms: C_2  and  C_19 
REMARK    3  A    between atoms: C_2  and  C_17 
REMARK    4  A    between atoms: C_3  and  C_17 
REMARK    5  A    between atoms: C_9  and  C_23 
REMARK    6  A    between atoms: N_10  and  C_17 
REMARK    7  A    between atoms: N_11  and  C_22 
REMARK    8  A    between atoms: S_18  and  C_19 
REMARK    9  A    between atoms: C_22  and  C_23 
ROOT
HETATM    1  C           1     -21.932  -6.330  -5.954  0.00  0.00     0.278 C 
ENDROOT
BRANCH   1   2
HETATM    2  C           1     -21.015  -7.396  -5.406  0.00  0.00     0.249 C 
HETATM    3  N           1     -21.538  -8.553  -4.895  0.00  0.00    -0.345 N 
HETATM    4  H           1     -22.540  -8.692  -4.883  0.00  0.00     0.163 HD
HETATM    5  O           1     -19.819  -7.228  -5.420  0.00  0.00    -0.271 OA
BRANCH   3   6
HETATM    6  C           1     -20.657  -9.577  -4.369  0.00  0.00     0.186 C 
BRANCH   6   7
HETATM    7  C           1     -21.274 -10.186  -3.117  0.00  0.00     0.046 C 
BRANCH   7   8
HETATM    8  C           1     -20.899  -9.346  -1.904  0.00  0.00     0.076 C 
BRANCH   8   9
HETATM    9  S           1     -22.140  -9.575  -0.600  0.00  0.00    -0.173 SA
HETATM   10  C           1     -21.003 -10.256   0.640  0.00  0.00     0.089 C 
ENDBRANCH   8   9
ENDBRANCH   7   8
ENDBRANCH   6   7
BRANCH   6  11
HETATM   11  C           1     -20.463 -10.654  -5.408  0.00  0.00     0.196 C 
HETATM   12  O           1     -21.202 -10.690  -6.416  0.00  0.00    -0.646 OA
HETATM   13  O           1     -19.562 -11.508  -5.263  0.00  0.00    -0.646 OA
ENDBRANCH   6  11
ENDBRANCH   3   6
ENDBRANCH   1   2
BRANCH   1  14
HETATM   14  N           1     -23.033  -6.065  -4.969  0.00  0.00    -0.066 N 
HETATM   15  H           1     -23.958  -6.205  -5.433  0.00  0.00     0.275 HD
HETATM   16  H           1     -22.944  -6.723  -4.163  0.00  0.00     0.275 HD
HETATM   17  H           1     -22.962  -5.080  -4.625  0.00  0.00     0.275 HD
ENDBRANCH   1  14
BRANCH   1  18
HETATM   18  C           1     -21.142  -5.050  -6.188  0.00  0.00     0.083 C 
BRANCH  18  19
HETATM   19  C           1     -21.023  -4.797  -7.658  0.00  0.00    -0.028 A 
HETATM   20  C           1     -22.066  -4.357  -8.521  0.00  0.00    -0.002 A 
HETATM   21  C           1     -21.523  -4.253  -9.801  0.00  0.00     0.042 A 
HETATM   22  C           1     -23.423  -4.036  -8.332  0.00  0.00     0.014 A 
HETATM   23  C           1     -22.274  -3.841 -10.909  0.00  0.00     0.030 A 
HETATM   24  N           1     -20.198  -4.618  -9.710  0.00  0.00    -0.365 N 
HETATM   25  C           1     -23.619  -3.528 -10.697  0.00  0.00     0.002 A 
HETATM   26  C           1     -24.188  -3.623  -9.429  0.00  0.00     0.001 A 
HETATM   27  C           1     -19.886  -4.950  -8.419  0.00  0.00     0.096 A 
HETATM   28  H           1     -19.524  -4.641 -10.516  0.00  0.00     0.165 HD
ENDBRANCH  18  19
ENDBRANCH   1  18
TORSDOF 9
ENDMDL
MODEL 9
REMARK VINA RESULT:      -6.6      5.961      8.126
REMARK  9 active torsions:
REMARK  status: ('A' for Active; 'I' for Inactive)
REMARK       I    between atoms: C_1  and  N_10 
REMARK    1  A    between atoms: C_1  and  C_22 
REMARK    2  A    between atoms: C_2  and  C_19 
REMARK    3  A    between atoms: C_2  and  C_17 
REMARK    4  A    between atoms: C_3  and  C_17 
REMARK    5  A    between atoms: C_9  and  C_23 
REMARK    6  A    between atoms: N_10  and  C_17 
REMARK    7  A    between atoms: N_11  and  C_22 
REMARK    8  A    between atoms: S_18  and  C_19 
REMARK    9  A    between atoms: C_22  and  C_23 
ROOT
HETATM    1  C           1     -20.071  -7.665  -4.958  0.00  0.00     0.278 C 
ENDROOT
BRANCH   1   2
HETATM    2  C           1     -19.187  -8.888  -4.943  0.00  0.00     0.249 C 
HETATM    3  N           1     -18.475  -9.205  -3.817  0.00  0.00    -0.345 N 
HETATM    4  H           1     -18.542  -8.618  -2.995  0.00  0.00     0.163 HD
HETATM    5  O           1     -19.108  -9.588  -5.924  0.00  0.00    -0.271 OA
BRANCH   3   6
HETATM    6  C           1     -17.627 -10.381  -3.803  0.00  0.00     0.186 C 
BRANCH   6   7
HETATM    7  C           1     -16.167  -9.953  -3.715  0.00  0.00     0.046 C 
BRANCH   7   8
HETATM    8  C           1     -15.585  -9.844  -5.118  0.00  0.00     0.076 C 
BRANCH   8   9
HETATM    9  S           1     -15.700 -11.453  -5.949  0.00  0.00    -0.173 SA
HETATM   10  C           1     -14.050 -12.043  -5.473  0.00  0.00     0.089 C 
ENDBRANCH   8   9
ENDBRANCH   7   8
ENDBRANCH   6   7
BRANCH   6  11
HETATM   11  C           1     -17.972 -11.234  -2.607  0.00  0.00     0.196 C 
HETATM   12  O           1     -17.307 -11.132  -1.553  0.00  0.00    -0.646 OA
HETATM   13  O           1     -18.924 -12.042  -2.670  0.00  0.00    -0.646 OA
ENDBRANCH   6  11
ENDBRANCH   3   6
ENDBRANCH   1   2
BRANCH   1  14
HETATM   14  N           1     -20.116  -7.098  -6.346  0.00  0.00    -0.066 N 
HETATM   15  H           1     -21.110  -6.994  -6.648  0.00  0.00     0.275 HD
HETATM   16  H           1     -19.649  -6.164  -6.355  0.00  0.00     0.275 HD
HETATM   17  H           1     -19.619  -7.743  -7.001  0.00  0.00     0.275 HD
ENDBRANCH   1  14
BRANCH   1  18
HETATM   18  C           1     -21.478  -8.050  -4.521  0.00  0.00     0.083 C 
BRANCH  18  19
HETATM   19  C           1     -21.738  -7.518  -3.147  0.00  0.00    -0.028 A 
HETATM   20  C           1     -21.619  -8.245  -1.930  0.00  0.00    -0.002 A 
HETATM   21  C           1     -21.954  -7.372  -0.895  0.00  0.00     0.042 A 
HETATM   22  C           1     -21.256  -9.567  -1.610  0.00  0.00     0.014 A 
HETATM   23  C           1     -21.944  -7.757   0.451  0.00  0.00     0.030 A 
HETATM   24  N           1     -22.264  -6.161  -1.472  0.00  0.00    -0.365 N 
HETATM   25  C           1     -21.580  -9.074   0.744  0.00  0.00     0.002 A 
HETATM   26  C           1     -21.241  -9.968  -0.269  0.00  0.00     0.001 A 
HETATM   27  C           1     -22.137  -6.239  -2.834  0.00  0.00     0.096 A 
HETATM   28  H           1     -22.557  -5.301  -0.945  0.00  0.00     0.165 HD
ENDBRANCH  18  19
ENDBRANCH   1  18
TORSDOF 9
ENDMDL
