MODEL 1
REMARK VINA RESULT:      -6.0      0.000      0.000
REMARK  9 active torsions:
REMARK  status: ('A' for Active; 'I' for Inactive)
REMARK    1  A    between atoms: N_1  and  C_19 
REMARK       I    between atoms: N_1  and  C_2 
REMARK    2  A    between atoms: C_2  and  C_3 
REMARK    3  A    between atoms: C_3  and  C_4 
REMARK    4  A    between atoms: C_3  and  N_13 
REMARK    5  A    between atoms: C_4  and  C_5 
REMARK    6  A    between atoms: C_5  and  C_8 
REMARK    7  A    between atoms: C_18  and  C_19 
REMARK    8  A    between atoms: C_19  and  C_20 
REMARK    9  A    between atoms: C_20  and  Se_21 
ROOT
HETATM    1  N           1     -35.369  -0.795 -12.832  0.00  0.00    -0.345 N 
HETATM    2  C           1     -34.628  -1.940 -12.709  0.00  0.00     0.249 C 
HETATM    3  O           1     -34.691  -2.794 -13.560  0.00  0.00    -0.271 OA
HETATM    4  H           1     -35.316  -0.078 -12.119  0.00  0.00     0.163 HD
ENDROOT
BRANCH   2   5
HETATM    5  C           1     -33.732  -2.133 -11.510  0.00  0.00     0.275 C 
BRANCH   5   6
HETATM    6  C           1     -33.203  -3.561 -11.496  0.00  0.00     0.053 C 
BRANCH   6   7
HETATM    7  C           1     -33.992  -4.386 -10.489  0.00  0.00     0.115 C 
BRANCH   7   8
HETATM    8  C           1     -34.387  -5.701 -11.115  0.00  0.00     0.172 C 
HETATM    9  O           1     -34.226  -6.768 -10.483  0.00  0.00    -0.648 OA
HETATM   10  O           1     -34.875  -5.725 -12.265  0.00  0.00    -0.648 OA
ENDBRANCH   7   8
ENDBRANCH   6   7
ENDBRANCH   5   6
BRANCH   5  11
HETATM   11  N           1     -34.514  -1.878 -10.256  0.00  0.00    -0.066 N 
HETATM   12  H           1     -34.531  -0.852 -10.060  0.00  0.00     0.275 HD
HETATM   13  H           1     -35.491  -2.228 -10.378  0.00  0.00     0.275 HD
HETATM   14  H           1     -34.063  -2.378  -9.457  0.00  0.00     0.275 HD
ENDBRANCH   5  11
ENDBRANCH   2   5
BRANCH   1  15
HETATM   15  C           1     -36.230  -0.608 -13.983  0.00  0.00     0.185 C 
BRANCH  15  16
HETATM   16  C           1     -35.588   0.370 -14.937  0.00  0.00     0.196 C 
HETATM   17  O           1     -34.393   0.701 -14.780  0.00  0.00    -0.646 OA
HETATM   18  O           1     -36.251   0.849 -15.882  0.00  0.00    -0.646 OA
ENDBRANCH  15  16
BRANCH  15  19
HETATM   19  C           1     -37.577  -0.065 -13.527  0.00  0.00     0.039 C 
BRANCH  19  20
HETATM   20 Se           1     -37.694  -0.166 -11.584  0.00  0.00     0.000 Se
HETATM   21  H           1     -38.800  -1.139 -11.585  0.00  0.00     0.000 HD
ENDBRANCH  19  20
ENDBRANCH  15  19
ENDBRANCH   1  15
TORSDOF 9
ENDMDL
MODEL 2
REMARK VINA RESULT:      -5.8     12.508     14.469
REMARK  9 active torsions:
REMARK  status: ('A' for Active; 'I' for Inactive)
REMARK    1  A    between atoms: N_1  and  C_19 
REMARK       I    between atoms: N_1  and  C_2 
REMARK    2  A    between atoms: C_2  and  C_3 
REMARK    3  A    between atoms: C_3  and  C_4 
REMARK    4  A    between atoms: C_3  and  N_13 
REMARK    5  A    between atoms: C_4  and  C_5 
REMARK    6  A    between atoms: C_5  and  C_8 
REMARK    7  A    between atoms: C_18  and  C_19 
REMARK    8  A    between atoms: C_19  and  C_20 
REMARK    9  A    between atoms: C_20  and  Se_21 
ROOT
HETATM    1  N           1     -21.182  -4.180  -9.450  0.00  0.00    -0.345 N 
HETATM    2  C           1     -22.171  -4.036 -10.386  0.00  0.00     0.249 C 
HETATM    3  O           1     -23.226  -4.607 -10.244  0.00  0.00    -0.271 OA
HETATM    4  H           1     -20.299  -3.701  -9.569  0.00  0.00     0.163 HD
ENDROOT
BRANCH   2   5
HETATM    5  C           1     -21.943  -3.162 -11.596  0.00  0.00     0.275 C 
BRANCH   5   6
HETATM    6  C           1     -23.280  -2.632 -12.099  0.00  0.00     0.053 C 
BRANCH   6   7
HETATM    7  C           1     -23.640  -3.321 -13.408  0.00  0.00     0.115 C 
BRANCH   7   8
HETATM    8  C           1     -23.388  -2.378 -14.559  0.00  0.00     0.172 C 
HETATM    9  O           1     -22.431  -2.583 -15.337  0.00  0.00    -0.648 OA
HETATM   10  O           1     -24.136  -1.392 -14.735  0.00  0.00    -0.648 OA
ENDBRANCH   7   8
ENDBRANCH   6   7
ENDBRANCH   5   6
BRANCH   5  11
HETATM   11  N           1     -21.287  -3.968 -12.677  0.00  0.00    -0.066 N 
HETATM   12  H           1     -20.707  -3.339 -13.276  0.00  0.00     0.275 HD
HETATM   13  H           1     -20.679  -4.700 -12.246  0.00  0.00     0.275 HD
HETATM   14  H           1     -22.021  -4.427 -13.263  0.00  0.00     0.275 HD
ENDBRANCH   5  11
ENDBRANCH   2   5
BRANCH   1  15
HETATM   15  C           1     -21.401  -5.019  -8.288  0.00  0.00     0.185 C 
BRANCH  15  16
HETATM   16  C           1     -22.042  -4.202  -7.193  0.00  0.00     0.196 C 
HETATM   17  O           1     -21.467  -3.180  -6.758  0.00  0.00    -0.646 OA
HETATM   18  O           1     -23.146  -4.546  -6.720  0.00  0.00    -0.646 OA
ENDBRANCH  15  16
BRANCH  15  19
HETATM   19  C           1     -20.066  -5.566  -7.800  0.00  0.00     0.039 C 
BRANCH  19  20
HETATM   20 Se           1     -20.326  -6.502  -6.110  0.00  0.00     0.000 Se
HETATM   21  H           1     -19.261  -7.488  -6.359  0.00  0.00     0.000 HD
ENDBRANCH  19  20
ENDBRANCH  15  19
ENDBRANCH   1  15
TORSDOF 9
ENDMDL
MODEL 3
REMARK VINA RESULT:      -5.7     13.106     14.612
REMARK  9 active torsions:
REMARK  status: ('A' for Active; 'I' for Inactive)
REMARK    1  A    between atoms: N_1  and  C_19 
REMARK       I    between atoms: N_1  and  C_2 
REMARK    2  A    between atoms: C_2  and  C_3 
REMARK    3  A    between atoms: C_3  and  C_4 
REMARK    4  A    between atoms: C_3  and  N_13 
REMARK    5  A    between atoms: C_4  and  C_5 
REMARK    6  A    between atoms: C_5  and  C_8 
REMARK    7  A    between atoms: C_18  and  C_19 
REMARK    8  A    between atoms: C_19  and  C_20 
REMARK    9  A    between atoms: C_20  and  Se_21 
ROOT
HETATM    1  N           1     -22.303  -4.785  -8.794  0.00  0.00    -0.345 N 
HETATM    2  C           1     -21.733  -4.683  -7.553  0.00  0.00     0.249 C 
HETATM    3  O           1     -21.676  -3.610  -7.000  0.00  0.00    -0.271 OA
HETATM    4  H           1     -22.351  -5.684  -9.256  0.00  0.00     0.163 HD
ENDROOT
BRANCH   2   5
HETATM    5  C           1     -21.178  -5.911  -6.874  0.00  0.00     0.275 C 
BRANCH   5   6
HETATM    6  C           1     -21.100  -5.671  -5.373  0.00  0.00     0.053 C 
BRANCH   6   7
HETATM    7  C           1     -22.078  -6.595  -4.658  0.00  0.00     0.115 C 
BRANCH   7   8
HETATM    8  C           1     -21.770  -6.608  -3.181  0.00  0.00     0.172 C 
HETATM    9  O           1     -20.864  -7.348  -2.737  0.00  0.00    -0.648 OA
HETATM   10  O           1     -22.419  -5.878  -2.401  0.00  0.00    -0.648 OA
ENDBRANCH   7   8
ENDBRANCH   6   7
ENDBRANCH   5   6
BRANCH   5  11
HETATM   11  N           1     -19.805  -6.197  -7.406  0.00  0.00    -0.066 N 
HETATM   12  H           1     -19.872  -6.473  -8.411  0.00  0.00     0.275 HD
HETATM   13  H           1     -19.212  -5.342  -7.316  0.00  0.00     0.275 HD
HETATM   14  H           1     -19.375  -6.977  -6.859  0.00  0.00     0.275 HD
ENDBRANCH   5  11
ENDBRANCH   2   5
BRANCH   1  15
HETATM   15  C           1     -22.836  -3.605  -9.446  0.00  0.00     0.185 C 
BRANCH  15  16
HETATM   16  C           1     -24.322  -3.773  -9.649  0.00  0.00     0.196 C 
HETATM   17  O           1     -25.084  -2.789  -9.529  0.00  0.00    -0.646 OA
HETATM   18  O           1     -24.792  -4.894  -9.938  0.00  0.00    -0.646 OA
ENDBRANCH  15  16
BRANCH  15  19
HETATM   19  C           1     -22.156  -3.420 -10.795  0.00  0.00     0.039 C 
BRANCH  19  20
HETATM   20 Se           1     -20.436  -4.337 -10.787  0.00  0.00     0.000 Se
HETATM   21  H           1     -20.619  -4.915  -9.445  0.00  0.00     0.000 HD
ENDBRANCH  19  20
ENDBRANCH  15  19
ENDBRANCH   1  15
TORSDOF 9
ENDMDL
MODEL 4
REMARK VINA RESULT:      -5.7      2.427      2.741
REMARK  9 active torsions:
REMARK  status: ('A' for Active; 'I' for Inactive)
REMARK    1  A    between atoms: N_1  and  C_19 
REMARK       I    between atoms: N_1  and  C_2 
REMARK    2  A    between atoms: C_2  and  C_3 
REMARK    3  A    between atoms: C_3  and  C_4 
REMARK    4  A    between atoms: C_3  and  N_13 
REMARK    5  A    between atoms: C_4  and  C_5 
REMARK    6  A    between atoms: C_5  and  C_8 
REMARK    7  A    between atoms: C_18  and  C_19 
REMARK    8  A    between atoms: C_19  and  C_20 
REMARK    9  A    between atoms: C_20  and  Se_21 
ROOT
HETATM    1  N           1     -34.953  -1.664 -13.085  0.00  0.00    -0.345 N 
HETATM    2  C           1     -34.303  -2.516 -12.233  0.00  0.00     0.249 C 
HETATM    3  O           1     -33.832  -2.097 -11.203  0.00  0.00    -0.271 OA
HETATM    4  H           1     -35.349  -2.015 -13.948  0.00  0.00     0.163 HD
ENDROOT
BRANCH   2   5
HETATM    5  C           1     -34.177  -3.979 -12.581  0.00  0.00     0.275 C 
BRANCH   5   6
HETATM    6  C           1     -33.308  -4.675 -11.542  0.00  0.00     0.053 C 
BRANCH   6   7
HETATM    7  C           1     -34.166  -5.086 -10.354  0.00  0.00     0.115 C 
BRANCH   7   8
HETATM    8  C           1     -34.648  -6.503 -10.547  0.00  0.00     0.172 C 
HETATM    9  O           1     -34.730  -7.275  -9.566  0.00  0.00    -0.648 OA
HETATM   10  O           1     -34.964  -6.906 -11.687  0.00  0.00    -0.648 OA
ENDBRANCH   7   8
ENDBRANCH   6   7
ENDBRANCH   5   6
BRANCH   5  11
HETATM   11  N           1     -33.544  -4.117 -13.934  0.00  0.00    -0.066 N 
HETATM   12  H           1     -33.662  -5.098 -14.274  0.00  0.00     0.275 HD
HETATM   13  H           1     -34.003  -3.457 -14.602  0.00  0.00     0.275 HD
HETATM   14  H           1     -32.526  -3.892 -13.867  0.00  0.00     0.275 HD
ENDBRANCH   5  11
ENDBRANCH   2   5
BRANCH   1  15
HETATM   15  C           1     -35.076  -0.258 -12.752  0.00  0.00     0.185 C 
BRANCH  15  16
HETATM   16  C           1     -36.305  -0.049 -11.901  0.00  0.00     0.196 C 
HETATM   17  O           1     -37.424  -0.417 -12.320  0.00  0.00    -0.646 OA
HETATM   18  O           1     -36.205   0.490 -10.778  0.00  0.00    -0.646 OA
ENDBRANCH  15  16
BRANCH  15  19
HETATM   19  C           1     -35.198   0.558 -14.031  0.00  0.00     0.039 C 
BRANCH  19  20
HETATM   20 Se           1     -35.664  -0.620 -15.512  0.00  0.00     0.000 Se
HETATM   21  H           1     -35.112  -1.828 -14.877  0.00  0.00     0.000 HD
ENDBRANCH  19  20
ENDBRANCH  15  19
ENDBRANCH   1  15
TORSDOF 9
ENDMDL
MODEL 5
REMARK VINA RESULT:      -5.6     12.887     14.420
REMARK  9 active torsions:
REMARK  status: ('A' for Active; 'I' for Inactive)
REMARK    1  A    between atoms: N_1  and  C_19 
REMARK       I    between atoms: N_1  and  C_2 
REMARK    2  A    between atoms: C_2  and  C_3 
REMARK    3  A    between atoms: C_3  and  C_4 
REMARK    4  A    between atoms: C_3  and  N_13 
REMARK    5  A    between atoms: C_4  and  C_5 
REMARK    6  A    between atoms: C_5  and  C_8 
REMARK    7  A    between atoms: C_18  and  C_19 
REMARK    8  A    between atoms: C_19  and  C_20 
REMARK    9  A    between atoms: C_20  and  Se_21 
ROOT
HETATM    1  N           1     -22.133  -4.948  -9.068  0.00  0.00    -0.345 N 
HETATM    2  C           1     -21.641  -4.703  -7.814  0.00  0.00     0.249 C 
HETATM    3  O           1     -21.635  -3.576  -7.377  0.00  0.00    -0.271 OA
HETATM    4  H           1     -22.139  -5.892  -9.433  0.00  0.00     0.163 HD
ENDROOT
BRANCH   2   5
HETATM    5  C           1     -21.108  -5.840  -6.977  0.00  0.00     0.275 C 
BRANCH   5   6
HETATM    6  C           1     -21.238  -5.489  -5.501  0.00  0.00     0.053 C 
BRANCH   6   7
HETATM    7  C           1     -22.136  -6.508  -4.812  0.00  0.00     0.115 C 
BRANCH   7   8
HETATM    8  C           1     -21.754  -6.612  -3.356  0.00  0.00     0.172 C 
HETATM    9  O           1     -22.360  -5.930  -2.500  0.00  0.00    -0.648 OA
HETATM   10  O           1     -20.833  -7.380  -3.004  0.00  0.00    -0.648 OA
ENDBRANCH   7   8
ENDBRANCH   6   7
ENDBRANCH   5   6
BRANCH   5  11
HETATM   11  N           1     -19.664  -6.070  -7.310  0.00  0.00    -0.066 N 
HETATM   12  H           1     -19.507  -5.884  -8.326  0.00  0.00     0.275 HD
HETATM   13  H           1     -19.068  -5.428  -6.740  0.00  0.00     0.275 HD
HETATM   14  H           1     -19.411  -7.061  -7.095  0.00  0.00     0.275 HD
ENDBRANCH   5  11
ENDBRANCH   2   5
BRANCH   1  15
HETATM   15  C           1     -22.645  -3.857  -9.873  0.00  0.00     0.185 C 
BRANCH  15  16
HETATM   16  C           1     -24.151  -3.828  -9.779  0.00  0.00     0.196 C 
HETATM   17  O           1     -24.809  -4.872  -9.980  0.00  0.00    -0.646 OA
HETATM   18  O           1     -24.741  -2.762  -9.500  0.00  0.00    -0.646 OA
ENDBRANCH  15  16
BRANCH  15  19
HETATM   19  C           1     -22.229  -4.057 -11.323  0.00  0.00     0.039 C 
BRANCH  19  20
HETATM   20 Se           1     -22.991  -2.638 -12.420  0.00  0.00     0.000 Se
HETATM   21  H           1     -21.698  -1.978 -12.669  0.00  0.00     0.000 HD
ENDBRANCH  19  20
ENDBRANCH  15  19
ENDBRANCH   1  15
TORSDOF 9
ENDMDL
MODEL 6
REMARK VINA RESULT:      -5.4     12.978     14.320
REMARK  9 active torsions:
REMARK  status: ('A' for Active; 'I' for Inactive)
REMARK    1  A    between atoms: N_1  and  C_19 
REMARK       I    between atoms: N_1  and  C_2 
REMARK    2  A    between atoms: C_2  and  C_3 
REMARK    3  A    between atoms: C_3  and  C_4 
REMARK    4  A    between atoms: C_3  and  N_13 
REMARK    5  A    between atoms: C_4  and  C_5 
REMARK    6  A    between atoms: C_5  and  C_8 
REMARK    7  A    between atoms: C_18  and  C_19 
REMARK    8  A    between atoms: C_19  and  C_20 
REMARK    9  A    between atoms: C_20  and  Se_21 
ROOT
HETATM    1  N           1     -21.847  -3.969  -9.660  0.00  0.00    -0.345 N 
HETATM    2  C           1     -20.644  -4.349  -9.128  0.00  0.00     0.249 C 
HETATM    3  O           1     -19.894  -5.046  -9.768  0.00  0.00    -0.271 OA
HETATM    4  H           1     -22.476  -3.384  -9.124  0.00  0.00     0.163 HD
ENDROOT
BRANCH   2   5
HETATM    5  C           1     -20.256  -3.895  -7.742  0.00  0.00     0.275 C 
BRANCH   5   6
HETATM    6  C           1     -19.788  -5.094  -6.927  0.00  0.00     0.053 C 
BRANCH   6   7
HETATM    7  C           1     -20.525  -5.123  -5.595  0.00  0.00     0.115 C 
BRANCH   7   8
HETATM    8  C           1     -21.473  -6.297  -5.569  0.00  0.00     0.172 C 
HETATM    9  O           1     -22.523  -6.238  -4.893  0.00  0.00    -0.648 OA
HETATM   10  O           1     -21.208  -7.328  -6.224  0.00  0.00    -0.648 OA
ENDBRANCH   7   8
ENDBRANCH   6   7
ENDBRANCH   5   6
BRANCH   5  11
HETATM   11  N           1     -21.442  -3.269  -7.071  0.00  0.00    -0.066 N 
HETATM   12  H           1     -21.328  -2.230  -7.063  0.00  0.00     0.275 HD
HETATM   13  H           1     -22.312  -3.521  -7.593  0.00  0.00     0.275 HD
HETATM   14  H           1     -21.512  -3.619  -6.089  0.00  0.00     0.275 HD
ENDBRANCH   5  11
ENDBRANCH   2   5
BRANCH   1  15
HETATM   15  C           1     -22.221  -4.404 -10.992  0.00  0.00     0.185 C 
BRANCH  15  16
HETATM   16  C           1     -22.006  -3.274 -11.968  0.00  0.00     0.196 C 
HETATM   17  O           1     -22.535  -3.317 -13.100  0.00  0.00    -0.646 OA
HETATM   18  O           1     -21.300  -2.294 -11.646  0.00  0.00    -0.646 OA
ENDBRANCH  15  16
BRANCH  15  19
HETATM   19  C           1     -23.688  -4.811 -10.999  0.00  0.00     0.039 C 
BRANCH  19  20
HETATM   20 Se           1     -24.707  -3.590  -9.871  0.00  0.00     0.000 Se
HETATM   21  H           1     -25.679  -4.611  -9.444  0.00  0.00     0.000 HD
ENDBRANCH  19  20
ENDBRANCH  15  19
ENDBRANCH   1  15
TORSDOF 9
ENDMDL
MODEL 7
REMARK VINA RESULT:      -5.3      1.946      2.237
REMARK  9 active torsions:
REMARK  status: ('A' for Active; 'I' for Inactive)
REMARK    1  A    between atoms: N_1  and  C_19 
REMARK       I    between atoms: N_1  and  C_2 
REMARK    2  A    between atoms: C_2  and  C_3 
REMARK    3  A    between atoms: C_3  and  C_4 
REMARK    4  A    between atoms: C_3  and  N_13 
REMARK    5  A    between atoms: C_4  and  C_5 
REMARK    6  A    between atoms: C_5  and  C_8 
REMARK    7  A    between atoms: C_18  and  C_19 
REMARK    8  A    between atoms: C_19  and  C_20 
REMARK    9  A    between atoms: C_20  and  Se_21 
ROOT
HETATM    1  N           1     -35.024  -1.276 -14.063  0.00  0.00    -0.345 N 
HETATM    2  C           1     -35.428  -1.647 -12.808  0.00  0.00     0.249 C 
HETATM    3  O           1     -36.547  -1.387 -12.432  0.00  0.00    -0.271 OA
HETATM    4  H           1     -34.088  -1.495 -14.378  0.00  0.00     0.163 HD
ENDROOT
BRANCH   2   5
HETATM    5  C           1     -34.476  -2.380 -11.895  0.00  0.00     0.275 C 
BRANCH   5   6
HETATM    6  C           1     -35.224  -3.490 -11.167  0.00  0.00     0.053 C 
BRANCH   6   7
HETATM    7  C           1     -34.991  -4.814 -11.881  0.00  0.00     0.115 C 
BRANCH   7   8
HETATM    8  C           1     -34.071  -5.677 -11.052  0.00  0.00     0.172 C 
HETATM    9  O           1     -32.844  -5.690 -11.290  0.00  0.00    -0.648 OA
HETATM   10  O           1     -34.536  -6.378 -10.128  0.00  0.00    -0.648 OA
ENDBRANCH   7   8
ENDBRANCH   6   7
ENDBRANCH   5   6
BRANCH   5  11
HETATM   11  N           1     -33.907  -1.421 -10.893  0.00  0.00    -0.066 N 
HETATM   12  H           1     -34.649  -1.154 -10.207  0.00  0.00     0.275 HD
HETATM   13  H           1     -33.111  -1.875 -10.390  0.00  0.00     0.275 HD
HETATM   14  H           1     -33.564  -0.566 -11.385  0.00  0.00     0.275 HD
ENDBRANCH   5  11
ENDBRANCH   2   5
BRANCH   1  15
HETATM   15  C           1     -35.938  -0.571 -14.941  0.00  0.00     0.185 C 
BRANCH  15  16
HETATM   16  C           1     -35.869  -1.172 -16.323  0.00  0.00     0.196 C 
HETATM   17  O           1     -36.614  -0.739 -17.230  0.00  0.00    -0.646 OA
HETATM   18  O           1     -35.069  -2.101 -16.563  0.00  0.00    -0.646 OA
ENDBRANCH  15  16
BRANCH  15  19
HETATM   19  C           1     -35.547   0.899 -15.005  0.00  0.00     0.039 C 
BRANCH  19  20
HETATM   20 Se           1     -34.416   1.338 -13.479  0.00  0.00     0.000 Se
HETATM   21  H           1     -35.465   1.079 -12.479  0.00  0.00     0.000 HD
ENDBRANCH  19  20
ENDBRANCH  15  19
ENDBRANCH   1  15
TORSDOF 9
ENDMDL
MODEL 8
REMARK VINA RESULT:      -5.2     12.259     14.480
REMARK  9 active torsions:
REMARK  status: ('A' for Active; 'I' for Inactive)
REMARK    1  A    between atoms: N_1  and  C_19 
REMARK       I    between atoms: N_1  and  C_2 
REMARK    2  A    between atoms: C_2  and  C_3 
REMARK    3  A    between atoms: C_3  and  C_4 
REMARK    4  A    between atoms: C_3  and  N_13 
REMARK    5  A    between atoms: C_4  and  C_5 
REMARK    6  A    between atoms: C_5  and  C_8 
REMARK    7  A    between atoms: C_18  and  C_19 
REMARK    8  A    between atoms: C_19  and  C_20 
REMARK    9  A    between atoms: C_20  and  Se_21 
ROOT
HETATM    1  N           1     -22.587  -4.730  -8.302  0.00  0.00    -0.345 N 
HETATM    2  C           1     -22.603  -4.404  -9.631  0.00  0.00     0.249 C 
HETATM    3  O           1     -21.589  -4.483 -10.285  0.00  0.00    -0.271 OA
HETATM    4  H           1     -23.436  -4.665  -7.755  0.00  0.00     0.163 HD
ENDROOT
BRANCH   2   5
HETATM    5  C           1     -23.886  -3.948 -10.281  0.00  0.00     0.275 C 
BRANCH   5   6
HETATM    6  C           1     -23.565  -3.006 -11.434  0.00  0.00     0.053 C 
BRANCH   6   7
HETATM    7  C           1     -23.591  -3.779 -12.746  0.00  0.00     0.115 C 
BRANCH   7   8
HETATM    8  C           1     -23.592  -2.809 -13.901  0.00  0.00     0.172 C 
HETATM    9  O           1     -24.404  -1.857 -13.918  0.00  0.00    -0.648 OA
HETATM   10  O           1     -22.783  -2.956 -14.842  0.00  0.00    -0.648 OA
ENDBRANCH   7   8
ENDBRANCH   6   7
ENDBRANCH   5   6
BRANCH   5  11
HETATM   11  N           1     -24.729  -3.230  -9.270  0.00  0.00    -0.066 N 
HETATM   12  H           1     -24.921  -2.259  -9.604  0.00  0.00     0.275 HD
HETATM   13  H           1     -25.632  -3.741  -9.142  0.00  0.00     0.275 HD
HETATM   14  H           1     -24.221  -3.190  -8.358  0.00  0.00     0.275 HD
ENDBRANCH   5  11
ENDBRANCH   2   5
BRANCH   1  15
HETATM   15  C           1     -21.354  -5.169  -7.677  0.00  0.00     0.185 C 
BRANCH  15  16
HETATM   16  C           1     -21.676  -6.086  -6.522  0.00  0.00     0.196 C 
HETATM   17  O           1     -22.477  -5.716  -5.636  0.00  0.00    -0.646 OA
HETATM   18  O           1     -21.144  -7.214  -6.451  0.00  0.00    -0.646 OA
ENDBRANCH  15  16
BRANCH  15  19
HETATM   19  C           1     -20.586  -3.958  -7.166  0.00  0.00     0.039 C 
BRANCH  19  20
HETATM   20 Se           1     -18.675  -4.250  -7.412  0.00  0.00     0.000 Se
HETATM   21  H           1     -18.801  -4.668  -8.818  0.00  0.00     0.000 HD
ENDBRANCH  19  20
ENDBRANCH  15  19
ENDBRANCH   1  15
TORSDOF 9
ENDMDL
MODEL 9
REMARK VINA RESULT:      -5.1     12.893     15.184
REMARK  9 active torsions:
REMARK  status: ('A' for Active; 'I' for Inactive)
REMARK    1  A    between atoms: N_1  and  C_19 
REMARK       I    between atoms: N_1  and  C_2 
REMARK    2  A    between atoms: C_2  and  C_3 
REMARK    3  A    between atoms: C_3  and  C_4 
REMARK    4  A    between atoms: C_3  and  N_13 
REMARK    5  A    between atoms: C_4  and  C_5 
REMARK    6  A    between atoms: C_5  and  C_8 
REMARK    7  A    between atoms: C_18  and  C_19 
REMARK    8  A    between atoms: C_19  and  C_20 
REMARK    9  A    between atoms: C_20  and  Se_21 
ROOT
HETATM    1  N           1     -22.390  -5.680  -6.939  0.00  0.00    -0.345 N 
HETATM    2  C           1     -22.053  -4.665  -7.794  0.00  0.00     0.249 C 
HETATM    3  O           1     -21.064  -4.003  -7.585  0.00  0.00    -0.271 OA
HETATM    4  H           1     -23.218  -6.235  -7.115  0.00  0.00     0.163 HD
ENDROOT
BRANCH   2   5
HETATM    5  C           1     -22.916  -4.373  -8.997  0.00  0.00     0.275 C 
BRANCH   5   6
HETATM    6  C           1     -22.136  -3.520  -9.988  0.00  0.00     0.053 C 
BRANCH   6   7
HETATM    7  C           1     -22.408  -4.008 -11.404  0.00  0.00     0.115 C 
BRANCH   7   8
HETATM    8  C           1     -23.422  -3.104 -12.061  0.00  0.00     0.172 C 
HETATM    9  O           1     -23.122  -2.480 -13.103  0.00  0.00    -0.648 OA
HETATM   10  O           1     -24.563  -2.980 -11.566  0.00  0.00    -0.648 OA
ENDBRANCH   7   8
ENDBRANCH   6   7
ENDBRANCH   5   6
BRANCH   5  11
HETATM   11  N           1     -24.146  -3.634  -8.561  0.00  0.00    -0.066 N 
HETATM   12  H           1     -24.754  -3.451  -9.391  0.00  0.00     0.275 HD
HETATM   13  H           1     -24.669  -4.208  -7.862  0.00  0.00     0.275 HD
HETATM   14  H           1     -23.870  -2.725  -8.126  0.00  0.00     0.275 HD
ENDBRANCH   5  11
ENDBRANCH   2   5
BRANCH   1  15
HETATM   15  C           1     -21.561  -5.961  -5.783  0.00  0.00     0.185 C 
BRANCH  15  16
HETATM   16  C           1     -20.592  -7.068  -6.118  0.00  0.00     0.196 C 
HETATM   17  O           1     -19.503  -6.799  -6.671  0.00  0.00    -0.646 OA
HETATM   18  O           1     -20.876  -8.254  -5.843  0.00  0.00    -0.646 OA
ENDBRANCH  15  16
BRANCH  15  19
HETATM   19  C           1     -22.443  -6.392  -4.620  0.00  0.00     0.039 C 
BRANCH  19  20
HETATM   20 Se           1     -21.442  -6.240  -2.954  0.00  0.00     0.000 Se
HETATM   21  H           1     -22.523  -6.789  -2.119  0.00  0.00     0.000 HD
ENDBRANCH  19  20
ENDBRANCH  15  19
ENDBRANCH   1  15
TORSDOF 9
ENDMDL
