MODEL 1
REMARK VINA RESULT:      -5.9      0.000      0.000
REMARK  11 active torsions:
REMARK  status: ('A' for Active; 'I' for Inactive)
REMARK    1  A    between atoms: Se_2  and  C_3 
REMARK    2  A    between atoms: C_3  and  C_4 
REMARK    3  A    between atoms: C_4  and  C_5 
REMARK    4  A    between atoms: C_5  and  C_6 
REMARK    5  A    between atoms: C_5  and  N_9 
REMARK       I    between atoms: N_9  and  C_10 
REMARK    6  A    between atoms: C_10  and  C_11 
REMARK    7  A    between atoms: C_11  and  C_12 
REMARK    8  A    between atoms: C_11  and  N_18 
REMARK    9  A    between atoms: C_12  and  O_13 
REMARK   10  A    between atoms: O_13  and  P_14 
REMARK   11  A    between atoms: P_14  and  O_15 
ROOT
HETATM    1  N           1     -21.835  -4.806  -8.602  0.00  0.00    -0.345 N 
HETATM    2  C           1     -23.145  -4.412  -8.644  0.00  0.00     0.251 C 
HETATM    3  O           1     -23.727  -4.140  -7.621  0.00  0.00    -0.271 OA
HETATM    4  H           1     -21.347  -5.033  -9.458  0.00  0.00     0.163 HD
ENDROOT
BRANCH   2   5
HETATM    5  C           1     -23.861  -4.315  -9.969  0.00  0.00     0.298 C 
BRANCH   5   6
HETATM    6  C           1     -23.128  -3.334 -10.874  0.00  0.00     0.224 C 
BRANCH   6   7
HETATM    7  O           1     -24.035  -2.767 -11.782  0.00  0.00    -0.287 OA
BRANCH   7   8
HETATM    8  P           1     -23.716  -3.009 -13.346  0.00  0.00     0.406 P 
HETATM    9  O           1     -24.093  -1.804 -14.118  0.00  0.00    -0.624 OA
HETATM   10  O           1     -24.492  -4.170 -13.833  0.00  0.00    -0.624 OA
BRANCH   8  11
HETATM   11  O           1     -22.138  -3.297 -13.536  0.00  0.00    -0.300 OA
HETATM   12  H           1     -21.964  -3.112 -14.443  0.00  0.00     0.223 HD
ENDBRANCH   8  11
ENDBRANCH   7   8
ENDBRANCH   6   7
ENDBRANCH   5   6
BRANCH   5  13
HETATM   13  N           1     -25.264  -3.833  -9.744  0.00  0.00    -0.064 N 
HETATM   14  H           1     -25.758  -3.756 -10.662  0.00  0.00     0.275 HD
HETATM   15  H           1     -25.771  -4.512  -9.131  0.00  0.00     0.275 HD
HETATM   16  H           1     -25.241  -2.897  -9.281  0.00  0.00     0.275 HD
ENDBRANCH   5  13
ENDBRANCH   2   5
BRANCH   1  17
HETATM   17  C           1     -21.147  -4.898  -7.329  0.00  0.00     0.185 C 
BRANCH  17  18
HETATM   18  C           1     -21.113  -6.351  -6.874  0.00  0.00     0.036 C 
BRANCH  18  19
HETATM   19  C           1     -21.709  -6.460  -5.477  0.00  0.00     0.003 C 
BRANCH  19  20
HETATM   20 Se           1     -21.205  -8.170  -4.687  0.00  0.00     0.000 Se
HETATM   21  C           1     -21.228  -7.515  -2.851  0.00  0.00     0.000 C 
ENDBRANCH  19  20
ENDBRANCH  18  19
ENDBRANCH  17  18
BRANCH  17  22
HETATM   22  C           1     -19.736  -4.385  -7.481  0.00  0.00     0.196 C 
HETATM   23  O           1     -19.436  -3.659  -8.454  0.00  0.00    -0.646 OA
HETATM   24  O           1     -18.866  -4.687  -6.635  0.00  0.00    -0.646 OA
ENDBRANCH  17  22
ENDBRANCH   1  17
TORSDOF 11
ENDMDL
MODEL 2
REMARK VINA RESULT:      -5.7      2.433      3.787
REMARK  11 active torsions:
REMARK  status: ('A' for Active; 'I' for Inactive)
REMARK    1  A    between atoms: Se_2  and  C_3 
REMARK    2  A    between atoms: C_3  and  C_4 
REMARK    3  A    between atoms: C_4  and  C_5 
REMARK    4  A    between atoms: C_5  and  C_6 
REMARK    5  A    between atoms: C_5  and  N_9 
REMARK       I    between atoms: N_9  and  C_10 
REMARK    6  A    between atoms: C_10  and  C_11 
REMARK    7  A    between atoms: C_11  and  C_12 
REMARK    8  A    between atoms: C_11  and  N_18 
REMARK    9  A    between atoms: C_12  and  O_13 
REMARK   10  A    between atoms: O_13  and  P_14 
REMARK   11  A    between atoms: P_14  and  O_15 
ROOT
HETATM    1  N           1     -20.991  -6.331  -6.572  0.00  0.00    -0.345 N 
HETATM    2  C           1     -20.731  -4.994  -6.708  0.00  0.00     0.251 C 
HETATM    3  O           1     -20.256  -4.374  -5.786  0.00  0.00    -0.271 OA
HETATM    4  H           1     -21.389  -6.850  -7.344  0.00  0.00     0.163 HD
ENDROOT
BRANCH   2   5
HETATM    5  C           1     -21.037  -4.294  -8.009  0.00  0.00     0.298 C 
BRANCH   5   6
HETATM    6  C           1     -22.511  -4.473  -8.349  0.00  0.00     0.224 C 
BRANCH   6   7
HETATM    7  O           1     -22.955  -3.374  -9.099  0.00  0.00    -0.287 OA
BRANCH   7   8
HETATM    8  P           1     -24.053  -3.692 -10.240  0.00  0.00     0.406 P 
HETATM    9  O           1     -24.013  -5.134 -10.573  0.00  0.00    -0.624 OA
HETATM   10  O           1     -23.751  -2.897 -11.450  0.00  0.00    -0.624 OA
BRANCH   8  11
HETATM   11  O           1     -25.524  -3.307  -9.695  0.00  0.00    -0.300 OA
HETATM   12  H           1     -25.669  -2.424  -9.989  0.00  0.00     0.223 HD
ENDBRANCH   8  11
ENDBRANCH   7   8
ENDBRANCH   6   7
ENDBRANCH   5   6
BRANCH   5  13
HETATM   13  N           1     -20.198  -4.885  -9.103  0.00  0.00    -0.064 N 
HETATM   14  H           1     -20.590  -5.813  -9.381  0.00  0.00     0.275 HD
HETATM   15  H           1     -20.203  -4.244  -9.930  0.00  0.00     0.275 HD
HETATM   16  H           1     -19.218  -5.008  -8.764  0.00  0.00     0.275 HD
ENDBRANCH   5  13
ENDBRANCH   2   5
BRANCH   1  17
HETATM   17  C           1     -20.696  -7.003  -5.322  0.00  0.00     0.185 C 
BRANCH  17  18
HETATM   18  C           1     -21.943  -7.021  -4.449  0.00  0.00     0.036 C 
BRANCH  18  19
HETATM   19  C           1     -21.637  -6.365  -3.110  0.00  0.00     0.003 C 
BRANCH  19  20
HETATM   20 Se           1     -21.088  -7.728  -1.828  0.00  0.00     0.000 Se
HETATM   21  C           1     -22.429  -7.251  -0.497  0.00  0.00     0.000 C 
ENDBRANCH  19  20
ENDBRANCH  18  19
ENDBRANCH  17  18
BRANCH  17  22
HETATM   22  C           1     -20.256  -8.418  -5.603  0.00  0.00     0.196 C 
HETATM   23  O           1     -21.105  -9.334  -5.675  0.00  0.00    -0.646 OA
HETATM   24  O           1     -19.043  -8.677  -5.762  0.00  0.00    -0.646 OA
ENDBRANCH  17  22
ENDBRANCH   1  17
TORSDOF 11
ENDMDL
MODEL 3
REMARK VINA RESULT:      -5.5      5.822      9.052
REMARK  11 active torsions:
REMARK  status: ('A' for Active; 'I' for Inactive)
REMARK    1  A    between atoms: Se_2  and  C_3 
REMARK    2  A    between atoms: C_3  and  C_4 
REMARK    3  A    between atoms: C_4  and  C_5 
REMARK    4  A    between atoms: C_5  and  C_6 
REMARK    5  A    between atoms: C_5  and  N_9 
REMARK       I    between atoms: N_9  and  C_10 
REMARK    6  A    between atoms: C_10  and  C_11 
REMARK    7  A    between atoms: C_11  and  C_12 
REMARK    8  A    between atoms: C_11  and  N_18 
REMARK    9  A    between atoms: C_12  and  O_13 
REMARK   10  A    between atoms: O_13  and  P_14 
REMARK   11  A    between atoms: P_14  and  O_15 
ROOT
HETATM    1  N           1     -21.049  -5.520  -5.016  0.00  0.00    -0.345 N 
HETATM    2  C           1     -21.552  -6.549  -4.268  0.00  0.00     0.251 C 
HETATM    3  O           1     -22.171  -7.439  -4.801  0.00  0.00    -0.271 OA
HETATM    4  H           1     -20.530  -4.775  -4.569  0.00  0.00     0.163 HD
ENDROOT
BRANCH   2   5
HETATM    5  C           1     -21.334  -6.573  -2.774  0.00  0.00     0.298 C 
BRANCH   5   6
HETATM    6  C           1     -21.369  -8.013  -2.277  0.00  0.00     0.224 C 
BRANCH   6   7
HETATM    7  O           1     -20.786  -8.082  -1.003  0.00  0.00    -0.287 OA
BRANCH   7   8
HETATM    8  P           1     -21.742  -8.613   0.185  0.00  0.00     0.406 P 
HETATM    9  O           1     -22.993  -7.822   0.202  0.00  0.00    -0.624 OA
HETATM   10  O           1     -21.047  -8.464   1.482  0.00  0.00    -0.624 OA
BRANCH   8  11
HETATM   11  O           1     -22.095 -10.170  -0.062  0.00  0.00    -0.300 OA
HETATM   12  H           1     -23.035 -10.205  -0.093  0.00  0.00     0.223 HD
ENDBRANCH   8  11
ENDBRANCH   7   8
ENDBRANCH   6   7
ENDBRANCH   5   6
BRANCH   5  13
HETATM   13  N           1     -22.418  -5.786  -2.099  0.00  0.00    -0.064 N 
HETATM   14  H           1     -23.261  -5.753  -2.715  0.00  0.00     0.275 HD
HETATM   15  H           1     -22.666  -6.244  -1.192  0.00  0.00     0.275 HD
HETATM   16  H           1     -22.081  -4.814  -1.917  0.00  0.00     0.275 HD
ENDBRANCH   5  13
ENDBRANCH   2   5
BRANCH   1  17
HETATM   17  C           1     -21.258  -5.498  -6.451  0.00  0.00     0.185 C 
BRANCH  17  18
HETATM   18  C           1     -21.798  -4.136  -6.864  0.00  0.00     0.036 C 
BRANCH  18  19
HETATM   19  C           1     -23.104  -4.317  -7.626  0.00  0.00     0.003 C 
BRANCH  19  20
HETATM   20 Se           1     -22.756  -4.225  -9.542  0.00  0.00     0.000 Se
HETATM   21  C           1     -24.473  -3.415  -9.982  0.00  0.00     0.000 C 
ENDBRANCH  19  20
ENDBRANCH  18  19
ENDBRANCH  17  18
BRANCH  17  22
HETATM   22  C           1     -19.948  -5.756  -7.154  0.00  0.00     0.196 C 
HETATM   23  O           1     -19.390  -6.869  -7.048  0.00  0.00    -0.646 OA
HETATM   24  O           1     -19.421  -4.855  -7.842  0.00  0.00    -0.646 OA
ENDBRANCH  17  22
ENDBRANCH   1  17
TORSDOF 11
ENDMDL
MODEL 4
REMARK VINA RESULT:      -5.5      4.310      7.752
REMARK  11 active torsions:
REMARK  status: ('A' for Active; 'I' for Inactive)
REMARK    1  A    between atoms: Se_2  and  C_3 
REMARK    2  A    between atoms: C_3  and  C_4 
REMARK    3  A    between atoms: C_4  and  C_5 
REMARK    4  A    between atoms: C_5  and  C_6 
REMARK    5  A    between atoms: C_5  and  N_9 
REMARK       I    between atoms: N_9  and  C_10 
REMARK    6  A    between atoms: C_10  and  C_11 
REMARK    7  A    between atoms: C_11  and  C_12 
REMARK    8  A    between atoms: C_11  and  N_18 
REMARK    9  A    between atoms: C_12  and  O_13 
REMARK   10  A    between atoms: O_13  and  P_14 
REMARK   11  A    between atoms: P_14  and  O_15 
ROOT
HETATM    1  N           1     -21.960  -4.705  -8.907  0.00  0.00    -0.345 N 
HETATM    2  C           1     -21.425  -4.341  -7.701  0.00  0.00     0.251 C 
HETATM    3  O           1     -21.478  -3.190  -7.339  0.00  0.00    -0.271 OA
HETATM    4  H           1     -21.916  -5.669  -9.210  0.00  0.00     0.163 HD
ENDROOT
BRANCH   2   5
HETATM    5  C           1     -20.767  -5.378  -6.824  0.00  0.00     0.298 C 
BRANCH   5   6
HETATM    6  C           1     -21.786  -5.927  -5.833  0.00  0.00     0.224 C 
BRANCH   6   7
HETATM    7  O           1     -21.117  -6.462  -4.722  0.00  0.00    -0.287 OA
BRANCH   7   8
HETATM    8  P           1     -20.869  -8.057  -4.746  0.00  0.00     0.406 P 
HETATM    9  O           1     -19.428  -8.335  -4.558  0.00  0.00    -0.624 OA
HETATM   10  O           1     -21.313  -8.606  -6.046  0.00  0.00    -0.624 OA
BRANCH   8  11
HETATM   11  O           1     -21.710  -8.751  -3.553  0.00  0.00    -0.300 OA
HETATM   12  H           1     -21.948  -8.043  -2.979  0.00  0.00     0.223 HD
ENDBRANCH   8  11
ENDBRANCH   7   8
ENDBRANCH   6   7
ENDBRANCH   5   6
BRANCH   5  13
HETATM   13  N           1     -19.631  -4.748  -6.072  0.00  0.00    -0.064 N 
HETATM   14  H           1     -19.947  -3.843  -5.656  0.00  0.00     0.275 HD
HETATM   15  H           1     -19.320  -5.393  -5.310  0.00  0.00     0.275 HD
HETATM   16  H           1     -18.836  -4.572  -6.726  0.00  0.00     0.275 HD
ENDBRANCH   5  13
ENDBRANCH   2   5
BRANCH   1  17
HETATM   17  C           1     -22.593  -3.708  -9.749  0.00  0.00     0.185 C 
BRANCH  17  18
HETATM   18  C           1     -22.081  -3.852 -11.176  0.00  0.00     0.036 C 
BRANCH  18  19
HETATM   19  C           1     -22.565  -2.674 -12.011  0.00  0.00     0.003 C 
BRANCH  19  20
HETATM   20 Se           1     -23.773  -3.315 -13.401  0.00  0.00     0.000 Se
HETATM   21  C           1     -23.218  -1.994 -14.722  0.00  0.00     0.000 C 
ENDBRANCH  19  20
ENDBRANCH  18  19
ENDBRANCH  17  18
BRANCH  17  22
HETATM   22  C           1     -24.088  -3.906  -9.727  0.00  0.00     0.196 C 
HETATM   23  O           1     -24.573  -5.033  -9.967  0.00  0.00    -0.646 OA
HETATM   24  O           1     -24.843  -2.943  -9.470  0.00  0.00    -0.646 OA
ENDBRANCH  17  22
ENDBRANCH   1  17
TORSDOF 11
ENDMDL
MODEL 5
REMARK VINA RESULT:      -5.4      1.923      2.423
REMARK  11 active torsions:
REMARK  status: ('A' for Active; 'I' for Inactive)
REMARK    1  A    between atoms: Se_2  and  C_3 
REMARK    2  A    between atoms: C_3  and  C_4 
REMARK    3  A    between atoms: C_4  and  C_5 
REMARK    4  A    between atoms: C_5  and  C_6 
REMARK    5  A    between atoms: C_5  and  N_9 
REMARK       I    between atoms: N_9  and  C_10 
REMARK    6  A    between atoms: C_10  and  C_11 
REMARK    7  A    between atoms: C_11  and  C_12 
REMARK    8  A    between atoms: C_11  and  N_18 
REMARK    9  A    between atoms: C_12  and  O_13 
REMARK   10  A    between atoms: O_13  and  P_14 
REMARK   11  A    between atoms: P_14  and  O_15 
ROOT
HETATM    1  N           1     -21.572  -5.391  -7.205  0.00  0.00    -0.345 N 
HETATM    2  C           1     -22.674  -4.631  -7.491  0.00  0.00     0.251 C 
HETATM    3  O           1     -23.591  -4.577  -6.707  0.00  0.00    -0.271 OA
HETATM    4  H           1     -20.804  -5.435  -7.861  0.00  0.00     0.163 HD
ENDROOT
BRANCH   2   5
HETATM    5  C           1     -22.742  -3.858  -8.786  0.00  0.00     0.298 C 
BRANCH   5   6
HETATM    6  C           1     -24.053  -4.169  -9.496  0.00  0.00     0.224 C 
BRANCH   6   7
HETATM    7  O           1     -24.395  -3.099 -10.337  0.00  0.00    -0.287 OA
BRANCH   7   8
HETATM    8  P           1     -23.928  -3.233 -11.877  0.00  0.00     0.406 P 
HETATM    9  O           1     -22.729  -2.396 -12.103  0.00  0.00    -0.624 OA
HETATM   10  O           1     -25.021  -2.781 -12.765  0.00  0.00    -0.624 OA
BRANCH   8  11
HETATM   11  O           1     -23.575  -4.776 -12.201  0.00  0.00    -0.300 OA
HETATM   12  H           1     -24.269  -5.072 -12.764  0.00  0.00     0.223 HD
ENDBRANCH   8  11
ENDBRANCH   7   8
ENDBRANCH   6   7
ENDBRANCH   5   6
BRANCH   5  13
HETATM   13  N           1     -21.593  -4.255  -9.665  0.00  0.00    -0.064 N 
HETATM   14  H           1     -21.949  -4.814 -10.474  0.00  0.00     0.275 HD
HETATM   15  H           1     -21.113  -3.396 -10.019  0.00  0.00     0.275 HD
HETATM   16  H           1     -20.916  -4.831  -9.116  0.00  0.00     0.275 HD
ENDBRANCH   5  13
ENDBRANCH   2   5
BRANCH   1  17
HETATM   17  C           1     -21.507  -6.132  -5.961  0.00  0.00     0.185 C 
BRANCH  17  18
HETATM   18  C           1     -20.791  -7.455  -6.196  0.00  0.00     0.036 C 
BRANCH  18  19
HETATM   19  C           1     -21.248  -8.472  -5.158  0.00  0.00     0.003 C 
BRANCH  19  20
HETATM   20 Se           1     -19.740  -8.967  -4.025  0.00  0.00     0.000 Se
HETATM   21  C           1     -20.132 -10.876  -4.057  0.00  0.00     0.000 C 
ENDBRANCH  19  20
ENDBRANCH  18  19
ENDBRANCH  17  18
BRANCH  17  22
HETATM   22  C           1     -20.752  -5.326  -4.933  0.00  0.00     0.196 C 
HETATM   23  O           1     -20.973  -5.500  -3.715  0.00  0.00    -0.646 OA
HETATM   24  O           1     -19.906  -4.481  -5.300  0.00  0.00    -0.646 OA
ENDBRANCH  17  22
ENDBRANCH   1  17
TORSDOF 11
ENDMDL
MODEL 6
REMARK VINA RESULT:      -5.3      3.106      4.761
REMARK  11 active torsions:
REMARK  status: ('A' for Active; 'I' for Inactive)
REMARK    1  A    between atoms: Se_2  and  C_3 
REMARK    2  A    between atoms: C_3  and  C_4 
REMARK    3  A    between atoms: C_4  and  C_5 
REMARK    4  A    between atoms: C_5  and  C_6 
REMARK    5  A    between atoms: C_5  and  N_9 
REMARK       I    between atoms: N_9  and  C_10 
REMARK    6  A    between atoms: C_10  and  C_11 
REMARK    7  A    between atoms: C_11  and  C_12 
REMARK    8  A    between atoms: C_11  and  N_18 
REMARK    9  A    between atoms: C_12  and  O_13 
REMARK   10  A    between atoms: O_13  and  P_14 
REMARK   11  A    between atoms: P_14  and  O_15 
ROOT
HETATM    1  N           1     -20.842  -6.635  -4.887  0.00  0.00    -0.345 N 
HETATM    2  C           1     -21.408  -5.733  -5.747  0.00  0.00     0.251 C 
HETATM    3  O           1     -22.607  -5.588  -5.768  0.00  0.00    -0.271 OA
HETATM    4  H           1     -19.838  -6.756  -4.869  0.00  0.00     0.163 HD
ENDROOT
BRANCH   2   5
HETATM    5  C           1     -20.533  -4.920  -6.669  0.00  0.00     0.298 C 
BRANCH   5   6
HETATM    6  C           1     -21.341  -3.766  -7.251  0.00  0.00     0.224 C 
BRANCH   6   7
HETATM    7  O           1     -21.518  -3.966  -8.628  0.00  0.00    -0.287 OA
BRANCH   7   8
HETATM    8  P           1     -23.046  -4.040  -9.141  0.00  0.00     0.406 P 
HETATM    9  O           1     -23.225  -5.242  -9.986  0.00  0.00    -0.624 OA
HETATM   10  O           1     -23.360  -2.830  -9.932  0.00  0.00    -0.624 OA
BRANCH   8  11
HETATM   11  O           1     -24.039  -4.124  -7.869  0.00  0.00    -0.300 OA
HETATM   12  H           1     -24.903  -4.194  -8.239  0.00  0.00     0.223 HD
ENDBRANCH   8  11
ENDBRANCH   7   8
ENDBRANCH   6   7
ENDBRANCH   5   6
BRANCH   5  13
HETATM   13  N           1     -20.036  -5.792  -7.784  0.00  0.00    -0.064 N 
HETATM   14  H           1     -19.091  -6.165  -7.540  0.00  0.00     0.275 HD
HETATM   15  H           1     -20.700  -6.588  -7.925  0.00  0.00     0.275 HD
HETATM   16  H           1     -19.973  -5.232  -8.663  0.00  0.00     0.275 HD
ENDBRANCH   5  13
ENDBRANCH   2   5
BRANCH   1  17
HETATM   17  C           1     -21.683  -7.416  -4.000  0.00  0.00     0.185 C 
BRANCH  17  18
HETATM   18  C           1     -21.192  -8.857  -3.976  0.00  0.00     0.036 C 
BRANCH  18  19
HETATM   19  C           1     -19.851  -8.950  -4.691  0.00  0.00     0.003 C 
BRANCH  19  20
HETATM   20 Se           1     -18.976 -10.626  -4.215  0.00  0.00     0.000 Se
HETATM   21  C           1     -17.168  -9.911  -4.350  0.00  0.00     0.000 C 
ENDBRANCH  19  20
ENDBRANCH  18  19
ENDBRANCH  17  18
BRANCH  17  22
HETATM   22  C           1     -21.619  -6.838  -2.608  0.00  0.00     0.196 C 
HETATM   23  O           1     -22.300  -5.830  -2.318  0.00  0.00    -0.646 OA
HETATM   24  O           1     -20.885  -7.366  -1.744  0.00  0.00    -0.646 OA
ENDBRANCH  17  22
ENDBRANCH   1  17
TORSDOF 11
ENDMDL
MODEL 7
REMARK VINA RESULT:      -5.2      4.099      7.523
REMARK  11 active torsions:
REMARK  status: ('A' for Active; 'I' for Inactive)
REMARK    1  A    between atoms: Se_2  and  C_3 
REMARK    2  A    between atoms: C_3  and  C_4 
REMARK    3  A    between atoms: C_4  and  C_5 
REMARK    4  A    between atoms: C_5  and  C_6 
REMARK    5  A    between atoms: C_5  and  N_9 
REMARK       I    between atoms: N_9  and  C_10 
REMARK    6  A    between atoms: C_10  and  C_11 
REMARK    7  A    between atoms: C_11  and  C_12 
REMARK    8  A    between atoms: C_11  and  N_18 
REMARK    9  A    between atoms: C_12  and  O_13 
REMARK   10  A    between atoms: O_13  and  P_14 
REMARK   11  A    between atoms: P_14  and  O_15 
ROOT
HETATM    1  N           1     -23.666  -4.270  -8.711  0.00  0.00    -0.345 N 
HETATM    2  C           1     -22.543  -4.140  -7.941  0.00  0.00     0.251 C 
HETATM    3  O           1     -21.552  -3.624  -8.399  0.00  0.00    -0.271 OA
HETATM    4  H           1     -24.496  -4.703  -8.327  0.00  0.00     0.163 HD
ENDROOT
BRANCH   2   5
HETATM    5  C           1     -22.542  -4.642  -6.517  0.00  0.00     0.298 C 
BRANCH   5   6
HETATM    6  C           1     -21.477  -5.720  -6.358  0.00  0.00     0.224 C 
BRANCH   6   7
HETATM    7  O           1     -20.950  -5.667  -5.059  0.00  0.00    -0.287 OA
BRANCH   7   8
HETATM    8  P           1     -21.530  -6.754  -4.015  0.00  0.00     0.406 P 
HETATM    9  O           1     -22.441  -7.681  -4.724  0.00  0.00    -0.624 OA
HETATM   10  O           1     -22.271  -6.059  -2.940  0.00  0.00    -0.624 OA
BRANCH   8  11
HETATM   11  O           1     -20.306  -7.591  -3.372  0.00  0.00    -0.300 OA
HETATM   12  H           1     -19.530  -7.220  -3.755  0.00  0.00     0.223 HD
ENDBRANCH   8  11
ENDBRANCH   7   8
ENDBRANCH   6   7
ENDBRANCH   5   6
BRANCH   5  13
HETATM   13  N           1     -23.888  -5.220  -6.191  0.00  0.00    -0.064 N 
HETATM   14  H           1     -24.311  -4.690  -5.395  0.00  0.00     0.275 HD
HETATM   15  H           1     -24.510  -5.147  -7.029  0.00  0.00     0.275 HD
HETATM   16  H           1     -23.781  -6.224  -5.924  0.00  0.00     0.275 HD
ENDBRANCH   5  13
ENDBRANCH   2   5
BRANCH   1  17
HETATM   17  C           1     -23.667  -3.787 -10.078  0.00  0.00     0.185 C 
BRANCH  17  18
HETATM   18  C           1     -23.282  -4.923 -11.018  0.00  0.00     0.036 C 
BRANCH  18  19
HETATM   19  C           1     -21.944  -4.608 -11.674  0.00  0.00     0.003 C 
BRANCH  19  20
HETATM   20 Se           1     -21.840  -2.698 -12.053  0.00  0.00     0.000 Se
HETATM   21  C           1     -22.817  -2.811 -13.735  0.00  0.00     0.000 C 
ENDBRANCH  19  20
ENDBRANCH  18  19
ENDBRANCH  17  18
BRANCH  17  22
HETATM   22  C           1     -25.044  -3.284 -10.434  0.00  0.00     0.196 C 
HETATM   23  O           1     -25.876  -3.047  -9.531  0.00  0.00    -0.646 OA
HETATM   24  O           1     -25.354  -3.105 -11.632  0.00  0.00    -0.646 OA
ENDBRANCH  17  22
ENDBRANCH   1  17
TORSDOF 11
ENDMDL
MODEL 8
REMARK VINA RESULT:      -5.0      6.349      8.200
REMARK  11 active torsions:
REMARK  status: ('A' for Active; 'I' for Inactive)
REMARK    1  A    between atoms: Se_2  and  C_3 
REMARK    2  A    between atoms: C_3  and  C_4 
REMARK    3  A    between atoms: C_4  and  C_5 
REMARK    4  A    between atoms: C_5  and  C_6 
REMARK    5  A    between atoms: C_5  and  N_9 
REMARK       I    between atoms: N_9  and  C_10 
REMARK    6  A    between atoms: C_10  and  C_11 
REMARK    7  A    between atoms: C_11  and  C_12 
REMARK    8  A    between atoms: C_11  and  N_18 
REMARK    9  A    between atoms: C_12  and  O_13 
REMARK   10  A    between atoms: O_13  and  P_14 
REMARK   11  A    between atoms: P_14  and  O_15 
ROOT
HETATM    1  N           1     -20.938  -9.117  -2.117  0.00  0.00    -0.345 N 
HETATM    2  C           1     -21.270  -9.692  -3.314  0.00  0.00     0.251 C 
HETATM    3  O           1     -22.330 -10.256  -3.439  0.00  0.00    -0.271 OA
HETATM    4  H           1     -20.050  -8.643  -2.012  0.00  0.00     0.163 HD
ENDROOT
BRANCH   2   5
HETATM    5  C           1     -20.312  -9.619  -4.477  0.00  0.00     0.298 C 
BRANCH   5   6
HETATM    6  C           1     -19.765  -8.203  -4.600  0.00  0.00     0.224 C 
BRANCH   6   7
HETATM    7  O           1     -20.758  -7.284  -4.229  0.00  0.00    -0.287 OA
BRANCH   7   8
HETATM    8  P           1     -21.256  -6.274  -5.386  0.00  0.00     0.406 P 
HETATM    9  O           1     -22.702  -6.007  -5.220  0.00  0.00    -0.624 OA
HETATM   10  O           1     -21.016  -6.887  -6.712  0.00  0.00    -0.624 OA
BRANCH   8  11
HETATM   11  O           1     -20.437  -4.886  -5.279  0.00  0.00    -0.300 OA
HETATM   12  H           1     -20.441  -4.670  -4.362  0.00  0.00     0.223 HD
ENDBRANCH   8  11
ENDBRANCH   7   8
ENDBRANCH   6   7
ENDBRANCH   5   6
BRANCH   5  13
HETATM   13  N           1     -21.032  -9.986  -5.741  0.00  0.00    -0.064 N 
HETATM   14  H           1     -21.878 -10.554  -5.508  0.00  0.00     0.275 HD
HETATM   15  H           1     -21.324  -9.115  -6.240  0.00  0.00     0.275 HD
HETATM   16  H           1     -20.397 -10.543  -6.355  0.00  0.00     0.275 HD
ENDBRANCH   5  13
ENDBRANCH   2   5
BRANCH   1  17
HETATM   17  C           1     -21.859  -9.186  -1.000  0.00  0.00     0.185 C 
BRANCH  17  18
HETATM   18  C           1     -21.232  -9.998   0.125  0.00  0.00     0.036 C 
BRANCH  18  19
HETATM   19  C           1     -21.933 -11.346   0.231  0.00  0.00     0.003 C 
BRANCH  19  20
HETATM   20 Se           1     -23.802 -11.149  -0.289  0.00  0.00     0.000 Se
HETATM   21  C           1     -23.973 -12.964  -0.977  0.00  0.00     0.000 C 
ENDBRANCH  19  20
ENDBRANCH  18  19
ENDBRANCH  17  18
BRANCH  17  22
HETATM   22  C           1     -22.159  -7.792  -0.508  0.00  0.00     0.196 C 
HETATM   23  O           1     -22.249  -7.567   0.719  0.00  0.00    -0.646 OA
HETATM   24  O           1     -22.319  -6.860  -1.327  0.00  0.00    -0.646 OA
ENDBRANCH  17  22
ENDBRANCH   1  17
TORSDOF 11
ENDMDL
MODEL 9
REMARK VINA RESULT:      -5.0      4.425      6.856
REMARK  11 active torsions:
REMARK  status: ('A' for Active; 'I' for Inactive)
REMARK    1  A    between atoms: Se_2  and  C_3 
REMARK    2  A    between atoms: C_3  and  C_4 
REMARK    3  A    between atoms: C_4  and  C_5 
REMARK    4  A    between atoms: C_5  and  C_6 
REMARK    5  A    between atoms: C_5  and  N_9 
REMARK       I    between atoms: N_9  and  C_10 
REMARK    6  A    between atoms: C_10  and  C_11 
REMARK    7  A    between atoms: C_11  and  C_12 
REMARK    8  A    between atoms: C_11  and  N_18 
REMARK    9  A    between atoms: C_12  and  O_13 
REMARK   10  A    between atoms: O_13  and  P_14 
REMARK   11  A    between atoms: P_14  and  O_15 
ROOT
HETATM    1  N           1     -21.102  -7.710  -2.572  0.00  0.00    -0.345 N 
HETATM    2  C           1     -21.261  -7.912  -3.917  0.00  0.00     0.251 C 
HETATM    3  O           1     -21.889  -8.864  -4.314  0.00  0.00    -0.271 OA
HETATM    4  H           1     -20.577  -6.912  -2.239  0.00  0.00     0.163 HD
ENDROOT
BRANCH   2   5
HETATM    5  C           1     -20.652  -6.945  -4.902  0.00  0.00     0.298 C 
BRANCH   5   6
HETATM    6  C           1     -21.758  -6.148  -5.583  0.00  0.00     0.224 C 
BRANCH   6   7
HETATM    7  O           1     -21.325  -5.738  -6.853  0.00  0.00    -0.287 OA
BRANCH   7   8
HETATM    8  P           1     -22.118  -4.492  -7.503  0.00  0.00     0.406 P 
HETATM    9  O           1     -22.195  -4.668  -8.971  0.00  0.00    -0.624 OA
HETATM   10  O           1     -21.402  -3.235  -7.193  0.00  0.00    -0.624 OA
BRANCH   8  11
HETATM   11  O           1     -23.612  -4.425  -6.891  0.00  0.00    -0.300 OA
HETATM   12  H           1     -24.173  -4.281  -7.633  0.00  0.00     0.223 HD
ENDBRANCH   8  11
ENDBRANCH   7   8
ENDBRANCH   6   7
ENDBRANCH   5   6
BRANCH   5  13
HETATM   13  N           1     -19.878  -7.707  -5.936  0.00  0.00    -0.064 N 
HETATM   14  H           1     -20.003  -7.255  -6.870  0.00  0.00     0.275 HD
HETATM   15  H           1     -18.864  -7.706  -5.682  0.00  0.00     0.275 HD
HETATM   16  H           1     -20.225  -8.691  -5.977  0.00  0.00     0.275 HD
ENDBRANCH   5  13
ENDBRANCH   2   5
BRANCH   1  17
HETATM   17  C           1     -21.688  -8.638  -1.626  0.00  0.00     0.185 C 
BRANCH  17  18
HETATM   18  C           1     -20.609  -9.578  -1.104  0.00  0.00     0.036 C 
BRANCH  18  19
HETATM   19  C           1     -20.905 -10.998  -1.566  0.00  0.00     0.003 C 
BRANCH  19  20
HETATM   20 Se           1     -22.827 -11.214  -1.812  0.00  0.00     0.000 Se
HETATM   21  C           1     -23.169 -11.749   0.030  0.00  0.00     0.000 C 
ENDBRANCH  19  20
ENDBRANCH  18  19
ENDBRANCH  17  18
BRANCH  17  22
HETATM   22  C           1     -22.289  -7.871  -0.474  0.00  0.00     0.196 C 
HETATM   23  O           1     -22.298  -8.370   0.673  0.00  0.00    -0.646 OA
HETATM   24  O           1     -22.780  -6.738  -0.666  0.00  0.00    -0.646 OA
ENDBRANCH  17  22
ENDBRANCH   1  17
TORSDOF 11
ENDMDL
