MODEL 1
REMARK VINA RESULT:      -6.7      0.000      0.000
REMARK  8 active torsions:
REMARK  status: ('A' for Active; 'I' for Inactive)
REMARK    1  A    between atoms: N_2  and  C_13 
REMARK       I    between atoms: N_4  and  C_15 
REMARK    2  A    between atoms: N_11  and  C_24 
REMARK       I    between atoms: N_11  and  C_12 
REMARK    3  A    between atoms: C_12  and  C_13 
REMARK    4  A    between atoms: C_13  and  C_14 
REMARK    5  A    between atoms: C_14  and  C_15 
REMARK    6  A    between atoms: C_20  and  C_24 
REMARK    7  A    between atoms: C_24  and  C_25 
REMARK    8  A    between atoms: C_25  and  C_26 
ROOT
HETATM    1  H           1     -35.940  -1.624  -9.266  0.00  0.00     0.163 HD
HETATM    2  N           1     -35.562  -1.330 -10.158  0.00  0.00    -0.344 N 
HETATM    3  C           1     -34.496  -1.996 -10.702  0.00  0.00     0.249 C 
HETATM    4  O           1     -33.370  -1.639 -10.452  0.00  0.00    -0.271 OA
ENDROOT
BRANCH   2   5
HETATM    5  C           1     -36.150  -0.206 -10.858  0.00  0.00     0.191 C 
BRANCH   5   6
HETATM    6  C           1     -36.912   0.653  -9.880  0.00  0.00     0.197 C 
HETATM    7  O           1     -36.381   0.992  -8.799  0.00  0.00    -0.646 OA
HETATM    8  O           1     -38.075   1.026 -10.148  0.00  0.00    -0.646 OA
ENDBRANCH   5   6
BRANCH   5   9
HETATM    9  C           1     -37.100  -0.718 -11.933  0.00  0.00     0.094 C 
BRANCH   9  10
HETATM   10  C           1     -36.746  -0.101 -13.250  0.00  0.00     0.028 A 
HETATM   11  N           1     -35.513   0.408 -13.564  0.00  0.00    -0.354 N 
HETATM   12  C           1     -35.623   0.847 -14.797  0.00  0.00     0.180 A 
ATOM     13  HN          1     -34.686   0.441 -12.968  1.00  0.00     0.166 HD
HETATM   14  N           1     -36.881   0.641 -15.291  0.00  0.00    -0.360 N 
HETATM   15  H           1     -37.222   0.902 -16.248  0.00  0.00     0.166 HD
HETATM   16  C           1     -37.613   0.034 -14.308  0.00  0.00     0.114 A 
ENDBRANCH   9  10
ENDBRANCH   5   9
ENDBRANCH   2   5
BRANCH   3  17
HETATM   17  C           1     -34.729  -3.172 -11.618  0.00  0.00     0.283 C 
BRANCH  17  18
HETATM   18  N           1     -34.310  -2.812 -13.012  0.00  0.00    -0.066 N 
HETATM   19  H           1     -33.832  -3.629 -13.455  0.00  0.00     0.275 HD
HETATM   20  H           1     -35.152  -2.555 -13.574  0.00  0.00     0.275 HD
HETATM   21  H           1     -33.652  -2.000 -12.978  0.00  0.00     0.275 HD
ENDBRANCH  17  18
BRANCH  17  22
HETATM   22  C           1     -33.912  -4.362 -11.133  0.00  0.00     0.145 C 
BRANCH  22  23
HETATM   23  C           1     -34.519  -5.639 -11.662  0.00  0.00     0.217 C 
HETATM   24  O           1     -35.151  -5.626 -12.692  0.00  0.00    -0.274 OA
HETATM   25  N           1     -34.354  -6.812 -10.975  0.00  0.00    -0.370 N 
HETATM   26  H           1     -34.762  -7.668 -11.330  0.00  0.00     0.159 HD
HETATM   27  H           1     -33.825  -6.823 -10.113  0.00  0.00     0.159 HD
ENDBRANCH  22  23
ENDBRANCH  17  22
ENDBRANCH   3  17
TORSDOF 8
ENDMDL
MODEL 2
REMARK VINA RESULT:      -6.7      2.393      5.492
REMARK  8 active torsions:
REMARK  status: ('A' for Active; 'I' for Inactive)
REMARK    1  A    between atoms: N_2  and  C_13 
REMARK       I    between atoms: N_4  and  C_15 
REMARK    2  A    between atoms: N_11  and  C_24 
REMARK       I    between atoms: N_11  and  C_12 
REMARK    3  A    between atoms: C_12  and  C_13 
REMARK    4  A    between atoms: C_13  and  C_14 
REMARK    5  A    between atoms: C_14  and  C_15 
REMARK    6  A    between atoms: C_20  and  C_24 
REMARK    7  A    between atoms: C_24  and  C_25 
REMARK    8  A    between atoms: C_25  and  C_26 
ROOT
HETATM    1  H           1     -33.847  -1.694 -12.942  0.00  0.00     0.163 HD
HETATM    2  N           1     -34.715  -1.431 -12.494  0.00  0.00    -0.344 N 
HETATM    3  C           1     -35.389  -0.315 -12.913  0.00  0.00     0.249 C 
HETATM    4  O           1     -35.157   0.757 -12.407  0.00  0.00    -0.271 OA
ENDROOT
BRANCH   2   5
HETATM    5  C           1     -35.244  -2.235 -11.411  0.00  0.00     0.191 C 
BRANCH   5   6
HETATM    6  C           1     -36.206  -1.408 -10.595  0.00  0.00     0.197 C 
HETATM    7  O           1     -37.426  -1.410 -10.875  0.00  0.00    -0.646 OA
HETATM    8  O           1     -35.787  -0.721  -9.639  0.00  0.00    -0.646 OA
ENDBRANCH   5   6
BRANCH   5   9
HETATM    9  C           1     -34.099  -2.706 -10.523  0.00  0.00     0.094 C 
BRANCH   9  10
HETATM   10  C           1     -33.808  -4.147 -10.805  0.00  0.00     0.028 A 
HETATM   11  N           1     -34.510  -5.201 -10.280  0.00  0.00    -0.354 N 
HETATM   12  C           1     -33.940  -6.277 -10.772  0.00  0.00     0.180 A 
ATOM     13  HN          1     -35.305  -5.158  -9.642  1.00  0.00     0.166 HD
HETATM   14  N           1     -32.896  -5.958 -11.594  0.00  0.00    -0.360 N 
HETATM   15  H           1     -32.281  -6.637 -12.108  0.00  0.00     0.166 HD
HETATM   16  C           1     -32.799  -4.595 -11.625  0.00  0.00     0.114 A 
ENDBRANCH   9  10
ENDBRANCH   5   9
ENDBRANCH   2   5
BRANCH   3  17
HETATM   17  C           1     -36.426  -0.425 -14.004  0.00  0.00     0.283 C 
BRANCH  17  18
HETATM   18  N           1     -37.686   0.264 -13.569  0.00  0.00    -0.066 N 
HETATM   19  H           1     -37.572   0.611 -12.590  0.00  0.00     0.275 HD
HETATM   20  H           1     -37.879   1.070 -14.204  0.00  0.00     0.275 HD
HETATM   21  H           1     -38.483  -0.411 -13.609  0.00  0.00     0.275 HD
ENDBRANCH  17  18
BRANCH  17  22
HETATM   22  C           1     -35.900   0.231 -15.273  0.00  0.00     0.145 C 
BRANCH  22  23
HETATM   23  C           1     -35.912  -0.771 -16.401  0.00  0.00     0.217 C 
HETATM   24  O           1     -36.824  -0.776 -17.194  0.00  0.00    -0.274 OA
HETATM   25  N           1     -34.890  -1.674 -16.526  0.00  0.00    -0.370 N 
HETATM   26  H           1     -34.898  -2.346 -17.283  0.00  0.00     0.159 HD
HETATM   27  H           1     -34.127  -1.669 -15.862  0.00  0.00     0.159 HD
ENDBRANCH  22  23
ENDBRANCH  17  22
ENDBRANCH   3  17
TORSDOF 8
ENDMDL
MODEL 3
REMARK VINA RESULT:      -6.6      2.440      3.744
REMARK  8 active torsions:
REMARK  status: ('A' for Active; 'I' for Inactive)
REMARK    1  A    between atoms: N_2  and  C_13 
REMARK       I    between atoms: N_4  and  C_15 
REMARK    2  A    between atoms: N_11  and  C_24 
REMARK       I    between atoms: N_11  and  C_12 
REMARK    3  A    between atoms: C_12  and  C_13 
REMARK    4  A    between atoms: C_13  and  C_14 
REMARK    5  A    between atoms: C_14  and  C_15 
REMARK    6  A    between atoms: C_20  and  C_24 
REMARK    7  A    between atoms: C_24  and  C_25 
REMARK    8  A    between atoms: C_25  and  C_26 
ROOT
HETATM    1  H           1     -34.011  -0.618 -13.308  0.00  0.00     0.163 HD
HETATM    2  N           1     -34.722  -1.259 -12.980  0.00  0.00    -0.344 N 
HETATM    3  C           1     -34.436  -2.592 -12.858  0.00  0.00     0.249 C 
HETATM    4  O           1     -34.623  -3.339 -13.790  0.00  0.00    -0.271 OA
ENDROOT
BRANCH   2   5
HETATM    5  C           1     -36.042  -0.766 -12.641  0.00  0.00     0.191 C 
BRANCH   5   6
HETATM    6  C           1     -36.810  -0.474 -13.906  0.00  0.00     0.197 C 
HETATM    7  O           1     -38.032  -0.736 -13.970  0.00  0.00    -0.646 OA
HETATM    8  O           1     -36.227   0.030 -14.890  0.00  0.00    -0.646 OA
ENDBRANCH   5   6
BRANCH   5   9
HETATM    9  C           1     -35.911   0.510 -11.819  0.00  0.00     0.094 C 
BRANCH   9  10
HETATM   10  C           1     -36.470   0.282 -10.449  0.00  0.00     0.028 A 
HETATM   11  N           1     -36.545   1.238  -9.470  0.00  0.00    -0.354 N 
HETATM   12  C           1     -37.091   0.635  -8.439  0.00  0.00     0.180 A 
ATOM     13  HN          1     -36.242   2.210  -9.529  1.00  0.00     0.166 HD
HETATM   14  N           1     -37.369  -0.674  -8.714  0.00  0.00    -0.360 N 
HETATM   15  H           1     -37.805  -1.367  -8.057  0.00  0.00     0.166 HD
HETATM   16  C           1     -36.976  -0.916 -10.001  0.00  0.00     0.114 A 
ENDBRANCH   9  10
ENDBRANCH   5   9
ENDBRANCH   2   5
BRANCH   3  17
HETATM   17  C           1     -33.890  -3.131 -11.558  0.00  0.00     0.283 C 
BRANCH  17  18
HETATM   18  N           1     -33.504  -1.988 -10.666  0.00  0.00    -0.066 N 
HETATM   19  H           1     -34.024  -2.061  -9.762  0.00  0.00     0.275 HD
HETATM   20  H           1     -32.477  -2.022 -10.481  0.00  0.00     0.275 HD
HETATM   21  H           1     -33.745  -1.085 -11.135  0.00  0.00     0.275 HD
ENDBRANCH  17  18
BRANCH  17  22
HETATM   22  C           1     -34.954  -3.975 -10.871  0.00  0.00     0.145 C 
BRANCH  22  23
HETATM   23  C           1     -34.633  -5.438 -11.057  0.00  0.00     0.217 C 
HETATM   24  O           1     -34.263  -6.100 -10.117  0.00  0.00    -0.274 OA
HETATM   25  N           1     -34.762  -6.016 -12.292  0.00  0.00    -0.370 N 
HETATM   26  H           1     -34.547  -6.997 -12.417  0.00  0.00     0.159 HD
HETATM   27  H           1     -35.073  -5.462 -13.080  0.00  0.00     0.159 HD
ENDBRANCH  22  23
ENDBRANCH  17  22
ENDBRANCH   3  17
TORSDOF 8
ENDMDL
MODEL 4
REMARK VINA RESULT:      -6.4      2.697      5.436
REMARK  8 active torsions:
REMARK  status: ('A' for Active; 'I' for Inactive)
REMARK    1  A    between atoms: N_2  and  C_13 
REMARK       I    between atoms: N_4  and  C_15 
REMARK    2  A    between atoms: N_11  and  C_24 
REMARK       I    between atoms: N_11  and  C_12 
REMARK    3  A    between atoms: C_12  and  C_13 
REMARK    4  A    between atoms: C_13  and  C_14 
REMARK    5  A    between atoms: C_14  and  C_15 
REMARK    6  A    between atoms: C_20  and  C_24 
REMARK    7  A    between atoms: C_24  and  C_25 
REMARK    8  A    between atoms: C_25  and  C_26 
ROOT
HETATM    1  H           1     -36.964  -2.165 -12.084  0.00  0.00     0.163 HD
HETATM    2  N           1     -36.084  -1.666 -12.090  0.00  0.00    -0.344 N 
HETATM    3  C           1     -35.489  -1.342 -13.280  0.00  0.00     0.249 C 
HETATM    4  O           1     -34.710  -2.109 -13.794  0.00  0.00    -0.271 OA
ENDROOT
BRANCH   2   5
HETATM    5  C           1     -35.454  -1.295 -10.839  0.00  0.00     0.191 C 
BRANCH   5   6
HETATM    6  C           1     -34.255  -2.178 -10.598  0.00  0.00     0.197 C 
HETATM    7  O           1     -34.392  -3.421 -10.553  0.00  0.00    -0.646 OA
HETATM    8  O           1     -33.123  -1.669 -10.444  0.00  0.00    -0.646 OA
ENDBRANCH   5   6
BRANCH   5   9
HETATM    9  C           1     -36.449  -1.467  -9.698  0.00  0.00     0.094 C 
BRANCH   9  10
HETATM   10  C           1     -36.773  -0.128  -9.111  0.00  0.00     0.028 A 
HETATM   11  N           1     -36.265   0.348  -7.931  0.00  0.00    -0.354 N 
HETATM   12  C           1     -36.794   1.541  -7.783  0.00  0.00     0.180 A 
ATOM     13  HN          1     -35.614  -0.123  -7.302  1.00  0.00     0.166 HD
HETATM   14  N           1     -37.625   1.852  -8.821  0.00  0.00    -0.360 N 
HETATM   15  H           1     -38.168   2.744  -8.936  0.00  0.00     0.166 HD
HETATM   16  C           1     -37.623   0.790  -9.682  0.00  0.00     0.114 A 
ENDBRANCH   9  10
ENDBRANCH   5   9
ENDBRANCH   2   5
BRANCH   3  17
HETATM   17  C           1     -35.804  -0.026 -13.948  0.00  0.00     0.283 C 
BRANCH  17  18
HETATM   18  N           1     -35.049   0.073 -15.240  0.00  0.00    -0.066 N 
HETATM   19  H           1     -34.338   0.836 -15.171  0.00  0.00     0.275 HD
HETATM   20  H           1     -34.568  -0.834 -15.432  0.00  0.00     0.275 HD
HETATM   21  H           1     -35.716   0.287 -16.016  0.00  0.00     0.275 HD
ENDBRANCH  17  18
BRANCH  17  22
HETATM   22  C           1     -37.299   0.057 -14.225  0.00  0.00     0.145 C 
BRANCH  22  23
HETATM   23  C           1     -37.524   0.379 -15.682  0.00  0.00     0.217 C 
HETATM   24  O           1     -37.476  -0.501 -16.509  0.00  0.00    -0.274 OA
HETATM   25  N           1     -37.781   1.668 -16.068  0.00  0.00    -0.370 N 
HETATM   26  H           1     -37.931   1.884 -17.045  0.00  0.00     0.159 HD
HETATM   27  H           1     -37.821   2.404 -15.375  0.00  0.00     0.159 HD
ENDBRANCH  22  23
ENDBRANCH  17  22
ENDBRANCH   3  17
TORSDOF 8
ENDMDL
MODEL 5
REMARK VINA RESULT:      -6.2     10.298     12.748
REMARK  8 active torsions:
REMARK  status: ('A' for Active; 'I' for Inactive)
REMARK    1  A    between atoms: N_2  and  C_13 
REMARK       I    between atoms: N_4  and  C_15 
REMARK    2  A    between atoms: N_11  and  C_24 
REMARK       I    between atoms: N_11  and  C_12 
REMARK    3  A    between atoms: C_12  and  C_13 
REMARK    4  A    between atoms: C_13  and  C_14 
REMARK    5  A    between atoms: C_14  and  C_15 
REMARK    6  A    between atoms: C_20  and  C_24 
REMARK    7  A    between atoms: C_24  and  C_25 
REMARK    8  A    between atoms: C_25  and  C_26 
ROOT
HETATM    1  H           1     -26.584  -5.057 -17.803  0.00  0.00     0.163 HD
HETATM    2  N           1     -26.733  -6.007 -17.488  0.00  0.00    -0.344 N 
HETATM    3  C           1     -27.965  -6.392 -17.032  0.00  0.00     0.249 C 
HETATM    4  O           1     -28.237  -6.284 -15.860  0.00  0.00    -0.271 OA
ENDROOT
BRANCH   2   5
HETATM    5  C           1     -25.641  -6.960 -17.520  0.00  0.00     0.191 C 
BRANCH   5   6
HETATM    6  C           1     -24.939  -6.965 -16.185  0.00  0.00     0.197 C 
HETATM    7  O           1     -24.961  -5.943 -15.463  0.00  0.00    -0.646 OA
HETATM    8  O           1     -24.334  -7.989 -15.800  0.00  0.00    -0.646 OA
ENDBRANCH   5   6
BRANCH   5   9
HETATM    9  C           1     -24.655  -6.565 -18.612  0.00  0.00     0.094 C 
BRANCH   9  10
HETATM   10  C           1     -24.947  -7.346 -19.855  0.00  0.00     0.028 A 
HETATM   11  N           1     -26.203  -7.592 -20.344  0.00  0.00    -0.354 N 
HETATM   12  C           1     -26.019  -8.300 -21.434  0.00  0.00     0.180 A 
ATOM     13  HN          1     -27.092  -7.290 -19.945  1.00  0.00     0.166 HD
HETATM   14  N           1     -24.691  -8.522 -21.668  0.00  0.00    -0.360 N 
HETATM   15  H           1     -24.284  -9.060 -22.472  0.00  0.00     0.166 HD
HETATM   16  C           1     -23.990  -7.916 -20.663  0.00  0.00     0.114 A 
ENDBRANCH   9  10
ENDBRANCH   5   9
ENDBRANCH   2   5
BRANCH   3  17
HETATM   17  C           1     -28.984  -6.954 -17.994  0.00  0.00     0.283 C 
BRANCH  17  18
HETATM   18  N           1     -29.602  -8.187 -17.404  0.00  0.00    -0.066 N 
HETATM   19  H           1     -30.618  -8.217 -17.646  0.00  0.00     0.275 HD
HETATM   20  H           1     -29.127  -9.033 -17.789  0.00  0.00     0.275 HD
HETATM   21  H           1     -29.491  -8.167 -16.364  0.00  0.00     0.275 HD
ENDBRANCH  17  18
BRANCH  17  22
HETATM   22  C           1     -30.067  -5.915 -18.251  0.00  0.00     0.145 C 
BRANCH  22  23
HETATM   23  C           1     -31.157  -6.058 -17.217  0.00  0.00     0.217 C 
HETATM   24  O           1     -32.061  -6.839 -17.397  0.00  0.00    -0.274 OA
HETATM   25  N           1     -31.122  -5.302 -16.076  0.00  0.00    -0.370 N 
HETATM   26  H           1     -31.853  -5.397 -15.383  0.00  0.00     0.159 HD
HETATM   27  H           1     -30.365  -4.648 -15.926  0.00  0.00     0.159 HD
ENDBRANCH  22  23
ENDBRANCH  17  22
ENDBRANCH   3  17
TORSDOF 8
ENDMDL
MODEL 6
REMARK VINA RESULT:      -6.2     12.153     14.058
REMARK  8 active torsions:
REMARK  status: ('A' for Active; 'I' for Inactive)
REMARK    1  A    between atoms: N_2  and  C_13 
REMARK       I    between atoms: N_4  and  C_15 
REMARK    2  A    between atoms: N_11  and  C_24 
REMARK       I    between atoms: N_11  and  C_12 
REMARK    3  A    between atoms: C_12  and  C_13 
REMARK    4  A    between atoms: C_13  and  C_14 
REMARK    5  A    between atoms: C_14  and  C_15 
REMARK    6  A    between atoms: C_20  and  C_24 
REMARK    7  A    between atoms: C_24  and  C_25 
REMARK    8  A    between atoms: C_25  and  C_26 
ROOT
HETATM    1  H           1     -23.600  -4.774  -7.480  0.00  0.00     0.163 HD
HETATM    2  N           1     -22.879  -4.260  -7.968  0.00  0.00    -0.344 N 
HETATM    3  C           1     -21.632  -4.139  -7.415  0.00  0.00     0.249 C 
HETATM    4  O           1     -21.380  -3.207  -6.689  0.00  0.00    -0.271 OA
ENDROOT
BRANCH   2   5
HETATM    5  C           1     -23.164  -3.652  -9.252  0.00  0.00     0.191 C 
BRANCH   5   6
HETATM    6  C           1     -24.647  -3.721  -9.522  0.00  0.00     0.197 C 
HETATM    7  O           1     -25.336  -2.677  -9.500  0.00  0.00    -0.646 OA
HETATM    8  O           1     -25.188  -4.820  -9.768  0.00  0.00    -0.646 OA
ENDBRANCH   5   6
BRANCH   5   9
HETATM    9  C           1     -22.413  -4.399 -10.346  0.00  0.00     0.094 C 
BRANCH   9  10
HETATM   10  C           1     -22.807  -3.856 -11.684  0.00  0.00     0.028 A 
HETATM   11  N           1     -23.621  -4.502 -12.578  0.00  0.00    -0.354 N 
HETATM   12  C           1     -23.713  -3.695 -13.609  0.00  0.00     0.180 A 
ATOM     13  HN          1     -24.062  -5.416 -12.465  1.00  0.00     0.166 HD
HETATM   14  N           1     -22.988  -2.553 -13.417  0.00  0.00    -0.360 N 
HETATM   15  H           1     -22.899  -1.754 -14.092  0.00  0.00     0.166 HD
HETATM   16  C           1     -22.401  -2.642 -12.186  0.00  0.00     0.114 A 
ENDBRANCH   9  10
ENDBRANCH   5   9
ENDBRANCH   2   5
BRANCH   3  17
HETATM   17  C           1     -20.570  -5.170  -7.714  0.00  0.00     0.283 C 
BRANCH  17  18
HETATM   18  N           1     -19.436  -4.520  -8.451  0.00  0.00    -0.066 N 
HETATM   19  H           1     -19.345  -3.526  -8.143  0.00  0.00     0.275 HD
HETATM   20  H           1     -18.549  -5.031  -8.245  0.00  0.00     0.275 HD
HETATM   21  H           1     -19.627  -4.551  -9.479  0.00  0.00     0.275 HD
ENDBRANCH  17  18
BRANCH  17  22
HETATM   22  C           1     -20.056  -5.763  -6.410  0.00  0.00     0.145 C 
BRANCH  22  23
HETATM   23  C           1     -21.140  -6.596  -5.773  0.00  0.00     0.217 C 
HETATM   24  O           1     -21.292  -7.747  -6.107  0.00  0.00    -0.274 OA
HETATM   25  N           1     -21.953  -6.047  -4.817  0.00  0.00    -0.370 N 
HETATM   26  H           1     -22.681  -6.606  -4.390  0.00  0.00     0.159 HD
HETATM   27  H           1     -21.826  -5.083  -4.537  0.00  0.00     0.159 HD
ENDBRANCH  22  23
ENDBRANCH  17  22
ENDBRANCH   3  17
TORSDOF 8
ENDMDL
MODEL 7
REMARK VINA RESULT:      -5.8      2.364      5.021
REMARK  8 active torsions:
REMARK  status: ('A' for Active; 'I' for Inactive)
REMARK    1  A    between atoms: N_2  and  C_13 
REMARK       I    between atoms: N_4  and  C_15 
REMARK    2  A    between atoms: N_11  and  C_24 
REMARK       I    between atoms: N_11  and  C_12 
REMARK    3  A    between atoms: C_12  and  C_13 
REMARK    4  A    between atoms: C_13  and  C_14 
REMARK    5  A    between atoms: C_14  and  C_15 
REMARK    6  A    between atoms: C_20  and  C_24 
REMARK    7  A    between atoms: C_24  and  C_25 
REMARK    8  A    between atoms: C_25  and  C_26 
ROOT
HETATM    1  H           1     -33.506  -1.140 -11.904  0.00  0.00     0.163 HD
HETATM    2  N           1     -34.485  -0.995 -11.691  0.00  0.00    -0.344 N 
HETATM    3  C           1     -35.229  -0.132 -12.451  0.00  0.00     0.249 C 
HETATM    4  O           1     -35.302   1.034 -12.145  0.00  0.00    -0.271 OA
ENDROOT
BRANCH   2   5
HETATM    5  C           1     -35.099  -1.700 -10.584  0.00  0.00     0.191 C 
BRANCH   5   6
HETATM    6  C           1     -34.872  -3.182 -10.745  0.00  0.00     0.197 C 
HETATM    7  O           1     -33.770  -3.684 -10.431  0.00  0.00    -0.646 OA
HETATM    8  O           1     -35.785  -3.911 -11.190  0.00  0.00    -0.646 OA
ENDBRANCH   5   6
BRANCH   5   9
HETATM    9  C           1     -36.595  -1.413 -10.567  0.00  0.00     0.094 C 
BRANCH   9  10
HETATM   10  C           1     -36.867  -0.228  -9.694  0.00  0.00     0.028 A 
HETATM   11  N           1     -37.767   0.764  -9.985  0.00  0.00    -0.354 N 
HETATM   12  C           1     -37.700   1.600  -8.974  0.00  0.00     0.180 A 
ATOM     13  HN          1     -38.361   0.837 -10.810  1.00  0.00     0.166 HD
HETATM   14  N           1     -36.790   1.186  -8.042  0.00  0.00    -0.360 N 
HETATM   15  H           1     -36.552   1.679  -7.147  0.00  0.00     0.166 HD
HETATM   16  C           1     -36.247   0.014  -8.490  0.00  0.00     0.114 A 
ENDBRANCH   9  10
ENDBRANCH   5   9
ENDBRANCH   2   5
BRANCH   3  17
HETATM   17  C           1     -35.959  -0.638 -13.671  0.00  0.00     0.283 C 
BRANCH  17  18
HETATM   18  N           1     -37.385  -0.176 -13.628  0.00  0.00    -0.066 N 
HETATM   19  H           1     -37.425   0.797 -13.248  0.00  0.00     0.275 HD
HETATM   20  H           1     -37.785  -0.189 -14.593  0.00  0.00     0.275 HD
HETATM   21  H           1     -37.939  -0.814 -13.012  0.00  0.00     0.275 HD
ENDBRANCH  17  18
BRANCH  17  22
HETATM   22  C           1     -35.288  -0.097 -14.926  0.00  0.00     0.145 C 
BRANCH  22  23
HETATM   23  C           1     -35.552  -1.031 -16.081  0.00  0.00     0.217 C 
HETATM   24  O           1     -35.028  -2.120 -16.110  0.00  0.00    -0.274 OA
HETATM   25  N           1     -36.386  -0.646 -17.097  0.00  0.00    -0.370 N 
HETATM   26  H           1     -36.563  -1.272 -17.872  0.00  0.00     0.159 HD
HETATM   27  H           1     -36.825   0.266 -17.073  0.00  0.00     0.159 HD
ENDBRANCH  22  23
ENDBRANCH  17  22
ENDBRANCH   3  17
TORSDOF 8
ENDMDL
MODEL 8
REMARK VINA RESULT:      -5.7      3.337      4.282
REMARK  8 active torsions:
REMARK  status: ('A' for Active; 'I' for Inactive)
REMARK    1  A    between atoms: N_2  and  C_13 
REMARK       I    between atoms: N_4  and  C_15 
REMARK    2  A    between atoms: N_11  and  C_24 
REMARK       I    between atoms: N_11  and  C_12 
REMARK    3  A    between atoms: C_12  and  C_13 
REMARK    4  A    between atoms: C_13  and  C_14 
REMARK    5  A    between atoms: C_14  and  C_15 
REMARK    6  A    between atoms: C_20  and  C_24 
REMARK    7  A    between atoms: C_24  and  C_25 
REMARK    8  A    between atoms: C_25  and  C_26 
ROOT
HETATM    1  H           1     -36.823  -1.445 -13.678  0.00  0.00     0.163 HD
HETATM    2  N           1     -35.863  -1.126 -13.674  0.00  0.00    -0.344 N 
HETATM    3  C           1     -35.176  -1.041 -12.492  0.00  0.00     0.249 C 
HETATM    4  O           1     -35.200  -0.017 -11.852  0.00  0.00    -0.271 OA
ENDROOT
BRANCH   2   5
HETATM    5  C           1     -35.215  -0.760 -14.917  0.00  0.00     0.191 C 
BRANCH   5   6
HETATM    6  C           1     -35.574   0.662 -15.271  0.00  0.00     0.197 C 
HETATM    7  O           1     -36.418   0.889 -16.166  0.00  0.00    -0.646 OA
HETATM    8  O           1     -35.029   1.613 -14.671  0.00  0.00    -0.646 OA
ENDBRANCH   5   6
BRANCH   5   9
HETATM    9  C           1     -35.683  -1.694 -16.027  0.00  0.00     0.094 C 
BRANCH   9  10
HETATM   10  C           1     -34.611  -2.697 -16.321  0.00  0.00     0.028 A 
HETATM   11  N           1     -33.774  -2.647 -17.405  0.00  0.00    -0.354 N 
HETATM   12  C           1     -32.994  -3.697 -17.290  0.00  0.00     0.180 A 
ATOM     13  HN          1     -33.760  -1.943 -18.144  1.00  0.00     0.166 HD
HETATM   14  N           1     -33.297  -4.424 -16.173  0.00  0.00    -0.360 N 
HETATM   15  H           1     -32.821  -5.306 -15.859  0.00  0.00     0.166 HD
HETATM   16  C           1     -34.333  -3.795 -15.541  0.00  0.00     0.114 A 
ENDBRANCH   9  10
ENDBRANCH   5   9
ENDBRANCH   2   5
BRANCH   3  17
HETATM   17  C           1     -34.386  -2.226 -11.991  0.00  0.00     0.283 C 
BRANCH  17  18
HETATM   18  N           1     -33.475  -1.787 -10.883  0.00  0.00    -0.066 N 
HETATM   19  H           1     -33.090  -0.841 -11.103  0.00  0.00     0.275 HD
HETATM   20  H           1     -34.011  -1.746  -9.988  0.00  0.00     0.275 HD
HETATM   21  H           1     -32.689  -2.470 -10.789  0.00  0.00     0.275 HD
ENDBRANCH  17  18
BRANCH  17  22
HETATM   22  C           1     -35.342  -3.290 -11.471  0.00  0.00     0.145 C 
BRANCH  22  23
HETATM   23  C           1     -34.616  -4.608 -11.358  0.00  0.00     0.217 C 
HETATM   24  O           1     -33.953  -4.849 -10.377  0.00  0.00    -0.274 OA
HETATM   25  N           1     -34.706  -5.529 -12.367  0.00  0.00    -0.370 N 
HETATM   26  H           1     -34.219  -6.413 -12.291  0.00  0.00     0.159 HD
HETATM   27  H           1     -35.261  -5.327 -13.188  0.00  0.00     0.159 HD
ENDBRANCH  22  23
ENDBRANCH  17  22
ENDBRANCH   3  17
TORSDOF 8
ENDMDL
MODEL 9
REMARK VINA RESULT:      -5.7     13.864     15.674
REMARK  8 active torsions:
REMARK  status: ('A' for Active; 'I' for Inactive)
REMARK    1  A    between atoms: N_2  and  C_13 
REMARK       I    between atoms: N_4  and  C_15 
REMARK    2  A    between atoms: N_11  and  C_24 
REMARK       I    between atoms: N_11  and  C_12 
REMARK    3  A    between atoms: C_12  and  C_13 
REMARK    4  A    between atoms: C_13  and  C_14 
REMARK    5  A    between atoms: C_14  and  C_15 
REMARK    6  A    between atoms: C_20  and  C_24 
REMARK    7  A    between atoms: C_24  and  C_25 
REMARK    8  A    between atoms: C_25  and  C_26 
ROOT
HETATM    1  H           1     -22.885  -4.188  -5.978  0.00  0.00     0.163 HD
HETATM    2  N           1     -22.130  -4.763  -6.328  0.00  0.00    -0.344 N 
HETATM    3  C           1     -21.310  -5.422  -5.451  0.00  0.00     0.249 C 
HETATM    4  O           1     -20.307  -4.887  -5.042  0.00  0.00    -0.271 OA
ENDROOT
BRANCH   2   5
HETATM    5  C           1     -21.916  -4.889  -7.756  0.00  0.00     0.191 C 
BRANCH   5   6
HETATM    6  C           1     -20.435  -4.897  -8.044  0.00  0.00     0.197 C 
HETATM    7  O           1     -19.825  -5.984  -8.154  0.00  0.00    -0.646 OA
HETATM    8  O           1     -19.817  -3.819  -8.172  0.00  0.00    -0.646 OA
ENDBRANCH   5   6
BRANCH   5   9
HETATM    9  C           1     -22.567  -3.714  -8.472  0.00  0.00     0.094 C 
BRANCH   9  10
HETATM   10  C           1     -22.589  -3.975  -9.946  0.00  0.00     0.028 A 
HETATM   11  N           1     -21.736  -3.400 -10.852  0.00  0.00    -0.354 N 
HETATM   12  C           1     -22.087  -3.891 -12.018  0.00  0.00     0.180 A 
ATOM     13  HN          1     -20.989  -2.732 -10.661  1.00  0.00     0.166 HD
HETATM   14  N           1     -23.134  -4.761 -11.900  0.00  0.00    -0.360 N 
HETATM   15  H           1     -23.597  -5.284 -12.683  0.00  0.00     0.166 HD
HETATM   16  C           1     -23.467  -4.826 -10.576  0.00  0.00     0.114 A 
ENDBRANCH   9  10
ENDBRANCH   5   9
ENDBRANCH   2   5
BRANCH   3  17
HETATM   17  C           1     -21.658  -6.819  -4.997  0.00  0.00     0.283 C 
BRANCH  17  18
HETATM   18  N           1     -21.273  -7.801  -6.064  0.00  0.00    -0.066 N 
HETATM   19  H           1     -20.661  -8.542  -5.651  0.00  0.00     0.275 HD
HETATM   20  H           1     -22.134  -8.241  -6.459  0.00  0.00     0.275 HD
HETATM   21  H           1     -20.755  -7.304  -6.824  0.00  0.00     0.275 HD
ENDBRANCH  17  18
BRANCH  17  22
HETATM   22  C           1     -20.902  -7.139  -3.715  0.00  0.00     0.145 C 
BRANCH  22  23
HETATM   23  C           1     -21.795  -6.882  -2.527  0.00  0.00     0.217 C 
HETATM   24  O           1     -22.533  -5.925  -2.521  0.00  0.00    -0.274 OA
HETATM   25  N           1     -21.770  -7.733  -1.454  0.00  0.00    -0.370 N 
HETATM   26  H           1     -22.369  -7.560  -0.656  0.00  0.00     0.159 HD
HETATM   27  H           1     -21.153  -8.535  -1.458  0.00  0.00     0.159 HD
ENDBRANCH  22  23
ENDBRANCH  17  22
ENDBRANCH   3  17
TORSDOF 8
ENDMDL
