MODEL 1
REMARK VINA RESULT:      -8.0      0.000      0.000
REMARK  10 active torsions:
REMARK  status: ('A' for Active; 'I' for Inactive)
REMARK    1  A    between atoms: C_1  and  O_11 
REMARK    2  A    between atoms: C_2  and  C_3 
REMARK    3  A    between atoms: C_3  and  C_4 
REMARK    4  A    between atoms: C_3  and  N_25 
REMARK    5  A    between atoms: C_4  and  C_23 
REMARK       I    between atoms: C_6  and  N_17 
REMARK    6  A    between atoms: C_6  and  C_23 
REMARK    7  A    between atoms: C_9  and  C_10 
REMARK    8  A    between atoms: C_9  and  C_18 
REMARK    9  A    between atoms: C_10  and  C_27 
REMARK   10  A    between atoms: C_10  and  N_14 
REMARK       I    between atoms: N_25  and  C_27 
ROOT
HETATM    1  O           1     -21.729  -3.486  -7.295  0.00  0.00    -0.271 OA
HETATM    2  H           1     -22.152  -5.812  -9.357  0.00  0.00     0.163 HD
HETATM    3  N           1     -22.178  -4.870  -8.988  0.00  0.00    -0.345 N 
HETATM    4  C           1     -21.697  -4.610  -7.734  0.00  0.00     0.249 C 
ENDROOT
BRANCH   4   5
HETATM    5  C           1     -21.125  -5.731  -6.899  0.00  0.00     0.278 C 
BRANCH   5   6
HETATM    6  C           1     -20.899  -5.238  -5.475  0.00  0.00     0.081 C 
BRANCH   6   7
HETATM    7  C           1     -21.160  -6.356  -4.514  0.00  0.00    -0.056 A 
HETATM    8  C           1     -21.295  -7.662  -4.985  0.00  0.00     0.010 A 
HETATM    9  C           1     -21.538  -8.705  -4.089  0.00  0.00     0.037 A 
HETATM   10  C           1     -21.645  -8.440  -2.725  0.00  0.00     0.065 A 
HETATM   11  C           1     -21.511  -7.134  -2.254  0.00  0.00     0.037 A 
HETATM   12  C           1     -21.268  -6.093  -3.150  0.00  0.00     0.010 A 
BRANCH  10  13
HETATM   13  O           1     -21.881  -9.452  -1.855  0.00  0.00    -0.361 OA
HETATM   14  H           1     -22.831  -9.450  -1.642  0.00  0.00     0.217 HD
ENDBRANCH  10  13
ENDBRANCH   6   7
ENDBRANCH   5   6
BRANCH   5  15
HETATM   15  N           1     -19.818  -6.174  -7.487  0.00  0.00    -0.066 N 
HETATM   16  H           1     -19.462  -5.440  -8.139  0.00  0.00     0.275 HD
HETATM   17  H           1     -19.125  -6.324  -6.719  0.00  0.00     0.275 HD
HETATM   18  H           1     -19.957  -7.068  -8.011  0.00  0.00     0.275 HD
ENDBRANCH   5  15
ENDBRANCH   4   5
BRANCH   3  19
HETATM   19  C           1     -22.728  -3.794  -9.791  0.00  0.00     0.186 C 
BRANCH  19  20
HETATM   20  C           1     -24.235  -3.850  -9.742  0.00  0.00     0.196 C 
HETATM   21  O           1     -24.828  -4.926  -9.971  0.00  0.00    -0.646 OA
HETATM   22  O           1     -24.890  -2.819  -9.473  0.00  0.00    -0.646 OA
ENDBRANCH  19  20
BRANCH  19  23
HETATM   23  C           1     -22.260  -3.946 -11.232  0.00  0.00     0.045 C 
BRANCH  23  24
HETATM   24  C           1     -22.459  -2.630 -11.973  0.00  0.00     0.105 C 
BRANCH  24  25
HETATM   25  C           1     -23.242  -2.877 -13.239  0.00  0.00     0.215 C 
HETATM   26  O           1     -24.448  -2.930 -13.203  0.00  0.00    -0.274 OA
HETATM   27  N           1     -22.585  -3.040 -14.429  0.00  0.00    -0.370 N 
HETATM   28  H           1     -23.110  -3.204 -15.279  0.00  0.00     0.159 HD
HETATM   29  H           1     -21.574  -2.995 -14.459  0.00  0.00     0.159 HD
ENDBRANCH  24  25
ENDBRANCH  23  24
ENDBRANCH  19  23
ENDBRANCH   3  19
TORSDOF 10
ENDMDL
MODEL 2
REMARK VINA RESULT:      -7.9      2.851      8.434
REMARK  10 active torsions:
REMARK  status: ('A' for Active; 'I' for Inactive)
REMARK    1  A    between atoms: C_1  and  O_11 
REMARK    2  A    between atoms: C_2  and  C_3 
REMARK    3  A    between atoms: C_3  and  C_4 
REMARK    4  A    between atoms: C_3  and  N_25 
REMARK    5  A    between atoms: C_4  and  C_23 
REMARK       I    between atoms: C_6  and  N_17 
REMARK    6  A    between atoms: C_6  and  C_23 
REMARK    7  A    between atoms: C_9  and  C_10 
REMARK    8  A    between atoms: C_9  and  C_18 
REMARK    9  A    between atoms: C_10  and  C_27 
REMARK   10  A    between atoms: C_10  and  N_14 
REMARK       I    between atoms: N_25  and  C_27 
ROOT
HETATM    1  O           1     -20.768  -5.195  -4.841  0.00  0.00    -0.271 OA
HETATM    2  H           1     -21.752  -7.881  -6.128  0.00  0.00     0.163 HD
HETATM    3  N           1     -21.271  -7.275  -5.476  0.00  0.00    -0.345 N 
HETATM    4  C           1     -21.343  -5.916  -5.620  0.00  0.00     0.249 C 
ENDROOT
BRANCH   4   5
HETATM    5  C           1     -22.142  -5.319  -6.753  0.00  0.00     0.278 C 
BRANCH   5   6
HETATM    6  C           1     -21.464  -4.043  -7.236  0.00  0.00     0.081 C 
BRANCH   6   7
HETATM    7  C           1     -21.529  -3.979  -8.730  0.00  0.00    -0.056 A 
HETATM    8  C           1     -22.726  -3.638  -9.361  0.00  0.00     0.010 A 
HETATM    9  C           1     -22.787  -3.577 -10.754  0.00  0.00     0.037 A 
HETATM   10  C           1     -21.652  -3.856 -11.514  0.00  0.00     0.065 A 
HETATM   11  C           1     -20.456  -4.197 -10.883  0.00  0.00     0.037 A 
HETATM   12  C           1     -20.395  -4.258  -9.491  0.00  0.00     0.010 A 
BRANCH  10  13
HETATM   13  O           1     -21.712  -3.797 -12.867  0.00  0.00    -0.361 OA
HETATM   14  H           1     -20.887  -3.393 -13.186  0.00  0.00     0.217 HD
ENDBRANCH  10  13
ENDBRANCH   6   7
ENDBRANCH   5   6
BRANCH   5  15
HETATM   15  N           1     -23.526  -4.998  -6.273  0.00  0.00    -0.066 N 
HETATM   16  H           1     -24.147  -5.826  -6.418  0.00  0.00     0.275 HD
HETATM   17  H           1     -23.494  -4.761  -5.255  0.00  0.00     0.275 HD
HETATM   18  H           1     -23.901  -4.183  -6.810  0.00  0.00     0.275 HD
ENDBRANCH   5  15
ENDBRANCH   4   5
BRANCH   3  19
HETATM   19  C           1     -20.503  -7.850  -4.388  0.00  0.00     0.186 C 
BRANCH  19  20
HETATM   20  C           1     -19.656  -8.982  -4.913  0.00  0.00     0.196 C 
HETATM   21  O           1     -20.129  -9.781  -5.749  0.00  0.00    -0.646 OA
HETATM   22  O           1     -18.480  -9.121  -4.511  0.00  0.00    -0.646 OA
ENDBRANCH  19  20
BRANCH  19  23
HETATM   23  C           1     -21.452  -8.378  -3.321  0.00  0.00     0.045 C 
BRANCH  23  24
HETATM   24  C           1     -21.063  -7.804  -1.965  0.00  0.00     0.105 C 
BRANCH  24  25
HETATM   25  C           1     -22.122  -6.832  -1.506  0.00  0.00     0.215 C 
HETATM   26  O           1     -22.810  -7.096  -0.549  0.00  0.00    -0.274 OA
HETATM   27  N           1     -22.303  -5.651  -2.173  0.00  0.00    -0.370 N 
HETATM   28  H           1     -23.012  -4.998  -1.865  0.00  0.00     0.159 HD
HETATM   29  H           1     -21.726  -5.429  -2.975  0.00  0.00     0.159 HD
ENDBRANCH  24  25
ENDBRANCH  23  24
ENDBRANCH  19  23
ENDBRANCH   3  19
TORSDOF 10
ENDMDL
MODEL 3
REMARK VINA RESULT:      -7.5      2.311      8.397
REMARK  10 active torsions:
REMARK  status: ('A' for Active; 'I' for Inactive)
REMARK    1  A    between atoms: C_1  and  O_11 
REMARK    2  A    between atoms: C_2  and  C_3 
REMARK    3  A    between atoms: C_3  and  C_4 
REMARK    4  A    between atoms: C_3  and  N_25 
REMARK    5  A    between atoms: C_4  and  C_23 
REMARK       I    between atoms: C_6  and  N_17 
REMARK    6  A    between atoms: C_6  and  C_23 
REMARK    7  A    between atoms: C_9  and  C_10 
REMARK    8  A    between atoms: C_9  and  C_18 
REMARK    9  A    between atoms: C_10  and  C_27 
REMARK   10  A    between atoms: C_10  and  N_14 
REMARK       I    between atoms: N_25  and  C_27 
ROOT
HETATM    1  O           1     -19.947  -4.372  -5.339  0.00  0.00    -0.271 OA
HETATM    2  H           1     -21.654  -6.639  -6.676  0.00  0.00     0.163 HD
HETATM    3  N           1     -21.113  -6.172  -5.960  0.00  0.00    -0.345 N 
HETATM    4  C           1     -20.593  -4.928  -6.195  0.00  0.00     0.249 C 
ENDROOT
BRANCH   4   5
HETATM    5  C           1     -20.828  -4.251  -7.523  0.00  0.00     0.278 C 
BRANCH   5   6
HETATM    6  C           1     -21.464  -5.240  -8.491  0.00  0.00     0.081 C 
BRANCH   6   7
HETATM    7  C           1     -22.231  -4.491  -9.537  0.00  0.00    -0.056 A 
HETATM    8  C           1     -21.628  -4.187 -10.758  0.00  0.00     0.010 A 
HETATM    9  C           1     -22.342  -3.489 -11.733  0.00  0.00     0.037 A 
HETATM   10  C           1     -23.657  -3.096 -11.487  0.00  0.00     0.065 A 
HETATM   11  C           1     -24.259  -3.399 -10.266  0.00  0.00     0.037 A 
HETATM   12  C           1     -23.545  -4.097  -9.291  0.00  0.00     0.010 A 
BRANCH  10  13
HETATM   13  O           1     -24.350  -2.418 -12.433  0.00  0.00    -0.361 OA
HETATM   14  H           1     -25.201  -2.148 -12.047  0.00  0.00     0.217 HD
ENDBRANCH  10  13
ENDBRANCH   6   7
ENDBRANCH   5   6
BRANCH   5  15
HETATM   15  N           1     -19.518  -3.778  -8.081  0.00  0.00    -0.066 N 
HETATM   16  H           1     -19.600  -2.775  -8.360  0.00  0.00     0.275 HD
HETATM   17  H           1     -18.775  -3.878  -7.353  0.00  0.00     0.275 HD
HETATM   18  H           1     -19.269  -4.353  -8.917  0.00  0.00     0.275 HD
ENDBRANCH   5  15
ENDBRANCH   4   5
BRANCH   3  19
HETATM   19  C           1     -20.887  -6.824  -4.684  0.00  0.00     0.186 C 
BRANCH  19  20
HETATM   20  C           1     -20.602  -8.288  -4.911  0.00  0.00     0.196 C 
HETATM   21  O           1     -19.656  -8.634  -5.651  0.00  0.00    -0.646 OA
HETATM   22  O           1     -21.314  -9.156  -4.359  0.00  0.00    -0.646 OA
ENDBRANCH  19  20
BRANCH  19  23
HETATM   23  C           1     -22.127  -6.677  -3.813  0.00  0.00     0.045 C 
BRANCH  23  24
HETATM   24  C           1     -21.731  -6.106  -2.458  0.00  0.00     0.105 C 
BRANCH  24  25
HETATM   25  C           1     -21.957  -7.144  -1.387  0.00  0.00     0.215 C 
HETATM   26  O           1     -22.849  -7.003  -0.586  0.00  0.00    -0.274 OA
HETATM   27  N           1     -21.150  -8.249  -1.323  0.00  0.00    -0.370 N 
HETATM   28  H           1     -21.301  -8.946  -0.606  0.00  0.00     0.159 HD
HETATM   29  H           1     -20.401  -8.368  -1.995  0.00  0.00     0.159 HD
ENDBRANCH  24  25
ENDBRANCH  23  24
ENDBRANCH  19  23
ENDBRANCH   3  19
TORSDOF 10
ENDMDL
MODEL 4
REMARK VINA RESULT:      -6.7      2.844      8.089
REMARK  10 active torsions:
REMARK  status: ('A' for Active; 'I' for Inactive)
REMARK    1  A    between atoms: C_1  and  O_11 
REMARK    2  A    between atoms: C_2  and  C_3 
REMARK    3  A    between atoms: C_3  and  C_4 
REMARK    4  A    between atoms: C_3  and  N_25 
REMARK    5  A    between atoms: C_4  and  C_23 
REMARK       I    between atoms: C_6  and  N_17 
REMARK    6  A    between atoms: C_6  and  C_23 
REMARK    7  A    between atoms: C_9  and  C_10 
REMARK    8  A    between atoms: C_9  and  C_18 
REMARK    9  A    between atoms: C_10  and  C_27 
REMARK   10  A    between atoms: C_10  and  N_14 
REMARK       I    between atoms: N_25  and  C_27 
ROOT
HETATM    1  O           1     -21.535  -7.357  -6.283  0.00  0.00    -0.271 OA
HETATM    2  H           1     -20.524  -5.576  -3.907  0.00  0.00     0.163 HD
HETATM    3  N           1     -20.904  -6.390  -4.372  0.00  0.00    -0.345 N 
HETATM    4  C           1     -21.081  -6.385  -5.729  0.00  0.00     0.249 C 
ENDROOT
BRANCH   4   5
HETATM    5  C           1     -20.707  -5.164  -6.534  0.00  0.00     0.278 C 
BRANCH   5   6
HETATM    6  C           1     -20.186  -5.596  -7.899  0.00  0.00     0.081 C 
BRANCH   6   7
HETATM    7  C           1     -20.869  -4.801  -8.968  0.00  0.00    -0.056 A 
HETATM    8  C           1     -20.182  -4.467 -10.135  0.00  0.00     0.010 A 
HETATM    9  C           1     -20.819  -3.726 -11.131  0.00  0.00     0.037 A 
HETATM   10  C           1     -22.142  -3.321 -10.960  0.00  0.00     0.065 A 
HETATM   11  C           1     -22.829  -3.655  -9.794  0.00  0.00     0.037 A 
HETATM   12  C           1     -22.192  -4.396  -8.797  0.00  0.00     0.010 A 
BRANCH  10  13
HETATM   13  O           1     -22.761  -2.602 -11.928  0.00  0.00    -0.361 OA
HETATM   14  H           1     -22.328  -2.804 -12.775  0.00  0.00     0.217 HD
ENDBRANCH  10  13
ENDBRANCH   6   7
ENDBRANCH   5   6
BRANCH   5  15
HETATM   15  N           1     -19.638  -4.399  -5.812  0.00  0.00    -0.066 N 
HETATM   16  H           1     -19.935  -3.403  -5.703  0.00  0.00     0.275 HD
HETATM   17  H           1     -19.486  -4.821  -4.868  0.00  0.00     0.275 HD
HETATM   18  H           1     -18.749  -4.439  -6.360  0.00  0.00     0.275 HD
ENDBRANCH   5  15
ENDBRANCH   4   5
BRANCH   3  19
HETATM   19  C           1     -21.264  -7.563  -3.598  0.00  0.00     0.186 C 
BRANCH  19  20
HETATM   20  C           1     -21.914  -7.132  -2.306  0.00  0.00     0.196 C 
HETATM   21  O           1     -22.407  -5.988  -2.205  0.00  0.00    -0.646 OA
HETATM   22  O           1     -21.960  -7.921  -1.337  0.00  0.00    -0.646 OA
ENDBRANCH  19  20
BRANCH  19  23
HETATM   23  C           1     -20.011  -8.372  -3.291  0.00  0.00     0.045 C 
BRANCH  23  24
HETATM   24  C           1     -20.224  -9.819  -3.714  0.00  0.00     0.105 C 
BRANCH  24  25
HETATM   25  C           1     -19.987  -9.951  -5.198  0.00  0.00     0.215 C 
HETATM   26  O           1     -18.926  -9.621  -5.672  0.00  0.00    -0.274 OA
HETATM   27  N           1     -20.973 -10.446  -6.008  0.00  0.00    -0.370 N 
HETATM   28  H           1     -20.815 -10.535  -7.004  0.00  0.00     0.159 HD
HETATM   29  H           1     -21.863 -10.723  -5.611  0.00  0.00     0.159 HD
ENDBRANCH  24  25
ENDBRANCH  23  24
ENDBRANCH  19  23
ENDBRANCH   3  19
TORSDOF 10
ENDMDL
MODEL 5
REMARK VINA RESULT:      -6.7      2.480      8.250
REMARK  10 active torsions:
REMARK  status: ('A' for Active; 'I' for Inactive)
REMARK    1  A    between atoms: C_1  and  O_11 
REMARK    2  A    between atoms: C_2  and  C_3 
REMARK    3  A    between atoms: C_3  and  C_4 
REMARK    4  A    between atoms: C_3  and  N_25 
REMARK    5  A    between atoms: C_4  and  C_23 
REMARK       I    between atoms: C_6  and  N_17 
REMARK    6  A    between atoms: C_6  and  C_23 
REMARK    7  A    between atoms: C_9  and  C_10 
REMARK    8  A    between atoms: C_9  and  C_18 
REMARK    9  A    between atoms: C_10  and  C_27 
REMARK   10  A    between atoms: C_10  and  N_14 
REMARK       I    between atoms: N_25  and  C_27 
ROOT
HETATM    1  O           1     -21.003  -6.611  -7.264  0.00  0.00    -0.271 OA
HETATM    2  H           1     -22.356  -4.966  -4.962  0.00  0.00     0.163 HD
HETATM    3  N           1     -21.887  -5.745  -5.407  0.00  0.00    -0.345 N 
HETATM    4  C           1     -21.562  -5.682  -6.734  0.00  0.00     0.249 C 
ENDROOT
BRANCH   4   5
HETATM    5  C           1     -21.901  -4.449  -7.536  0.00  0.00     0.278 C 
BRANCH   5   6
HETATM    6  C           1     -21.215  -4.522  -8.895  0.00  0.00     0.081 C 
BRANCH   6   7
HETATM    7  C           1     -22.131  -3.975  -9.945  0.00  0.00    -0.056 A 
HETATM    8  C           1     -23.505  -3.922  -9.712  0.00  0.00     0.010 A 
HETATM    9  C           1     -24.360  -3.413 -10.692  0.00  0.00     0.037 A 
HETATM   10  C           1     -23.839  -2.957 -11.902  0.00  0.00     0.065 A 
HETATM   11  C           1     -22.465  -3.010 -12.135  0.00  0.00     0.037 A 
HETATM   12  C           1     -21.611  -3.520 -11.156  0.00  0.00     0.010 A 
BRANCH  10  13
HETATM   13  O           1     -24.668  -2.463 -12.853  0.00  0.00    -0.361 OA
HETATM   14  H           1     -24.582  -3.021 -13.645  0.00  0.00     0.217 HD
ENDBRANCH  10  13
ENDBRANCH   6   7
ENDBRANCH   5   6
BRANCH   5  15
HETATM   15  N           1     -21.426  -3.230  -6.802  0.00  0.00    -0.066 N 
HETATM   16  H           1     -20.383  -3.237  -6.753  0.00  0.00     0.275 HD
HETATM   17  H           1     -21.745  -2.373  -7.310  0.00  0.00     0.275 HD
HETATM   18  H           1     -21.821  -3.230  -5.835  0.00  0.00     0.275 HD
ENDBRANCH   5  15
ENDBRANCH   4   5
BRANCH   3  19
HETATM   19  C           1     -21.562  -6.929  -4.636  0.00  0.00     0.186 C 
BRANCH  19  20
HETATM   20  C           1     -21.712  -6.629  -3.165  0.00  0.00     0.196 C 
HETATM   21  O           1     -20.896  -7.099  -2.343  0.00  0.00    -0.646 OA
HETATM   22  O           1     -22.655  -5.909  -2.768  0.00  0.00    -0.646 OA
ENDBRANCH  19  20
BRANCH  19  23
HETATM   23  C           1     -20.126  -7.344  -4.925  0.00  0.00     0.045 C 
BRANCH  23  24
HETATM   24  C           1     -20.038  -8.863  -4.989  0.00  0.00     0.105 C 
BRANCH  24  25
HETATM   25  C           1     -18.613  -9.275  -5.265  0.00  0.00     0.215 C 
HETATM   26  O           1     -18.189  -9.264  -6.395  0.00  0.00    -0.274 OA
HETATM   27  N           1     -17.800  -9.661  -4.233  0.00  0.00    -0.370 N 
HETATM   28  H           1     -16.844  -9.937  -4.416  0.00  0.00     0.159 HD
HETATM   29  H           1     -18.156  -9.670  -3.285  0.00  0.00     0.159 HD
ENDBRANCH  24  25
ENDBRANCH  23  24
ENDBRANCH  19  23
ENDBRANCH   3  19
TORSDOF 10
ENDMDL
MODEL 6
REMARK VINA RESULT:      -6.5      3.468      8.554
REMARK  10 active torsions:
REMARK  status: ('A' for Active; 'I' for Inactive)
REMARK    1  A    between atoms: C_1  and  O_11 
REMARK    2  A    between atoms: C_2  and  C_3 
REMARK    3  A    between atoms: C_3  and  C_4 
REMARK    4  A    between atoms: C_3  and  N_25 
REMARK    5  A    between atoms: C_4  and  C_23 
REMARK       I    between atoms: C_6  and  N_17 
REMARK    6  A    between atoms: C_6  and  C_23 
REMARK    7  A    between atoms: C_9  and  C_10 
REMARK    8  A    between atoms: C_9  and  C_18 
REMARK    9  A    between atoms: C_10  and  C_27 
REMARK   10  A    between atoms: C_10  and  N_14 
REMARK       I    between atoms: N_25  and  C_27 
ROOT
HETATM    1  O           1     -19.715  -7.625  -6.048  0.00  0.00    -0.271 OA
HETATM    2  H           1     -21.828  -8.521  -3.910  0.00  0.00     0.163 HD
HETATM    3  N           1     -21.038  -8.600  -4.537  0.00  0.00    -0.345 N 
HETATM    4  C           1     -20.657  -7.529  -5.299  0.00  0.00     0.249 C 
ENDROOT
BRANCH   4   5
HETATM    5  C           1     -21.416  -6.227  -5.204  0.00  0.00     0.278 C 
BRANCH   5   6
HETATM    6  C           1     -20.524  -5.084  -5.672  0.00  0.00     0.081 C 
BRANCH   6   7
HETATM    7  C           1     -20.935  -4.663  -7.049  0.00  0.00    -0.056 A 
HETATM    8  C           1     -19.980  -4.566  -8.061  0.00  0.00     0.010 A 
HETATM    9  C           1     -20.363  -4.174  -9.345  0.00  0.00     0.037 A 
HETATM   10  C           1     -21.699  -3.881  -9.615  0.00  0.00     0.065 A 
HETATM   11  C           1     -22.653  -3.978  -8.603  0.00  0.00     0.037 A 
HETATM   12  C           1     -22.271  -4.370  -7.319  0.00  0.00     0.010 A 
BRANCH  10  13
HETATM   13  O           1     -22.070  -3.500 -10.861  0.00  0.00    -0.361 OA
HETATM   14  H           1     -21.322  -3.028 -11.266  0.00  0.00     0.217 HD
ENDBRANCH  10  13
ENDBRANCH   6   7
ENDBRANCH   5   6
BRANCH   5  15
HETATM   15  N           1     -21.824  -5.991  -3.780  0.00  0.00    -0.066 N 
HETATM   16  H           1     -22.860  -5.867  -3.730  0.00  0.00     0.275 HD
HETATM   17  H           1     -21.543  -6.812  -3.197  0.00  0.00     0.275 HD
HETATM   18  H           1     -21.353  -5.130  -3.421  0.00  0.00     0.275 HD
ENDBRANCH   5  15
ENDBRANCH   4   5
BRANCH   3  19
HETATM   19  C           1     -20.309  -9.851  -4.629  0.00  0.00     0.186 C 
BRANCH  19  20
HETATM   20  C           1     -21.147 -10.868  -5.364  0.00  0.00     0.196 C 
HETATM   21  O           1     -21.981 -11.559  -4.742  0.00  0.00    -0.646 OA
HETATM   22  O           1     -21.006 -11.018  -6.598  0.00  0.00    -0.646 OA
ENDBRANCH  19  20
BRANCH  19  23
HETATM   23  C           1     -20.002 -10.363  -3.228  0.00  0.00     0.045 C 
BRANCH  23  24
HETATM   24  C           1     -19.656  -9.189  -2.322  0.00  0.00     0.105 C 
BRANCH  24  25
HETATM   25  C           1     -20.774  -8.970  -1.332  0.00  0.00     0.215 C 
HETATM   26  O           1     -21.584  -8.093  -1.520  0.00  0.00    -0.274 OA
HETATM   27  N           1     -20.872  -9.765  -0.222  0.00  0.00    -0.370 N 
HETATM   28  H           1     -21.622  -9.619   0.442  0.00  0.00     0.159 HD
HETATM   29  H           1     -20.194 -10.500  -0.065  0.00  0.00     0.159 HD
ENDBRANCH  24  25
ENDBRANCH  23  24
ENDBRANCH  19  23
ENDBRANCH   3  19
TORSDOF 10
ENDMDL
MODEL 7
REMARK VINA RESULT:      -6.5      3.288      9.140
REMARK  10 active torsions:
REMARK  status: ('A' for Active; 'I' for Inactive)
REMARK    1  A    between atoms: C_1  and  O_11 
REMARK    2  A    between atoms: C_2  and  C_3 
REMARK    3  A    between atoms: C_3  and  C_4 
REMARK    4  A    between atoms: C_3  and  N_25 
REMARK    5  A    between atoms: C_4  and  C_23 
REMARK       I    between atoms: C_6  and  N_17 
REMARK    6  A    between atoms: C_6  and  C_23 
REMARK    7  A    between atoms: C_9  and  C_10 
REMARK    8  A    between atoms: C_9  and  C_18 
REMARK    9  A    between atoms: C_10  and  C_27 
REMARK   10  A    between atoms: C_10  and  N_14 
REMARK       I    between atoms: N_25  and  C_27 
ROOT
HETATM    1  O           1     -21.140  -5.955  -3.101  0.00  0.00    -0.271 OA
HETATM    2  H           1     -20.603  -8.572  -4.745  0.00  0.00     0.163 HD
HETATM    3  N           1     -20.625  -7.959  -3.941  0.00  0.00    -0.345 N 
HETATM    4  C           1     -21.113  -6.686  -4.062  0.00  0.00     0.249 C 
ENDROOT
BRANCH   4   5
HETATM    5  C           1     -21.619  -6.197  -5.397  0.00  0.00     0.278 C 
BRANCH   5   6
HETATM    6  C           1     -20.935  -4.882  -5.748  0.00  0.00     0.081 C 
BRANCH   6   7
HETATM    7  C           1     -21.036  -4.646  -7.223  0.00  0.00    -0.056 A 
HETATM    8  C           1     -20.003  -5.055  -8.066  0.00  0.00     0.010 A 
HETATM    9  C           1     -20.097  -4.835  -9.442  0.00  0.00     0.037 A 
HETATM   10  C           1     -21.223  -4.208  -9.972  0.00  0.00     0.065 A 
HETATM   11  C           1     -22.256  -3.799  -9.128  0.00  0.00     0.037 A 
HETATM   12  C           1     -22.162  -4.018  -7.754  0.00  0.00     0.010 A 
BRANCH  10  13
HETATM   13  O           1     -21.315  -3.994 -11.307  0.00  0.00    -0.361 OA
HETATM   14  H           1     -22.130  -4.419 -11.623  0.00  0.00     0.217 HD
ENDBRANCH  10  13
ENDBRANCH   6   7
ENDBRANCH   5   6
BRANCH   5  15
HETATM   15  N           1     -23.102  -5.982  -5.320  0.00  0.00    -0.066 N 
HETATM   16  H           1     -23.384  -5.850  -4.323  0.00  0.00     0.275 HD
HETATM   17  H           1     -23.358  -5.130  -5.870  0.00  0.00     0.275 HD
HETATM   18  H           1     -23.595  -6.814  -5.715  0.00  0.00     0.275 HD
ENDBRANCH   5  15
ENDBRANCH   4   5
BRANCH   3  19
HETATM   19  C           1     -20.138  -8.430  -2.658  0.00  0.00     0.186 C 
BRANCH  19  20
HETATM   20  C           1     -18.974  -9.365  -2.875  0.00  0.00     0.196 C 
HETATM   21  O           1     -18.770 -10.306  -2.079  0.00  0.00    -0.646 OA
HETATM   22  O           1     -18.211  -9.196  -3.852  0.00  0.00    -0.646 OA
ENDBRANCH  19  20
BRANCH  19  23
HETATM   23  C           1     -21.254  -9.169  -1.932  0.00  0.00     0.045 C 
BRANCH  23  24
HETATM   24  C           1     -21.482  -8.533  -0.568  0.00  0.00     0.105 C 
BRANCH  24  25
HETATM   25  C           1     -22.858  -8.895  -0.066  0.00  0.00     0.215 C 
HETATM   26  O           1     -23.342  -9.965  -0.347  0.00  0.00    -0.274 OA
HETATM   27  N           1     -23.559  -8.010   0.710  0.00  0.00    -0.370 N 
HETATM   28  H           1     -24.482  -8.252   1.047  0.00  0.00     0.159 HD
HETATM   29  H           1     -23.153  -7.113   0.946  0.00  0.00     0.159 HD
ENDBRANCH  24  25
ENDBRANCH  23  24
ENDBRANCH  19  23
ENDBRANCH   3  19
TORSDOF 10
ENDMDL
MODEL 8
REMARK VINA RESULT:      -6.2      4.444      9.890
REMARK  10 active torsions:
REMARK  status: ('A' for Active; 'I' for Inactive)
REMARK    1  A    between atoms: C_1  and  O_11 
REMARK    2  A    between atoms: C_2  and  C_3 
REMARK    3  A    between atoms: C_3  and  C_4 
REMARK    4  A    between atoms: C_3  and  N_25 
REMARK    5  A    between atoms: C_4  and  C_23 
REMARK       I    between atoms: C_6  and  N_17 
REMARK    6  A    between atoms: C_6  and  C_23 
REMARK    7  A    between atoms: C_9  and  C_10 
REMARK    8  A    between atoms: C_9  and  C_18 
REMARK    9  A    between atoms: C_10  and  C_27 
REMARK   10  A    between atoms: C_10  and  N_14 
REMARK       I    between atoms: N_25  and  C_27 
ROOT
HETATM    1  O           1     -22.143  -6.504  -1.486  0.00  0.00    -0.271 OA
HETATM    2  H           1     -21.683  -9.572  -1.946  0.00  0.00     0.163 HD
HETATM    3  N           1     -21.930  -8.726  -1.450  0.00  0.00    -0.345 N 
HETATM    4  C           1     -21.848  -7.513  -2.079  0.00  0.00     0.249 C 
ENDROOT
BRANCH   4   5
HETATM    5  C           1     -21.389  -7.438  -3.515  0.00  0.00     0.278 C 
BRANCH   5   6
HETATM    6  C           1     -22.396  -6.635  -4.328  0.00  0.00     0.081 C 
BRANCH   6   7
HETATM    7  C           1     -21.674  -5.843  -5.373  0.00  0.00    -0.056 A 
HETATM    8  C           1     -20.327  -5.524  -5.199  0.00  0.00     0.010 A 
HETATM    9  C           1     -19.653  -4.785  -6.173  0.00  0.00     0.037 A 
HETATM   10  C           1     -20.327  -4.367  -7.320  0.00  0.00     0.065 A 
HETATM   11  C           1     -21.673  -4.686  -7.495  0.00  0.00     0.037 A 
HETATM   12  C           1     -22.346  -5.425  -6.521  0.00  0.00     0.010 A 
BRANCH  10  13
HETATM   13  O           1     -19.673  -3.650  -8.266  0.00  0.00    -0.361 OA
HETATM   14  H           1     -19.012  -3.094  -7.818  0.00  0.00     0.217 HD
ENDBRANCH  10  13
ENDBRANCH   6   7
ENDBRANCH   5   6
BRANCH   5  15
HETATM   15  N           1     -21.283  -8.824  -4.078  0.00  0.00    -0.066 N 
HETATM   16  H           1     -20.333  -9.209  -3.881  0.00  0.00     0.275 HD
HETATM   17  H           1     -22.006  -9.435  -3.634  0.00  0.00     0.275 HD
HETATM   18  H           1     -21.439  -8.793  -5.111  0.00  0.00     0.275 HD
ENDBRANCH   5  15
ENDBRANCH   4   5
BRANCH   3  19
HETATM   19  C           1     -22.371  -8.799  -0.070  0.00  0.00     0.186 C 
BRANCH  19  20
HETATM   20  C           1     -21.233  -9.278   0.797  0.00  0.00     0.196 C 
HETATM   21  O           1     -20.711 -10.394   0.583  0.00  0.00    -0.646 OA
HETATM   22  O           1     -20.812  -8.559   1.729  0.00  0.00    -0.646 OA
ENDBRANCH  19  20
BRANCH  19  23
HETATM   23  C           1     -23.537  -9.772   0.039  0.00  0.00     0.045 C 
BRANCH  23  24
HETATM   24  C           1     -23.478 -10.768  -1.111  0.00  0.00     0.105 C 
BRANCH  24  25
HETATM   25  C           1     -23.600 -12.172  -0.570  0.00  0.00     0.215 C 
HETATM   26  O           1     -24.118 -13.034  -1.238  0.00  0.00    -0.274 OA
HETATM   27  N           1     -23.124 -12.468   0.679  0.00  0.00    -0.370 N 
HETATM   28  H           1     -23.205 -13.409   1.043  0.00  0.00     0.159 HD
HETATM   29  H           1     -22.690 -11.745   1.240  0.00  0.00     0.159 HD
ENDBRANCH  24  25
ENDBRANCH  23  24
ENDBRANCH  19  23
ENDBRANCH   3  19
TORSDOF 10
ENDMDL
MODEL 9
REMARK VINA RESULT:      -6.1      5.331      8.469
REMARK  10 active torsions:
REMARK  status: ('A' for Active; 'I' for Inactive)
REMARK    1  A    between atoms: C_1  and  O_11 
REMARK    2  A    between atoms: C_2  and  C_3 
REMARK    3  A    between atoms: C_3  and  C_4 
REMARK    4  A    between atoms: C_3  and  N_25 
REMARK    5  A    between atoms: C_4  and  C_23 
REMARK       I    between atoms: C_6  and  N_17 
REMARK    6  A    between atoms: C_6  and  C_23 
REMARK    7  A    between atoms: C_9  and  C_10 
REMARK    8  A    between atoms: C_9  and  C_18 
REMARK    9  A    between atoms: C_10  and  C_27 
REMARK   10  A    between atoms: C_10  and  N_14 
REMARK       I    between atoms: N_25  and  C_27 
ROOT
HETATM    1  O           1     -20.750 -10.772  -4.744  0.00  0.00    -0.271 OA
HETATM    2  H           1     -18.977  -8.240  -5.278  0.00  0.00     0.163 HD
HETATM    3  N           1     -19.785  -8.773  -4.984  0.00  0.00    -0.345 N 
HETATM    4  C           1     -19.785 -10.137  -5.095  0.00  0.00     0.249 C 
ENDROOT
BRANCH   4   5
HETATM    5  C           1     -18.578 -10.848  -5.657  0.00  0.00     0.278 C 
BRANCH   5   6
HETATM    6  C           1     -17.352  -9.953  -5.519  0.00  0.00     0.081 C 
BRANCH   6   7
HETATM    7  C           1     -16.204 -10.759  -4.997  0.00  0.00    -0.056 A 
HETATM    8  C           1     -16.099 -11.018  -3.630  0.00  0.00     0.010 A 
HETATM    9  C           1     -15.029 -11.769  -3.142  0.00  0.00     0.037 A 
HETATM   10  C           1     -14.065 -12.261  -4.021  0.00  0.00     0.065 A 
HETATM   11  C           1     -14.169 -12.001  -5.388  0.00  0.00     0.037 A 
HETATM   12  C           1     -15.239 -11.250  -5.875  0.00  0.00     0.010 A 
BRANCH  10  13
HETATM   13  O           1     -13.025 -12.990  -3.548  0.00  0.00    -0.361 OA
HETATM   14  H           1     -13.195 -13.925  -3.756  0.00  0.00     0.217 HD
ENDBRANCH  10  13
ENDBRANCH   6   7
ENDBRANCH   5   6
BRANCH   5  15
HETATM   15  N           1     -18.810 -11.155  -7.107  0.00  0.00    -0.066 N 
HETATM   16  H           1     -18.425 -12.100  -7.329  0.00  0.00     0.275 HD
HETATM   17  H           1     -19.836 -11.142  -7.305  0.00  0.00     0.275 HD
HETATM   18  H           1     -18.331 -10.437  -7.697  0.00  0.00     0.275 HD
ENDBRANCH   5  15
ENDBRANCH   4   5
BRANCH   3  19
HETATM   19  C           1     -20.945  -8.090  -4.444  0.00  0.00     0.186 C 
BRANCH  19  20
HETATM   20  C           1     -21.355  -6.979  -5.380  0.00  0.00     0.196 C 
HETATM   21  O           1     -21.975  -5.988  -4.940  0.00  0.00    -0.646 OA
HETATM   22  O           1     -21.073  -7.052  -6.596  0.00  0.00    -0.646 OA
ENDBRANCH  19  20
BRANCH  19  23
HETATM   23  C           1     -20.600  -7.504  -3.081  0.00  0.00     0.045 C 
BRANCH  23  24
HETATM   24  C           1     -21.545  -8.071  -2.030  0.00  0.00     0.105 C 
BRANCH  24  25
HETATM   25  C           1     -22.288  -6.942  -1.358  0.00  0.00     0.215 C 
HETATM   26  O           1     -22.886  -7.142  -0.328  0.00  0.00    -0.274 OA
HETATM   27  N           1     -22.281  -5.692  -1.914  0.00  0.00    -0.370 N 
HETATM   28  H           1     -22.778  -4.934  -1.464  0.00  0.00     0.159 HD
HETATM   29  H           1     -21.779  -5.524  -2.778  0.00  0.00     0.159 HD
ENDBRANCH  24  25
ENDBRANCH  23  24
ENDBRANCH  19  23
ENDBRANCH   3  19
TORSDOF 10
ENDMDL
