MODEL 1
REMARK VINA RESULT:      -7.0      0.000      0.000
REMARK  10 active torsions:
REMARK  status: ('A' for Active; 'I' for Inactive)
REMARK    1  A    between atoms: C_2  and  C_3 
REMARK    2  A    between atoms: C_3  and  C_24 
REMARK    3  A    between atoms: C_3  and  N_5 
REMARK    4  A    between atoms: N_4  and  C_19 
REMARK       I    between atoms: N_5  and  C_16 
REMARK    5  A    between atoms: C_6  and  C_7 
REMARK    6  A    between atoms: C_6  and  C_24 
REMARK    7  A    between atoms: C_7  and  N_10 
REMARK       I    between atoms: N_10  and  C_15 
REMARK       I    between atoms: N_11  and  C_15 
REMARK    8  A    between atoms: C_16  and  C_19 
REMARK    9  A    between atoms: C_19  and  C_20 
REMARK   10  A    between atoms: C_20  and  C_27 
ROOT
HETATM    1  C           1     -22.907  -3.752  -9.225  0.00  0.00     0.185 C 
ENDROOT
BRANCH   1   2
HETATM    2  C           1     -24.359  -3.764  -9.639  0.00  0.00     0.196 C 
HETATM    3  O           1     -24.887  -4.825 -10.036  0.00  0.00    -0.646 OA
HETATM    4  O           1     -25.032  -2.712  -9.584  0.00  0.00    -0.646 OA
ENDBRANCH   1   2
BRANCH   1   5
HETATM    5  C           1     -22.036  -4.128 -10.416  0.00  0.00     0.038 C 
BRANCH   5   6
HETATM    6  C           1     -21.943  -2.947 -11.373  0.00  0.00     0.023 C 
BRANCH   6   7
HETATM    7  C           1     -22.619  -3.305 -12.691  0.00  0.00     0.138 C 
BRANCH   7   8
HETATM    8  N           1     -23.482  -2.194 -13.118  0.00  0.00    -0.227 N 
HETATM    9  H           1     -24.126  -1.734 -12.426  0.00  0.00     0.177 HD
HETATM   10  C           1     -23.450  -1.792 -14.317  0.00  0.00     0.665 C 
HETATM   11  N           1     -24.213  -0.810 -14.694  0.00  0.00    -0.235 N 
HETATM   12  N           1     -22.673  -2.346 -15.150  0.00  0.00    -0.235 N 
HETATM   13  H           1     -24.854  -0.352 -14.007  0.00  0.00     0.174 HD
HETATM   14  H           1     -24.186  -0.478 -15.685  0.00  0.00     0.174 HD
HETATM   15  H           1     -22.646  -2.013 -16.145  0.00  0.00     0.174 HD
HETATM   16  H           1     -22.057  -3.139 -14.845  0.00  0.00     0.174 HD
ENDBRANCH   7   8
ENDBRANCH   6   7
ENDBRANCH   5   6
ENDBRANCH   1   5
BRANCH   1  17
HETATM   17  N           1     -22.702  -4.708  -8.156  0.00  0.00    -0.345 N 
HETATM   18  H           1     -23.144  -5.617  -8.198  0.00  0.00     0.163 HD
HETATM   19  C           1     -21.907  -4.382  -7.089  0.00  0.00     0.249 C 
HETATM   20  O           1     -21.380  -3.297  -7.039  0.00  0.00    -0.271 OA
BRANCH  19  21
HETATM   21  C           1     -21.693  -5.378  -5.976  0.00  0.00     0.278 C 
BRANCH  21  22
HETATM   22  N           1     -23.019  -5.771  -5.395  0.00  0.00    -0.066 N 
HETATM   23  H           1     -23.374  -6.625  -5.882  0.00  0.00     0.275 HD
HETATM   24  H           1     -22.908  -5.972  -4.376  0.00  0.00     0.275 HD
HETATM   25  H           1     -23.701  -4.988  -5.523  0.00  0.00     0.275 HD
ENDBRANCH  21  22
BRANCH  21  26
HETATM   26  C           1     -20.993  -6.613  -6.526  0.00  0.00     0.021 C 
HETATM   27  C           1     -19.497  -6.346  -6.628  0.00  0.00     0.012 C 
BRANCH  26  28
HETATM   28  C           1     -21.235  -7.792  -5.593  0.00  0.00     0.002 C 
HETATM   29  C           1     -19.965  -8.086  -4.805  0.00  0.00     0.005 C 
ENDBRANCH  26  28
ENDBRANCH  21  26
ENDBRANCH  19  21
ENDBRANCH   1  17
TORSDOF 10
ENDMDL
MODEL 2
REMARK VINA RESULT:      -6.7      3.258      4.931
REMARK  10 active torsions:
REMARK  status: ('A' for Active; 'I' for Inactive)
REMARK    1  A    between atoms: C_2  and  C_3 
REMARK    2  A    between atoms: C_3  and  C_24 
REMARK    3  A    between atoms: C_3  and  N_5 
REMARK    4  A    between atoms: N_4  and  C_19 
REMARK       I    between atoms: N_5  and  C_16 
REMARK    5  A    between atoms: C_6  and  C_7 
REMARK    6  A    between atoms: C_6  and  C_24 
REMARK    7  A    between atoms: C_7  and  N_10 
REMARK       I    between atoms: N_10  and  C_15 
REMARK       I    between atoms: N_11  and  C_15 
REMARK    8  A    between atoms: C_16  and  C_19 
REMARK    9  A    between atoms: C_19  and  C_20 
REMARK   10  A    between atoms: C_20  and  C_27 
ROOT
HETATM    1  C           1     -21.182  -5.897  -6.238  0.00  0.00     0.185 C 
ENDROOT
BRANCH   1   2
HETATM    2  C           1     -19.793  -5.885  -6.828  0.00  0.00     0.196 C 
HETATM    3  O           1     -19.199  -6.962  -7.049  0.00  0.00    -0.646 OA
HETATM    4  O           1     -19.237  -4.798  -7.096  0.00  0.00    -0.646 OA
ENDBRANCH   1   2
BRANCH   1   5
HETATM    5  C           1     -21.992  -4.745  -6.819  0.00  0.00     0.038 C 
BRANCH   5   6
HETATM    6  C           1     -22.149  -4.940  -8.321  0.00  0.00     0.023 C 
BRANCH   6   7
HETATM    7  C           1     -22.603  -3.632  -8.959  0.00  0.00     0.138 C 
BRANCH   7   8
HETATM    8  N           1     -24.051  -3.468  -8.765  0.00  0.00    -0.227 N 
HETATM    9  H           1     -24.435  -3.294  -7.803  0.00  0.00     0.177 HD
HETATM   10  C           1     -24.834  -3.536  -9.757  0.00  0.00     0.665 C 
HETATM   11  N           1     -26.114  -3.391  -9.585  0.00  0.00    -0.235 N 
HETATM   12  N           1     -24.370  -3.746 -10.917  0.00  0.00    -0.235 N 
HETATM   13  H           1     -26.497  -3.218  -8.629  0.00  0.00     0.174 HD
HETATM   14  H           1     -26.760  -3.447 -10.405  0.00  0.00     0.174 HD
HETATM   15  H           1     -25.020  -3.803 -11.739  0.00  0.00     0.174 HD
HETATM   16  H           1     -23.336  -3.864 -11.055  0.00  0.00     0.174 HD
ENDBRANCH   7   8
ENDBRANCH   6   7
ENDBRANCH   5   6
ENDBRANCH   1   5
BRANCH   1  17
HETATM   17  N           1     -21.096  -5.748  -4.798  0.00  0.00    -0.345 N 
HETATM   18  H           1     -20.771  -4.878  -4.398  0.00  0.00     0.163 HD
HETATM   19  C           1     -21.457  -6.786  -3.980  0.00  0.00     0.249 C 
HETATM   20  O           1     -21.845  -7.825  -4.458  0.00  0.00    -0.271 OA
BRANCH  19  21
HETATM   21  C           1     -21.368  -6.631  -2.482  0.00  0.00     0.278 C 
BRANCH  21  22
HETATM   22  N           1     -22.384  -5.629  -2.021  0.00  0.00    -0.066 N 
HETATM   23  H           1     -21.969  -5.031  -1.271  0.00  0.00     0.275 HD
HETATM   24  H           1     -22.670  -5.027  -2.827  0.00  0.00     0.275 HD
HETATM   25  H           1     -23.221  -6.129  -1.645  0.00  0.00     0.275 HD
ENDBRANCH  21  22
BRANCH  21  26
HETATM   26  C           1     -21.640  -7.973  -1.816  0.00  0.00     0.021 C 
HETATM   27  C           1     -20.319  -8.661  -1.498  0.00  0.00     0.012 C 
BRANCH  26  28
HETATM   28  C           1     -22.419  -7.751  -0.526  0.00  0.00     0.002 C 
HETATM   29  C           1     -21.707  -8.451   0.625  0.00  0.00     0.005 C 
ENDBRANCH  26  28
ENDBRANCH  21  26
ENDBRANCH  19  21
ENDBRANCH   1  17
TORSDOF 10
ENDMDL
MODEL 3
REMARK VINA RESULT:      -6.6      2.837      4.496
REMARK  10 active torsions:
REMARK  status: ('A' for Active; 'I' for Inactive)
REMARK    1  A    between atoms: C_2  and  C_3 
REMARK    2  A    between atoms: C_3  and  C_24 
REMARK    3  A    between atoms: C_3  and  N_5 
REMARK    4  A    between atoms: N_4  and  C_19 
REMARK       I    between atoms: N_5  and  C_16 
REMARK    5  A    between atoms: C_6  and  C_7 
REMARK    6  A    between atoms: C_6  and  C_24 
REMARK    7  A    between atoms: C_7  and  N_10 
REMARK       I    between atoms: N_10  and  C_15 
REMARK       I    between atoms: N_11  and  C_15 
REMARK    8  A    between atoms: C_16  and  C_19 
REMARK    9  A    between atoms: C_19  and  C_20 
REMARK   10  A    between atoms: C_20  and  C_27 
ROOT
HETATM    1  C           1     -21.389  -5.553  -6.544  0.00  0.00     0.185 C 
ENDROOT
BRANCH   1   2
HETATM    2  C           1     -20.079  -5.811  -7.248  0.00  0.00     0.196 C 
HETATM    3  O           1     -19.448  -6.867  -7.028  0.00  0.00    -0.646 OA
HETATM    4  O           1     -19.626  -4.968  -8.053  0.00  0.00    -0.646 OA
ENDBRANCH   1   2
BRANCH   1   5
HETATM    5  C           1     -21.955  -4.214  -6.998  0.00  0.00     0.038 C 
BRANCH   5   6
HETATM    6  C           1     -23.135  -4.450  -7.931  0.00  0.00     0.023 C 
BRANCH   6   7
HETATM    7  C           1     -22.994  -3.566  -9.164  0.00  0.00     0.138 C 
BRANCH   7   8
HETATM    8  N           1     -21.702  -3.831  -9.812  0.00  0.00    -0.227 N 
HETATM    9  H           1     -20.948  -4.342  -9.290  0.00  0.00     0.177 HD
HETATM   10  C           1     -21.499  -3.443 -11.000  0.00  0.00     0.665 C 
HETATM   11  N           1     -20.356  -3.677 -11.574  0.00  0.00    -0.235 N 
HETATM   12  N           1     -22.409  -2.826 -11.629  0.00  0.00    -0.235 N 
HETATM   13  H           1     -19.606  -4.186 -11.054  0.00  0.00     0.174 HD
HETATM   14  H           1     -20.189  -3.356 -12.554  0.00  0.00     0.174 HD
HETATM   15  H           1     -22.240  -2.504 -12.614  0.00  0.00     0.174 HD
HETATM   16  H           1     -23.332  -2.637 -11.166  0.00  0.00     0.174 HD
ENDBRANCH   7   8
ENDBRANCH   6   7
ENDBRANCH   5   6
ENDBRANCH   1   5
BRANCH   1  17
HETATM   17  N           1     -21.169  -5.523  -5.111  0.00  0.00    -0.345 N 
HETATM   18  H           1     -20.720  -4.724  -4.685  0.00  0.00     0.163 HD
HETATM   19  C           1     -21.571  -6.578  -4.336  0.00  0.00     0.249 C 
HETATM   20  O           1     -22.107  -7.533  -4.845  0.00  0.00    -0.271 OA
BRANCH  19  21
HETATM   21  C           1     -21.342  -6.548  -2.844  0.00  0.00     0.278 C 
BRANCH  21  22
HETATM   22  N           1     -22.399  -5.705  -2.194  0.00  0.00    -0.066 N 
HETATM   23  H           1     -22.137  -4.696  -2.270  0.00  0.00     0.275 HD
HETATM   24  H           1     -23.314  -5.863  -2.672  0.00  0.00     0.275 HD
HETATM   25  H           1     -22.482  -5.968  -1.185  0.00  0.00     0.275 HD
ENDBRANCH  21  22
BRANCH  21  26
HETATM   26  C           1     -21.411  -7.964  -2.291  0.00  0.00     0.021 C 
HETATM   27  C           1     -19.999  -8.493  -2.072  0.00  0.00     0.012 C 
BRANCH  26  28
HETATM   28  C           1     -22.159  -7.956  -0.965  0.00  0.00     0.002 C 
HETATM   29  C           1     -21.245  -8.474   0.139  0.00  0.00     0.005 C 
ENDBRANCH  26  28
ENDBRANCH  21  26
ENDBRANCH  19  21
ENDBRANCH   1  17
TORSDOF 10
ENDMDL
MODEL 4
REMARK VINA RESULT:      -6.3      2.183      2.919
REMARK  10 active torsions:
REMARK  status: ('A' for Active; 'I' for Inactive)
REMARK    1  A    between atoms: C_2  and  C_3 
REMARK    2  A    between atoms: C_3  and  C_24 
REMARK    3  A    between atoms: C_3  and  N_5 
REMARK    4  A    between atoms: N_4  and  C_19 
REMARK       I    between atoms: N_5  and  C_16 
REMARK    5  A    between atoms: C_6  and  C_7 
REMARK    6  A    between atoms: C_6  and  C_24 
REMARK    7  A    between atoms: C_7  and  N_10 
REMARK       I    between atoms: N_10  and  C_15 
REMARK       I    between atoms: N_11  and  C_15 
REMARK    8  A    between atoms: C_16  and  C_19 
REMARK    9  A    between atoms: C_19  and  C_20 
REMARK   10  A    between atoms: C_20  and  C_27 
ROOT
HETATM    1  C           1     -21.719  -4.740  -8.709  0.00  0.00     0.185 C 
ENDROOT
BRANCH   1   2
HETATM    2  C           1     -20.479  -4.199  -9.379  0.00  0.00     0.196 C 
HETATM    3  O           1     -20.231  -4.496 -10.567  0.00  0.00    -0.646 OA
HETATM    4  O           1     -19.701  -3.455  -8.744  0.00  0.00    -0.646 OA
ENDBRANCH   1   2
BRANCH   1   5
HETATM    5  C           1     -22.895  -3.814  -8.990  0.00  0.00     0.038 C 
BRANCH   5   6
HETATM    6  C           1     -24.007  -4.596  -9.675  0.00  0.00     0.023 C 
BRANCH   6   7
HETATM    7  C           1     -23.663  -4.785 -11.148  0.00  0.00     0.138 C 
BRANCH   7   8
HETATM    8  N           1     -24.080  -3.596 -11.905  0.00  0.00    -0.227 N 
HETATM    9  H           1     -25.053  -3.215 -11.792  0.00  0.00     0.177 HD
HETATM   10  C           1     -23.267  -3.031 -12.694  0.00  0.00     0.665 C 
HETATM   11  N           1     -23.636  -1.979 -13.364  0.00  0.00    -0.235 N 
HETATM   12  N           1     -22.095  -3.489 -12.831  0.00  0.00    -0.235 N 
HETATM   13  H           1     -24.603  -1.601 -13.251  0.00  0.00     0.174 HD
HETATM   14  H           1     -22.965  -1.513 -14.015  0.00  0.00     0.174 HD
HETATM   15  H           1     -21.421  -3.021 -13.485  0.00  0.00     0.174 HD
HETATM   16  H           1     -21.797  -4.339 -12.290  0.00  0.00     0.174 HD
ENDBRANCH   7   8
ENDBRANCH   6   7
ENDBRANCH   5   6
ENDBRANCH   1   5
BRANCH   1  17
HETATM   17  N           1     -21.499  -4.820  -7.278  0.00  0.00    -0.345 N 
HETATM   18  H           1     -21.972  -4.176  -6.657  0.00  0.00     0.163 HD
HETATM   19  C           1     -20.651  -5.767  -6.768  0.00  0.00     0.249 C 
HETATM   20  O           1     -20.086  -6.534  -7.509  0.00  0.00    -0.271 OA
BRANCH  19  21
HETATM   21  C           1     -20.421  -5.849  -5.279  0.00  0.00     0.278 C 
BRANCH  21  22
HETATM   22  N           1     -20.103  -4.484  -4.745  0.00  0.00    -0.066 N 
HETATM   23  H           1     -20.120  -4.504  -3.701  0.00  0.00     0.275 HD
HETATM   24  H           1     -19.153  -4.196  -5.072  0.00  0.00     0.275 HD
HETATM   25  H           1     -20.813  -3.800  -5.093  0.00  0.00     0.275 HD
ENDBRANCH  21  22
BRANCH  21  26
HETATM   26  C           1     -21.677  -6.379  -4.600  0.00  0.00     0.021 C 
HETATM   27  C           1     -21.804  -7.874  -4.862  0.00  0.00     0.012 C 
BRANCH  26  28
HETATM   28  C           1     -21.586  -6.134  -3.100  0.00  0.00     0.002 C 
HETATM   29  C           1     -21.468  -7.467  -2.372  0.00  0.00     0.005 C 
ENDBRANCH  26  28
ENDBRANCH  21  26
ENDBRANCH  19  21
ENDBRANCH   1  17
TORSDOF 10
ENDMDL
MODEL 5
REMARK VINA RESULT:      -6.3      3.639      9.131
REMARK  10 active torsions:
REMARK  status: ('A' for Active; 'I' for Inactive)
REMARK    1  A    between atoms: C_2  and  C_3 
REMARK    2  A    between atoms: C_3  and  C_24 
REMARK    3  A    between atoms: C_3  and  N_5 
REMARK    4  A    between atoms: N_4  and  C_19 
REMARK       I    between atoms: N_5  and  C_16 
REMARK    5  A    between atoms: C_6  and  C_7 
REMARK    6  A    between atoms: C_6  and  C_24 
REMARK    7  A    between atoms: C_7  and  N_10 
REMARK       I    between atoms: N_10  and  C_15 
REMARK       I    between atoms: N_11  and  C_15 
REMARK    8  A    between atoms: C_16  and  C_19 
REMARK    9  A    between atoms: C_19  and  C_20 
REMARK   10  A    between atoms: C_20  and  C_27 
ROOT
HETATM    1  C           1     -20.926  -6.612  -4.813  0.00  0.00     0.185 C 
ENDROOT
BRANCH   1   2
HETATM    2  C           1     -20.130  -7.893  -4.862  0.00  0.00     0.196 C 
HETATM    3  O           1     -20.122  -8.661  -3.876  0.00  0.00    -0.646 OA
HETATM    4  O           1     -19.479  -8.186  -5.888  0.00  0.00    -0.646 OA
ENDBRANCH   1   2
BRANCH   1   5
HETATM    5  C           1     -22.002  -6.721  -3.741  0.00  0.00     0.038 C 
BRANCH   5   6
HETATM    6  C           1     -21.545  -5.988  -2.486  0.00  0.00     0.023 C 
BRANCH   6   7
HETATM    7  C           1     -22.277  -6.552  -1.274  0.00  0.00     0.138 C 
BRANCH   7   8
HETATM    8  N           1     -22.021  -7.996  -1.174  0.00  0.00    -0.227 N 
HETATM    9  H           1     -21.353  -8.458  -1.839  0.00  0.00     0.177 HD
HETATM   10  C           1     -22.607  -8.682  -0.286  0.00  0.00     0.665 C 
HETATM   11  N           1     -22.381  -9.960  -0.197  0.00  0.00    -0.235 N 
HETATM   12  N           1     -23.412  -8.125   0.517  0.00  0.00    -0.235 N 
HETATM   13  H           1     -21.716 -10.419  -0.859  0.00  0.00     0.174 HD
HETATM   14  H           1     -22.864 -10.526   0.536  0.00  0.00     0.174 HD
HETATM   15  H           1     -23.898  -8.694   1.253  0.00  0.00     0.174 HD
HETATM   16  H           1     -23.595  -7.093   0.445  0.00  0.00     0.174 HD
ENDBRANCH   7   8
ENDBRANCH   6   7
ENDBRANCH   5   6
ENDBRANCH   1   5
BRANCH   1  17
HETATM   17  N           1     -21.551  -6.383  -6.101  0.00  0.00    -0.345 N 
HETATM   18  H           1     -22.005  -7.145  -6.586  0.00  0.00     0.163 HD
HETATM   19  C           1     -21.527  -5.133  -6.661  0.00  0.00     0.249 C 
HETATM   20  O           1     -20.984  -4.222  -6.082  0.00  0.00    -0.271 OA
BRANCH  19  21
HETATM   21  C           1     -22.176  -4.894  -8.002  0.00  0.00     0.278 C 
BRANCH  21  22
HETATM   22  N           1     -23.458  -4.140  -7.808  0.00  0.00    -0.066 N 
HETATM   23  H           1     -23.884  -4.404  -6.891  0.00  0.00     0.275 HD
HETATM   24  H           1     -23.263  -3.113  -7.819  0.00  0.00     0.275 HD
HETATM   25  H           1     -24.121  -4.377  -8.582  0.00  0.00     0.275 HD
ENDBRANCH  21  22
BRANCH  21  26
HETATM   26  C           1     -21.238  -4.083  -8.884  0.00  0.00     0.021 C 
HETATM   27  C           1     -19.957  -4.871  -9.123  0.00  0.00     0.012 C 
BRANCH  26  28
HETATM   28  C           1     -21.914  -3.798 -10.218  0.00  0.00     0.002 C 
HETATM   29  C           1     -20.874  -3.319 -11.224  0.00  0.00     0.005 C 
ENDBRANCH  26  28
ENDBRANCH  21  26
ENDBRANCH  19  21
ENDBRANCH   1  17
TORSDOF 10
ENDMDL
MODEL 6
REMARK VINA RESULT:      -6.0      4.688      7.138
REMARK  10 active torsions:
REMARK  status: ('A' for Active; 'I' for Inactive)
REMARK    1  A    between atoms: C_2  and  C_3 
REMARK    2  A    between atoms: C_3  and  C_24 
REMARK    3  A    between atoms: C_3  and  N_5 
REMARK    4  A    between atoms: N_4  and  C_19 
REMARK       I    between atoms: N_5  and  C_16 
REMARK    5  A    between atoms: C_6  and  C_7 
REMARK    6  A    between atoms: C_6  and  C_24 
REMARK    7  A    between atoms: C_7  and  N_10 
REMARK       I    between atoms: N_10  and  C_15 
REMARK       I    between atoms: N_11  and  C_15 
REMARK    8  A    between atoms: C_16  and  C_19 
REMARK    9  A    between atoms: C_19  and  C_20 
REMARK   10  A    between atoms: C_20  and  C_27 
ROOT
HETATM    1  C           1     -20.787  -8.390  -4.698  0.00  0.00     0.185 C 
ENDROOT
BRANCH   1   2
HETATM    2  C           1     -19.376  -8.871  -4.930  0.00  0.00     0.196 C 
HETATM    3  O           1     -18.560  -8.894  -3.984  0.00  0.00    -0.646 OA
HETATM    4  O           1     -19.023  -9.245  -6.070  0.00  0.00    -0.646 OA
ENDBRANCH   1   2
BRANCH   1   5
HETATM    5  C           1     -21.157  -7.364  -5.762  0.00  0.00     0.038 C 
BRANCH   5   6
HETATM    6  C           1     -20.573  -6.009  -5.387  0.00  0.00     0.023 C 
BRANCH   6   7
HETATM    7  C           1     -20.746  -5.041  -6.551  0.00  0.00     0.138 C 
BRANCH   7   8
HETATM    8  N           1     -22.178  -4.830  -6.806  0.00  0.00    -0.227 N 
HETATM    9  H           1     -22.890  -5.162  -6.108  0.00  0.00     0.177 HD
HETATM   10  C           1     -22.554  -4.248  -7.865  0.00  0.00     0.665 C 
HETATM   11  N           1     -23.820  -4.062  -8.091  0.00  0.00    -0.235 N 
HETATM   12  N           1     -21.695  -3.848  -8.706  0.00  0.00    -0.235 N 
HETATM   13  H           1     -24.528  -4.392  -7.397  0.00  0.00     0.174 HD
HETATM   14  H           1     -24.129  -3.581  -8.966  0.00  0.00     0.174 HD
HETATM   15  H           1     -22.007  -3.366  -9.585  0.00  0.00     0.174 HD
HETATM   16  H           1     -20.672  -3.999  -8.524  0.00  0.00     0.174 HD
ENDBRANCH   7   8
ENDBRANCH   6   7
ENDBRANCH   5   6
ENDBRANCH   1   5
BRANCH   1  17
HETATM   17  N           1     -20.880  -7.780  -3.386  0.00  0.00    -0.345 N 
HETATM   18  H           1     -20.607  -6.814  -3.257  0.00  0.00     0.163 HD
HETATM   19  C           1     -21.338  -8.510  -2.323  0.00  0.00     0.249 C 
HETATM   20  O           1     -21.664  -9.663  -2.477  0.00  0.00    -0.271 OA
BRANCH  19  21
HETATM   21  C           1     -21.435  -7.876  -0.957  0.00  0.00     0.278 C 
BRANCH  21  22
HETATM   22  N           1     -22.494  -6.814  -0.974  0.00  0.00    -0.066 N 
HETATM   23  H           1     -22.044  -5.873  -1.046  0.00  0.00     0.275 HD
HETATM   24  H           1     -23.123  -6.962  -1.794  0.00  0.00     0.275 HD
HETATM   25  H           1     -23.053  -6.866  -0.091  0.00  0.00     0.275 HD
ENDBRANCH  21  22
BRANCH  21  26
HETATM   26  C           1     -21.797  -8.938   0.072  0.00  0.00     0.021 C 
HETATM   27  C           1     -21.086  -8.635   1.385  0.00  0.00     0.012 C 
BRANCH  26  28
HETATM   28  C           1     -23.302  -8.934   0.299  0.00  0.00     0.002 C 
HETATM   29  C           1     -23.862 -10.323   0.018  0.00  0.00     0.005 C 
ENDBRANCH  26  28
ENDBRANCH  21  26
ENDBRANCH  19  21
ENDBRANCH   1  17
TORSDOF 10
ENDMDL
MODEL 7
REMARK VINA RESULT:      -5.8      4.553      7.444
REMARK  10 active torsions:
REMARK  status: ('A' for Active; 'I' for Inactive)
REMARK    1  A    between atoms: C_2  and  C_3 
REMARK    2  A    between atoms: C_3  and  C_24 
REMARK    3  A    between atoms: C_3  and  N_5 
REMARK    4  A    between atoms: N_4  and  C_19 
REMARK       I    between atoms: N_5  and  C_16 
REMARK    5  A    between atoms: C_6  and  C_7 
REMARK    6  A    between atoms: C_6  and  C_24 
REMARK    7  A    between atoms: C_7  and  N_10 
REMARK       I    between atoms: N_10  and  C_15 
REMARK       I    between atoms: N_11  and  C_15 
REMARK    8  A    between atoms: C_16  and  C_19 
REMARK    9  A    between atoms: C_19  and  C_20 
REMARK   10  A    between atoms: C_20  and  C_27 
ROOT
HETATM    1  C           1     -21.001  -8.337  -4.272  0.00  0.00     0.185 C 
ENDROOT
BRANCH   1   2
HETATM    2  C           1     -19.589  -8.578  -4.746  0.00  0.00     0.196 C 
HETATM    3  O           1     -19.296  -8.410  -5.949  0.00  0.00    -0.646 OA
HETATM    4  O           1     -18.712  -8.946  -3.934  0.00  0.00    -0.646 OA
ENDBRANCH   1   2
BRANCH   1   5
HETATM    5  C           1     -21.240  -6.840  -4.122  0.00  0.00     0.038 C 
BRANCH   5   6
HETATM    6  C           1     -22.370  -6.409  -5.047  0.00  0.00     0.023 C 
BRANCH   6   7
HETATM    7  C           1     -21.826  -5.461  -6.109  0.00  0.00     0.138 C 
BRANCH   7   8
HETATM    8  N           1     -22.934  -4.694  -6.696  0.00  0.00    -0.227 N 
HETATM    9  H           1     -23.752  -4.412  -6.099  0.00  0.00     0.177 HD
HETATM   10  C           1     -22.903  -4.373  -7.920  0.00  0.00     0.665 C 
HETATM   11  N           1     -23.883  -3.694  -8.439  0.00  0.00    -0.235 N 
HETATM   12  N           1     -21.917  -4.712  -8.639  0.00  0.00    -0.235 N 
HETATM   13  H           1     -24.696  -3.414  -7.846  0.00  0.00     0.174 HD
HETATM   14  H           1     -23.857  -3.430  -9.449  0.00  0.00     0.174 HD
HETATM   15  H           1     -21.892  -4.446  -9.654  0.00  0.00     0.174 HD
HETATM   16  H           1     -21.126  -5.260  -8.219  0.00  0.00     0.174 HD
ENDBRANCH   7   8
ENDBRANCH   6   7
ENDBRANCH   5   6
ENDBRANCH   1   5
BRANCH   1  17
HETATM   17  N           1     -21.199  -8.987  -2.991  0.00  0.00    -0.345 N 
HETATM   18  H           1     -20.898  -8.530  -2.140  0.00  0.00     0.163 HD
HETATM   19  C           1     -21.794 -10.219  -2.934  0.00  0.00     0.249 C 
HETATM   20  O           1     -22.153 -10.764  -3.950  0.00  0.00    -0.271 OA
BRANCH  19  21
HETATM   21  C           1     -22.000 -10.896  -1.601  0.00  0.00     0.278 C 
BRANCH  21  22
HETATM   22  N           1     -20.698 -10.943  -0.859  0.00  0.00    -0.066 N 
HETATM   23  H           1     -20.005 -11.506  -1.403  0.00  0.00     0.275 HD
HETATM   24  H           1     -20.333  -9.972  -0.732  0.00  0.00     0.275 HD
HETATM   25  H           1     -20.846 -11.385   0.077  0.00  0.00     0.275 HD
ENDBRANCH  21  22
BRANCH  21  26
HETATM   26  C           1     -23.021 -10.114  -0.786  0.00  0.00     0.021 C 
HETATM   27  C           1     -23.999 -11.082  -0.134  0.00  0.00     0.012 C 
BRANCH  26  28
HETATM   28  C           1     -22.304  -9.314   0.293  0.00  0.00     0.002 C 
HETATM   29  C           1     -23.066  -8.021   0.558  0.00  0.00     0.005 C 
ENDBRANCH  26  28
ENDBRANCH  21  26
ENDBRANCH  19  21
ENDBRANCH   1  17
TORSDOF 10
ENDMDL
MODEL 8
REMARK VINA RESULT:      -5.7      6.800     10.154
REMARK  10 active torsions:
REMARK  status: ('A' for Active; 'I' for Inactive)
REMARK    1  A    between atoms: C_2  and  C_3 
REMARK    2  A    between atoms: C_3  and  C_24 
REMARK    3  A    between atoms: C_3  and  N_5 
REMARK    4  A    between atoms: N_4  and  C_19 
REMARK       I    between atoms: N_5  and  C_16 
REMARK    5  A    between atoms: C_6  and  C_7 
REMARK    6  A    between atoms: C_6  and  C_24 
REMARK    7  A    between atoms: C_7  and  N_10 
REMARK       I    between atoms: N_10  and  C_15 
REMARK       I    between atoms: N_11  and  C_15 
REMARK    8  A    between atoms: C_16  and  C_19 
REMARK    9  A    between atoms: C_19  and  C_20 
REMARK   10  A    between atoms: C_20  and  C_27 
ROOT
HETATM    1  C           1     -21.160  -8.378  -0.502  0.00  0.00     0.185 C 
ENDROOT
BRANCH   1   2
HETATM    2  C           1     -22.448  -7.595  -0.416  0.00  0.00     0.196 C 
HETATM    3  O           1     -22.649  -6.636  -1.191  0.00  0.00    -0.646 OA
HETATM    4  O           1     -23.313  -7.907   0.431  0.00  0.00    -0.646 OA
ENDBRANCH   1   2
BRANCH   1   5
HETATM    5  C           1     -20.305  -7.828  -1.635  0.00  0.00     0.038 C 
BRANCH   5   6
HETATM    6  C           1     -19.947  -8.954  -2.596  0.00  0.00     0.023 C 
BRANCH   6   7
HETATM    7  C           1     -20.296  -8.539  -4.020  0.00  0.00     0.138 C 
BRANCH   7   8
HETATM    8  N           1     -21.434  -7.609  -3.995  0.00  0.00    -0.227 N 
HETATM    9  H           1     -21.962  -7.449  -3.101  0.00  0.00     0.177 HD
HETATM   10  C           1     -21.778  -7.001  -5.050  0.00  0.00     0.665 C 
HETATM   11  N           1     -22.785  -6.178  -5.028  0.00  0.00    -0.235 N 
HETATM   12  N           1     -21.142  -7.193  -6.128  0.00  0.00    -0.235 N 
HETATM   13  H           1     -23.310  -6.019  -4.139  0.00  0.00     0.174 HD
HETATM   14  H           1     -23.068  -5.676  -5.900  0.00  0.00     0.174 HD
HETATM   15  H           1     -21.427  -6.689  -7.003  0.00  0.00     0.174 HD
HETATM   16  H           1     -20.329  -7.858  -6.146  0.00  0.00     0.174 HD
ENDBRANCH   7   8
ENDBRANCH   6   7
ENDBRANCH   5   6
ENDBRANCH   1   5
BRANCH   1  17
HETATM   17  N           1     -21.459  -9.773  -0.756  0.00  0.00    -0.345 N 
HETATM   18  H           1     -21.874 -10.050  -1.636  0.00  0.00     0.163 HD
HETATM   19  C           1     -21.178 -10.718   0.195  0.00  0.00     0.249 C 
HETATM   20  O           1     -20.683 -10.388   1.246  0.00  0.00    -0.271 OA
BRANCH  19  21
HETATM   21  C           1     -21.490 -12.170  -0.069  0.00  0.00     0.278 C 
BRANCH  21  22
HETATM   22  N           1     -20.315 -13.014   0.330  0.00  0.00    -0.066 N 
HETATM   23  H           1     -19.433 -12.469   0.196  0.00  0.00     0.275 HD
HETATM   24  H           1     -20.407 -13.286   1.335  0.00  0.00     0.275 HD
HETATM   25  H           1     -20.287 -13.874  -0.264  0.00  0.00     0.275 HD
ENDBRANCH  21  22
BRANCH  21  26
HETATM   26  C           1     -22.711 -12.584   0.742  0.00  0.00     0.021 C 
HETATM   27  C           1     -23.774 -13.148  -0.192  0.00  0.00     0.012 C 
BRANCH  26  28
HETATM   28  C           1     -22.311 -13.648   1.755  0.00  0.00     0.002 C 
HETATM   29  C           1     -23.554 -14.163   2.469  0.00  0.00     0.005 C 
ENDBRANCH  26  28
ENDBRANCH  21  26
ENDBRANCH  19  21
ENDBRANCH   1  17
TORSDOF 10
ENDMDL
MODEL 9
REMARK VINA RESULT:      -5.6      6.517      9.277
REMARK  10 active torsions:
REMARK  status: ('A' for Active; 'I' for Inactive)
REMARK    1  A    between atoms: C_2  and  C_3 
REMARK    2  A    between atoms: C_3  and  C_24 
REMARK    3  A    between atoms: C_3  and  N_5 
REMARK    4  A    between atoms: N_4  and  C_19 
REMARK       I    between atoms: N_5  and  C_16 
REMARK    5  A    between atoms: C_6  and  C_7 
REMARK    6  A    between atoms: C_6  and  C_24 
REMARK    7  A    between atoms: C_7  and  N_10 
REMARK       I    between atoms: N_10  and  C_15 
REMARK       I    between atoms: N_11  and  C_15 
REMARK    8  A    between atoms: C_16  and  C_19 
REMARK    9  A    between atoms: C_19  and  C_20 
REMARK   10  A    between atoms: C_20  and  C_27 
ROOT
HETATM    1  C           1     -21.535  -6.985  -4.160  0.00  0.00     0.185 C 
ENDROOT
BRANCH   1   2
HETATM    2  C           1     -21.673  -5.935  -5.236  0.00  0.00     0.196 C 
HETATM    3  O           1     -22.804  -5.639  -5.678  0.00  0.00    -0.646 OA
HETATM    4  O           1     -20.656  -5.362  -5.683  0.00  0.00    -0.646 OA
ENDBRANCH   1   2
BRANCH   1   5
HETATM    5  C           1     -21.191  -6.315  -2.836  0.00  0.00     0.038 C 
BRANCH   5   6
HETATM    6  C           1     -22.401  -6.362  -1.912  0.00  0.00     0.023 C 
BRANCH   6   7
HETATM    7  C           1     -22.089  -7.245  -0.710  0.00  0.00     0.138 C 
BRANCH   7   8
HETATM    8  N           1     -21.872  -8.628  -1.159  0.00  0.00    -0.227 N 
HETATM    9  H           1     -21.122  -8.839  -1.864  0.00  0.00     0.177 HD
HETATM   10  C           1     -22.587  -9.563  -0.697  0.00  0.00     0.665 C 
HETATM   11  N           1     -22.395 -10.786  -1.094  0.00  0.00    -0.235 N 
HETATM   12  N           1     -23.491  -9.309   0.153  0.00  0.00    -0.235 N 
HETATM   13  H           1     -21.649 -10.996  -1.795  0.00  0.00     0.174 HD
HETATM   14  H           1     -22.986 -11.558  -0.712  0.00  0.00     0.174 HD
HETATM   15  H           1     -24.085 -10.085   0.537  0.00  0.00     0.174 HD
HETATM   16  H           1     -23.647  -8.321   0.474  0.00  0.00     0.174 HD
ENDBRANCH   7   8
ENDBRANCH   6   7
ENDBRANCH   5   6
ENDBRANCH   1   5
BRANCH   1  17
HETATM   17  N           1     -20.480  -7.911  -4.521  0.00  0.00    -0.345 N 
HETATM   18  H           1     -19.583  -7.559  -4.831  0.00  0.00     0.163 HD
HETATM   19  C           1     -20.696  -9.261  -4.442  0.00  0.00     0.249 C 
HETATM   20  O           1     -21.767  -9.680  -4.073  0.00  0.00    -0.271 OA
BRANCH  19  21
HETATM   21  C           1     -19.597 -10.224  -4.818  0.00  0.00     0.278 C 
BRANCH  21  22
HETATM   22  N           1     -19.894 -10.820  -6.162  0.00  0.00    -0.066 N 
HETATM   23  H           1     -19.399 -10.274  -6.903  0.00  0.00     0.275 HD
HETATM   24  H           1     -19.566 -11.812  -6.183  0.00  0.00     0.275 HD
HETATM   25  H           1     -20.925 -10.790  -6.337  0.00  0.00     0.275 HD
ENDBRANCH  21  22
BRANCH  21  26
HETATM   26  C           1     -18.268  -9.483  -4.873  0.00  0.00     0.021 C 
HETATM   27  C           1     -17.500  -9.721  -3.580  0.00  0.00     0.012 C 
BRANCH  26  28
HETATM   28  C           1     -17.450  -9.995  -6.051  0.00  0.00     0.002 C 
HETATM   29  C           1     -15.968  -9.953  -5.697  0.00  0.00     0.005 C 
ENDBRANCH  26  28
ENDBRANCH  21  26
ENDBRANCH  19  21
ENDBRANCH   1  17
TORSDOF 10
ENDMDL
