MODEL 1
REMARK VINA RESULT:      -7.7      0.000      0.000
REMARK  11 active torsions:
REMARK  status: ('A' for Active; 'I' for Inactive)
REMARK    1  A    between atoms: S_1  and  C_2 
REMARK    2  A    between atoms: C_2  and  C_3 
REMARK    3  A    between atoms: C_3  and  C_4 
REMARK    4  A    between atoms: C_3  and  N_7 
REMARK       I    between atoms: N_7  and  C_8 
REMARK    5  A    between atoms: C_8  and  C_9 
REMARK    6  A    between atoms: C_9  and  C_10 
REMARK    7  A    between atoms: C_9  and  N_22 
REMARK    8  A    between atoms: C_10  and  C_11 
REMARK    9  A    between atoms: C_14  and  O_15 
REMARK   10  A    between atoms: O_15  and  P_16 
REMARK   11  A    between atoms: P_16  and  O_17 
ROOT
HETATM    1  C           1     -21.023  -4.938  -6.312  0.00  0.00     0.278 C 
ENDROOT
BRANCH   1   2
HETATM    2  C           1     -21.680  -5.920  -5.373  0.00  0.00     0.249 C 
HETATM    3  N           1     -20.918  -6.639  -4.492  0.00  0.00    -0.344 N 
HETATM    4  H           1     -19.915  -6.512  -4.470  0.00  0.00     0.163 HD
HETATM    5  O           1     -22.879  -6.071  -5.399  0.00  0.00    -0.271 OA
BRANCH   3   6
HETATM    6  C           1     -21.550  -7.582  -3.591  0.00  0.00     0.194 C 
BRANCH   6   7
HETATM    7  C           1     -20.690  -8.835  -3.479  0.00  0.00     0.106 C 
BRANCH   7   8
HETATM    8  S           1     -21.127  -9.991  -4.807  0.00  0.00    -0.180 SA
HETATM    9  H           1     -21.746  -9.085  -5.584  0.00  0.00     0.101 HD
ENDBRANCH   7   8
ENDBRANCH   6   7
BRANCH   6  10
HETATM   10  C           1     -21.698  -6.953  -2.227  0.00  0.00     0.197 C 
HETATM   11  O           1     -22.325  -5.878  -2.100  0.00  0.00    -0.646 OA
HETATM   12  O           1     -21.194  -7.505  -1.226  0.00  0.00    -0.646 OA
ENDBRANCH   6  10
ENDBRANCH   3   6
ENDBRANCH   1   2
BRANCH   1  13
HETATM   13  C           1     -20.733  -5.622  -7.642  0.00  0.00     0.081 C 
BRANCH  13  14
HETATM   14  C           1     -21.301  -4.805  -8.760  0.00  0.00    -0.056 A 
HETATM   15  C           1     -22.618  -4.349  -8.690  0.00  0.00     0.010 A 
HETATM   16  C           1     -23.148  -3.587  -9.730  0.00  0.00     0.038 A 
HETATM   17  C           1     -22.363  -3.281 -10.841  0.00  0.00     0.081 A 
HETATM   18  C           1     -21.046  -3.737 -10.911  0.00  0.00     0.038 A 
HETATM   19  C           1     -20.516  -4.499  -9.870  0.00  0.00     0.010 A 
BRANCH  17  20
HETATM   20  O           1     -22.877  -2.541 -11.853  0.00  0.00    -0.247 OA
BRANCH  20  21
HETATM   21  P           1     -23.896  -3.261 -12.879  0.00  0.00     0.411 P 
HETATM   22  O           1     -25.288  -2.916 -12.512  0.00  0.00    -0.624 OA
HETATM   23  O           1     -23.618  -2.797 -14.256  0.00  0.00    -0.624 OA
BRANCH  21  24
HETATM   24  O           1     -23.699  -4.861 -12.799  0.00  0.00    -0.300 OA
HETATM   25  H           1     -22.767  -4.990 -12.753  0.00  0.00     0.223 HD
ENDBRANCH  21  24
ENDBRANCH  20  21
ENDBRANCH  17  20
ENDBRANCH  13  14
ENDBRANCH   1  13
BRANCH   1  26
HETATM   26  N           1     -19.737  -4.454  -5.709  0.00  0.00    -0.066 N 
HETATM   27  H           1     -18.961  -4.575  -6.398  0.00  0.00     0.275 HD
HETATM   28  H           1     -19.829  -3.442  -5.462  0.00  0.00     0.275 HD
HETATM   29  H           1     -19.528  -5.006  -4.848  0.00  0.00     0.275 HD
ENDBRANCH   1  26
TORSDOF 11
ENDMDL
MODEL 2
REMARK VINA RESULT:      -7.0      2.382      3.196
REMARK  11 active torsions:
REMARK  status: ('A' for Active; 'I' for Inactive)
REMARK    1  A    between atoms: S_1  and  C_2 
REMARK    2  A    between atoms: C_2  and  C_3 
REMARK    3  A    between atoms: C_3  and  C_4 
REMARK    4  A    between atoms: C_3  and  N_7 
REMARK       I    between atoms: N_7  and  C_8 
REMARK    5  A    between atoms: C_8  and  C_9 
REMARK    6  A    between atoms: C_9  and  C_10 
REMARK    7  A    between atoms: C_9  and  N_22 
REMARK    8  A    between atoms: C_10  and  C_11 
REMARK    9  A    between atoms: C_14  and  O_15 
REMARK   10  A    between atoms: O_15  and  P_16 
REMARK   11  A    between atoms: P_16  and  O_17 
ROOT
HETATM    1  C           1     -21.486  -6.458  -5.432  0.00  0.00     0.278 C 
ENDROOT
BRANCH   1   2
HETATM    2  C           1     -20.760  -7.778  -5.346  0.00  0.00     0.249 C 
HETATM    3  N           1     -21.303  -8.813  -4.636  0.00  0.00    -0.344 N 
HETATM    4  H           1     -22.193  -8.694  -4.168  0.00  0.00     0.163 HD
HETATM    5  O           1     -19.697  -7.919  -5.905  0.00  0.00    -0.271 OA
BRANCH   3   6
HETATM    6  C           1     -20.605 -10.080  -4.552  0.00  0.00     0.194 C 
BRANCH   6   7
HETATM    7  C           1     -20.678 -10.610  -3.126  0.00  0.00     0.106 C 
BRANCH   7   8
HETATM    8  S           1     -21.629  -9.457  -2.098  0.00  0.00    -0.180 SA
HETATM    9  H           1     -22.254 -10.399  -1.370  0.00  0.00     0.101 HD
ENDBRANCH   7   8
ENDBRANCH   6   7
BRANCH   6  10
HETATM   10  C           1     -21.249 -11.073  -5.489  0.00  0.00     0.197 C 
HETATM   11  O           1     -20.843 -11.174  -6.668  0.00  0.00    -0.646 OA
HETATM   12  O           1     -22.189 -11.792  -5.088  0.00  0.00    -0.646 OA
ENDBRANCH   6  10
ENDBRANCH   3   6
ENDBRANCH   1   2
BRANCH   1  13
HETATM   13  C           1     -20.525  -5.378  -5.913  0.00  0.00     0.081 C 
BRANCH  13  14
HETATM   14  C           1     -21.009  -4.821  -7.215  0.00  0.00    -0.056 A 
HETATM   15  C           1     -20.208  -4.916  -8.354  0.00  0.00     0.010 A 
HETATM   16  C           1     -20.658  -4.398  -9.568  0.00  0.00     0.038 A 
HETATM   17  C           1     -21.909  -3.785  -9.644  0.00  0.00     0.081 A 
HETATM   18  C           1     -22.710  -3.691  -8.506  0.00  0.00     0.038 A 
HETATM   19  C           1     -22.260  -4.209  -7.292  0.00  0.00     0.010 A 
BRANCH  17  20
HETATM   20  O           1     -22.347  -3.281 -10.823  0.00  0.00    -0.247 OA
BRANCH  20  21
HETATM   21  P           1     -23.636  -3.970 -11.511  0.00  0.00     0.411 P 
HETATM   22  O           1     -23.789  -5.350 -10.997  0.00  0.00    -0.624 OA
HETATM   23  O           1     -24.846  -3.184 -11.185  0.00  0.00    -0.624 OA
BRANCH  21  24
HETATM   24  O           1     -23.435  -4.011 -13.112  0.00  0.00    -0.300 OA
HETATM   25  H           1     -23.595  -3.129 -13.400  0.00  0.00     0.223 HD
ENDBRANCH  21  24
ENDBRANCH  20  21
ENDBRANCH  17  20
ENDBRANCH  13  14
ENDBRANCH   1  13
BRANCH   1  26
HETATM   26  N           1     -22.015  -6.089  -4.078  0.00  0.00    -0.066 N 
HETATM   27  H           1     -21.237  -6.113  -3.381  0.00  0.00     0.275 HD
HETATM   28  H           1     -22.421  -5.127  -4.114  0.00  0.00     0.275 HD
HETATM   29  H           1     -22.756  -6.770  -3.796  0.00  0.00     0.275 HD
ENDBRANCH   1  26
TORSDOF 11
ENDMDL
MODEL 3
REMARK VINA RESULT:      -6.9      2.158      2.469
REMARK  11 active torsions:
REMARK  status: ('A' for Active; 'I' for Inactive)
REMARK    1  A    between atoms: S_1  and  C_2 
REMARK    2  A    between atoms: C_2  and  C_3 
REMARK    3  A    between atoms: C_3  and  C_4 
REMARK    4  A    between atoms: C_3  and  N_7 
REMARK       I    between atoms: N_7  and  C_8 
REMARK    5  A    between atoms: C_8  and  C_9 
REMARK    6  A    between atoms: C_9  and  C_10 
REMARK    7  A    between atoms: C_9  and  N_22 
REMARK    8  A    between atoms: C_10  and  C_11 
REMARK    9  A    between atoms: C_14  and  O_15 
REMARK   10  A    between atoms: O_15  and  P_16 
REMARK   11  A    between atoms: P_16  and  O_17 
ROOT
HETATM    1  C           1     -21.596  -5.793  -6.907  0.00  0.00     0.278 C 
ENDROOT
BRANCH   1   2
HETATM    2  C           1     -20.658  -6.891  -6.470  0.00  0.00     0.249 C 
HETATM    3  N           1     -21.086  -7.846  -5.588  0.00  0.00    -0.344 N 
HETATM    4  H           1     -22.032  -7.815  -5.229  0.00  0.00     0.163 HD
HETATM    5  O           1     -19.528  -6.926  -6.899  0.00  0.00    -0.271 OA
BRANCH   3   6
HETATM    6  C           1     -20.185  -8.900  -5.167  0.00  0.00     0.194 C 
BRANCH   6   7
HETATM    7  C           1     -19.813  -8.699  -3.704  0.00  0.00     0.106 C 
BRANCH   7   8
HETATM    8  S           1     -18.234  -9.525  -3.360  0.00  0.00    -0.180 SA
HETATM    9  H           1     -17.478  -8.415  -3.426  0.00  0.00     0.101 HD
ENDBRANCH   7   8
ENDBRANCH   6   7
BRANCH   6  10
HETATM   10  C           1     -20.863 -10.238  -5.333  0.00  0.00     0.197 C 
HETATM   11  O           1     -21.575 -10.696  -4.413  0.00  0.00    -0.646 OA
HETATM   12  O           1     -20.712 -10.888  -6.389  0.00  0.00    -0.646 OA
ENDBRANCH   6  10
ENDBRANCH   3   6
ENDBRANCH   1   2
BRANCH   1  13
HETATM   13  C           1     -20.789  -4.568  -7.319  0.00  0.00     0.081 C 
BRANCH  13  14
HETATM   14  C           1     -21.265  -4.080  -8.652  0.00  0.00    -0.056 A 
HETATM   15  C           1     -22.582  -3.646  -8.805  0.00  0.00     0.010 A 
HETATM   16  C           1     -23.025  -3.190 -10.046  0.00  0.00     0.038 A 
HETATM   17  C           1     -22.153  -3.169 -11.134  0.00  0.00     0.081 A 
HETATM   18  C           1     -20.836  -3.602 -10.980  0.00  0.00     0.038 A 
HETATM   19  C           1     -20.392  -4.058  -9.739  0.00  0.00     0.010 A 
BRANCH  17  20
HETATM   20  O           1     -22.583  -2.726 -12.341  0.00  0.00    -0.247 OA
BRANCH  20  21
HETATM   21  P           1     -23.823  -3.495 -13.034  0.00  0.00     0.411 P 
HETATM   22  O           1     -25.095  -2.959 -12.498  0.00  0.00    -0.624 OA
HETATM   23  O           1     -23.775  -3.287 -14.498  0.00  0.00    -0.624 OA
BRANCH  21  24
HETATM   24  O           1     -23.726  -5.073 -12.711  0.00  0.00    -0.300 OA
HETATM   25  H           1     -24.297  -5.486 -13.337  0.00  0.00     0.223 HD
ENDBRANCH  21  24
ENDBRANCH  20  21
ENDBRANCH  17  20
ENDBRANCH  13  14
ENDBRANCH   1  13
BRANCH   1  26
HETATM   26  N           1     -22.507  -5.432  -5.772  0.00  0.00    -0.066 N 
HETATM   27  H           1     -23.003  -6.288  -5.436  0.00  0.00     0.275 HD
HETATM   28  H           1     -21.945  -5.025  -4.991  0.00  0.00     0.275 HD
HETATM   29  H           1     -23.208  -4.729  -6.099  0.00  0.00     0.275 HD
ENDBRANCH   1  26
TORSDOF 11
ENDMDL
MODEL 4
REMARK VINA RESULT:      -6.8      4.233      9.159
REMARK  11 active torsions:
REMARK  status: ('A' for Active; 'I' for Inactive)
REMARK    1  A    between atoms: S_1  and  C_2 
REMARK    2  A    between atoms: C_2  and  C_3 
REMARK    3  A    between atoms: C_3  and  C_4 
REMARK    4  A    between atoms: C_3  and  N_7 
REMARK       I    between atoms: N_7  and  C_8 
REMARK    5  A    between atoms: C_8  and  C_9 
REMARK    6  A    between atoms: C_9  and  C_10 
REMARK    7  A    between atoms: C_9  and  N_22 
REMARK    8  A    between atoms: C_10  and  C_11 
REMARK    9  A    between atoms: C_14  and  O_15 
REMARK   10  A    between atoms: O_15  and  P_16 
REMARK   11  A    between atoms: P_16  and  O_17 
ROOT
HETATM    1  C           1     -21.138  -5.475  -6.409  0.00  0.00     0.278 C 
ENDROOT
BRANCH   1   2
HETATM    2  C           1     -21.586  -4.426  -7.397  0.00  0.00     0.249 C 
HETATM    3  N           1     -22.250  -4.797  -8.535  0.00  0.00    -0.344 N 
HETATM    4  H           1     -22.440  -5.775  -8.714  0.00  0.00     0.163 HD
HETATM    5  O           1     -21.359  -3.259  -7.183  0.00  0.00    -0.271 OA
BRANCH   3   6
HETATM    6  C           1     -22.680  -3.790  -9.484  0.00  0.00     0.194 C 
BRANCH   6   7
HETATM    7  C           1     -21.999  -4.029 -10.826  0.00  0.00     0.106 C 
BRANCH   7   8
HETATM    8  S           1     -22.643  -2.855 -12.051  0.00  0.00    -0.180 SA
HETATM    9  H           1     -23.201  -2.015 -11.161  0.00  0.00     0.101 HD
ENDBRANCH   7   8
ENDBRANCH   6   7
BRANCH   6  10
HETATM   10  C           1     -24.177  -3.871  -9.661  0.00  0.00     0.197 C 
HETATM   11  O           1     -24.706  -4.945 -10.021  0.00  0.00    -0.646 OA
HETATM   12  O           1     -24.887  -2.865  -9.448  0.00  0.00    -0.646 OA
ENDBRANCH   6  10
ENDBRANCH   3   6
ENDBRANCH   1   2
BRANCH   1  13
HETATM   13  C           1     -22.330  -5.938  -5.582  0.00  0.00     0.081 C 
BRANCH  13  14
HETATM   14  C           1     -21.849  -6.757  -4.426  0.00  0.00    -0.056 A 
HETATM   15  C           1     -21.919  -6.244  -3.130  0.00  0.00     0.010 A 
HETATM   16  C           1     -21.472  -7.007  -2.052  0.00  0.00     0.038 A 
HETATM   17  C           1     -20.954  -8.284  -2.269  0.00  0.00     0.081 A 
HETATM   18  C           1     -20.885  -8.798  -3.564  0.00  0.00     0.038 A 
HETATM   19  C           1     -21.332  -8.035  -4.642  0.00  0.00     0.010 A 
BRANCH  17  20
HETATM   20  O           1     -20.519  -9.026  -1.222  0.00  0.00    -0.247 OA
BRANCH  20  21
HETATM   21  P           1     -21.605  -9.501  -0.125  0.00  0.00     0.411 P 
HETATM   22  O           1     -22.900  -9.759  -0.794  0.00  0.00    -0.624 OA
HETATM   23  O           1     -21.132 -10.739   0.533  0.00  0.00    -0.624 OA
BRANCH  21  24
HETATM   24  O           1     -21.794  -8.341   0.982  0.00  0.00    -0.300 OA
HETATM   25  H           1     -22.653  -7.988   0.821  0.00  0.00     0.223 HD
ENDBRANCH  21  24
ENDBRANCH  20  21
ENDBRANCH  17  20
ENDBRANCH  13  14
ENDBRANCH   1  13
BRANCH   1  26
HETATM   26  N           1     -20.095  -4.893  -5.501  0.00  0.00    -0.066 N 
HETATM   27  H           1     -19.684  -4.040  -5.943  0.00  0.00     0.275 HD
HETATM   28  H           1     -20.534  -4.636  -4.588  0.00  0.00     0.275 HD
HETATM   29  H           1     -19.342  -5.599  -5.340  0.00  0.00     0.275 HD
ENDBRANCH   1  26
TORSDOF 11
ENDMDL
MODEL 5
REMARK VINA RESULT:      -6.1      2.518      3.214
REMARK  11 active torsions:
REMARK  status: ('A' for Active; 'I' for Inactive)
REMARK    1  A    between atoms: S_1  and  C_2 
REMARK    2  A    between atoms: C_2  and  C_3 
REMARK    3  A    between atoms: C_3  and  C_4 
REMARK    4  A    between atoms: C_3  and  N_7 
REMARK       I    between atoms: N_7  and  C_8 
REMARK    5  A    between atoms: C_8  and  C_9 
REMARK    6  A    between atoms: C_9  and  C_10 
REMARK    7  A    between atoms: C_9  and  N_22 
REMARK    8  A    between atoms: C_10  and  C_11 
REMARK    9  A    between atoms: C_14  and  O_15 
REMARK   10  A    between atoms: O_15  and  P_16 
REMARK   11  A    between atoms: P_16  and  O_17 
ROOT
HETATM    1  C           1     -20.350  -7.509  -5.474  0.00  0.00     0.278 C 
ENDROOT
BRANCH   1   2
HETATM    2  C           1     -20.035  -8.236  -4.190  0.00  0.00     0.249 C 
HETATM    3  N           1     -20.929  -8.213  -3.154  0.00  0.00    -0.344 N 
HETATM    4  H           1     -21.802  -7.709  -3.249  0.00  0.00     0.163 HD
HETATM    5  O           1     -18.993  -8.838  -4.076  0.00  0.00    -0.271 OA
BRANCH   3   6
HETATM    6  C           1     -20.627  -8.911  -1.920  0.00  0.00     0.194 C 
BRANCH   6   7
HETATM    7  C           1     -21.017  -8.040  -0.733  0.00  0.00     0.106 C 
BRANCH   7   8
HETATM    8  S           1     -22.241  -6.808  -1.260  0.00  0.00    -0.180 SA
HETATM    9  H           1     -23.034  -6.928  -0.180  0.00  0.00     0.101 HD
ENDBRANCH   7   8
ENDBRANCH   6   7
BRANCH   6  10
HETATM   10  C           1     -21.403 -10.205  -1.870  0.00  0.00     0.197 C 
HETATM   11  O           1     -21.123 -11.069  -1.011  0.00  0.00    -0.646 OA
HETATM   12  O           1     -22.325 -10.412  -2.688  0.00  0.00    -0.646 OA
ENDBRANCH   6  10
ENDBRANCH   3   6
ENDBRANCH   1   2
BRANCH   1  13
HETATM   13  C           1     -20.832  -6.099  -5.156  0.00  0.00     0.081 C 
BRANCH  13  14
HETATM   14  C           1     -21.198  -5.397  -6.426  0.00  0.00    -0.056 A 
HETATM   15  C           1     -22.484  -4.882  -6.591  0.00  0.00     0.010 A 
HETATM   16  C           1     -22.826  -4.226  -7.774  0.00  0.00     0.038 A 
HETATM   17  C           1     -21.882  -4.086  -8.791  0.00  0.00     0.081 A 
HETATM   18  C           1     -20.596  -4.600  -8.625  0.00  0.00     0.038 A 
HETATM   19  C           1     -20.254  -5.255  -7.443  0.00  0.00     0.010 A 
BRANCH  17  20
HETATM   20  O           1     -22.213  -3.449  -9.941  0.00  0.00    -0.247 OA
BRANCH  20  21
HETATM   21  P           1     -23.644  -3.785 -10.610  0.00  0.00     0.411 P 
HETATM   22  O           1     -23.877  -5.246 -10.566  0.00  0.00    -0.624 OA
HETATM   23  O           1     -24.714  -3.091  -9.860  0.00  0.00    -0.624 OA
BRANCH  21  24
HETATM   24  O           1     -23.651  -3.286 -12.145  0.00  0.00    -0.300 OA
HETATM   25  H           1     -24.367  -3.747 -12.548  0.00  0.00     0.223 HD
ENDBRANCH  21  24
ENDBRANCH  20  21
ENDBRANCH  17  20
ENDBRANCH  13  14
ENDBRANCH   1  13
BRANCH   1  26
HETATM   26  N           1     -21.423  -8.248  -6.217  0.00  0.00    -0.066 N 
HETATM   27  H           1     -20.988  -8.845  -6.956  0.00  0.00     0.275 HD
HETATM   28  H           1     -21.955  -8.851  -5.550  0.00  0.00     0.275 HD
HETATM   29  H           1     -22.073  -7.562  -6.662  0.00  0.00     0.275 HD
ENDBRANCH   1  26
TORSDOF 11
ENDMDL
MODEL 6
REMARK VINA RESULT:      -6.1      4.251      9.124
REMARK  11 active torsions:
REMARK  status: ('A' for Active; 'I' for Inactive)
REMARK    1  A    between atoms: S_1  and  C_2 
REMARK    2  A    between atoms: C_2  and  C_3 
REMARK    3  A    between atoms: C_3  and  C_4 
REMARK    4  A    between atoms: C_3  and  N_7 
REMARK       I    between atoms: N_7  and  C_8 
REMARK    5  A    between atoms: C_8  and  C_9 
REMARK    6  A    between atoms: C_9  and  C_10 
REMARK    7  A    between atoms: C_9  and  N_22 
REMARK    8  A    between atoms: C_10  and  C_11 
REMARK    9  A    between atoms: C_14  and  O_15 
REMARK   10  A    between atoms: O_15  and  P_16 
REMARK   11  A    between atoms: P_16  and  O_17 
ROOT
HETATM    1  C           1     -21.166  -6.200  -6.344  0.00  0.00     0.278 C 
ENDROOT
BRANCH   1   2
HETATM    2  C           1     -21.608  -5.060  -7.229  0.00  0.00     0.249 C 
HETATM    3  N           1     -21.746  -5.254  -8.576  0.00  0.00    -0.344 N 
HETATM    4  H           1     -21.552  -6.162  -8.979  0.00  0.00     0.163 HD
HETATM    5  O           1     -21.839  -3.976  -6.747  0.00  0.00    -0.271 OA
BRANCH   3   6
HETATM    6  C           1     -22.170  -4.160  -9.426  0.00  0.00     0.194 C 
BRANCH   6   7
HETATM    7  C           1     -21.415  -4.219 -10.748  0.00  0.00     0.106 C 
BRANCH   7   8
HETATM    8  S           1     -21.944  -2.846 -11.811  0.00  0.00    -0.180 SA
HETATM    9  H           1     -23.091  -2.595 -11.156  0.00  0.00     0.101 HD
ENDBRANCH   7   8
ENDBRANCH   6   7
BRANCH   6  10
HETATM   10  C           1     -23.652  -4.271  -9.690  0.00  0.00     0.197 C 
HETATM   11  O           1     -24.433  -3.405  -9.239  0.00  0.00    -0.646 OA
HETATM   12  O           1     -24.098  -5.229 -10.356  0.00  0.00    -0.646 OA
ENDBRANCH   6  10
ENDBRANCH   3   6
ENDBRANCH   1   2
BRANCH   1  13
HETATM   13  C           1     -21.189  -5.752  -4.888  0.00  0.00     0.081 C 
BRANCH  13  14
HETATM   14  C           1     -21.242  -6.952  -3.996  0.00  0.00    -0.056 A 
HETATM   15  C           1     -21.624  -8.190  -4.514  0.00  0.00     0.010 A 
HETATM   16  C           1     -21.673  -9.309  -3.684  0.00  0.00     0.038 A 
HETATM   17  C           1     -21.341  -9.191  -2.334  0.00  0.00     0.081 A 
HETATM   18  C           1     -20.958  -7.954  -1.816  0.00  0.00     0.038 A 
HETATM   19  C           1     -20.909  -6.835  -2.646  0.00  0.00     0.010 A 
BRANCH  17  20
HETATM   20  O           1     -21.388 -10.278  -1.526  0.00  0.00    -0.247 OA
BRANCH  20  21
HETATM   21  P           1     -22.758 -10.566  -0.721  0.00  0.00     0.411 P 
HETATM   22  O           1     -22.504 -11.569   0.338  0.00  0.00    -0.624 OA
HETATM   23  O           1     -23.242  -9.310  -0.107  0.00  0.00    -0.624 OA
BRANCH  21  24
HETATM   24  O           1     -23.873 -11.132  -1.741  0.00  0.00    -0.300 OA
HETATM   25  H           1     -24.398 -11.722  -1.226  0.00  0.00     0.223 HD
ENDBRANCH  21  24
ENDBRANCH  20  21
ENDBRANCH  17  20
ENDBRANCH  13  14
ENDBRANCH   1  13
BRANCH   1  26
HETATM   26  N           1     -19.773  -6.612  -6.717  0.00  0.00    -0.066 N 
HETATM   27  H           1     -19.586  -6.348  -7.711  0.00  0.00     0.275 HD
HETATM   28  H           1     -19.088  -6.129  -6.093  0.00  0.00     0.275 HD
HETATM   29  H           1     -19.675  -7.647  -6.608  0.00  0.00     0.275 HD
ENDBRANCH   1  26
TORSDOF 11
ENDMDL
MODEL 7
REMARK VINA RESULT:      -5.9     13.570     16.500
REMARK  11 active torsions:
REMARK  status: ('A' for Active; 'I' for Inactive)
REMARK    1  A    between atoms: S_1  and  C_2 
REMARK    2  A    between atoms: C_2  and  C_3 
REMARK    3  A    between atoms: C_3  and  C_4 
REMARK    4  A    between atoms: C_3  and  N_7 
REMARK       I    between atoms: N_7  and  C_8 
REMARK    5  A    between atoms: C_8  and  C_9 
REMARK    6  A    between atoms: C_9  and  C_10 
REMARK    7  A    between atoms: C_9  and  N_22 
REMARK    8  A    between atoms: C_10  and  C_11 
REMARK    9  A    between atoms: C_14  and  O_15 
REMARK   10  A    between atoms: O_15  and  P_16 
REMARK   11  A    between atoms: P_16  and  O_17 
ROOT
HETATM    1  C           1     -36.104  -0.336 -11.632  0.00  0.00     0.278 C 
ENDROOT
BRANCH   1   2
HETATM    2  C           1     -36.889  -0.406 -12.919  0.00  0.00     0.249 C 
HETATM    3  N           1     -36.258  -0.207 -14.117  0.00  0.00    -0.344 N 
HETATM    4  H           1     -35.265  -0.013 -14.140  0.00  0.00     0.163 HD
HETATM    5  O           1     -38.075  -0.638 -12.891  0.00  0.00    -0.271 OA
BRANCH   3   6
HETATM    6  C           1     -37.012  -0.274 -15.353  0.00  0.00     0.194 C 
BRANCH   6   7
HETATM    7  C           1     -37.308   1.137 -15.847  0.00  0.00     0.106 C 
BRANCH   7   8
HETATM    8  S           1     -35.795   2.136 -15.773  0.00  0.00    -0.180 SA
HETATM    9  H           1     -35.880   2.612 -17.027  0.00  0.00     0.101 HD
ENDBRANCH   7   8
ENDBRANCH   6   7
BRANCH   6  10
HETATM   10  C           1     -36.206  -1.011 -16.395  0.00  0.00     0.197 C 
HETATM   11  O           1     -35.238  -1.722 -16.048  0.00  0.00    -0.646 OA
HETATM   12  O           1     -36.506  -0.909 -17.604  0.00  0.00    -0.646 OA
ENDBRANCH   6  10
ENDBRANCH   3   6
ENDBRANCH   1   2
BRANCH   1  13
HETATM   13  C           1     -34.625  -0.551 -11.926  0.00  0.00     0.081 C 
BRANCH  13  14
HETATM   14  C           1     -34.277  -1.991 -11.715  0.00  0.00    -0.056 A 
HETATM   15  C           1     -34.391  -2.897 -12.770  0.00  0.00     0.010 A 
HETATM   16  C           1     -34.066  -4.239 -12.575  0.00  0.00     0.038 A 
HETATM   17  C           1     -33.628  -4.676 -11.325  0.00  0.00     0.081 A 
HETATM   18  C           1     -33.512  -3.770 -10.271  0.00  0.00     0.038 A 
HETATM   19  C           1     -33.837  -2.428 -10.466  0.00  0.00     0.010 A 
BRANCH  17  20
HETATM   20  O           1     -33.311  -5.980 -11.134  0.00  0.00    -0.247 OA
BRANCH  20  21
HETATM   21  P           1     -34.494  -6.993 -10.706  0.00  0.00     0.411 P 
HETATM   22  O           1     -33.905  -8.211 -10.105  0.00  0.00    -0.624 OA
HETATM   23  O           1     -35.375  -6.331  -9.719  0.00  0.00    -0.624 OA
BRANCH  21  24
HETATM   24  O           1     -35.355  -7.398 -12.009  0.00  0.00    -0.300 OA
HETATM   25  H           1     -34.964  -6.917 -12.719  0.00  0.00     0.223 HD
ENDBRANCH  21  24
ENDBRANCH  20  21
ENDBRANCH  17  20
ENDBRANCH  13  14
ENDBRANCH   1  13
BRANCH   1  26
HETATM   26  N           1     -36.587  -1.402 -10.693  0.00  0.00    -0.066 N 
HETATM   27  H           1     -36.646  -2.313 -11.201  0.00  0.00     0.275 HD
HETATM   28  H           1     -35.918  -1.490  -9.895  0.00  0.00     0.275 HD
HETATM   29  H           1     -37.532  -1.143 -10.330  0.00  0.00     0.275 HD
ENDBRANCH   1  26
TORSDOF 11
ENDMDL
MODEL 8
REMARK VINA RESULT:      -5.7      6.194      8.369
REMARK  11 active torsions:
REMARK  status: ('A' for Active; 'I' for Inactive)
REMARK    1  A    between atoms: S_1  and  C_2 
REMARK    2  A    between atoms: C_2  and  C_3 
REMARK    3  A    between atoms: C_3  and  C_4 
REMARK    4  A    between atoms: C_3  and  N_7 
REMARK       I    between atoms: N_7  and  C_8 
REMARK    5  A    between atoms: C_8  and  C_9 
REMARK    6  A    between atoms: C_9  and  C_10 
REMARK    7  A    between atoms: C_9  and  N_22 
REMARK    8  A    between atoms: C_10  and  C_11 
REMARK    9  A    between atoms: C_14  and  O_15 
REMARK   10  A    between atoms: O_15  and  P_16 
REMARK   11  A    between atoms: P_16  and  O_17 
ROOT
HETATM    1  C           1     -22.736 -10.449  -0.307  0.00  0.00     0.278 C 
ENDROOT
BRANCH   1   2
HETATM    2  C           1     -21.865 -11.485   0.359  0.00  0.00     0.249 C 
HETATM    3  N           1     -22.092 -12.816   0.137  0.00  0.00    -0.344 N 
HETATM    4  H           1     -22.845 -13.105  -0.475  0.00  0.00     0.163 HD
HETATM    5  O           1     -20.966 -11.139   1.090  0.00  0.00    -0.271 OA
BRANCH   3   6
HETATM    6  C           1     -21.256 -13.811   0.778  0.00  0.00     0.194 C 
BRANCH   6   7
HETATM    7  C           1     -22.122 -14.962   1.274  0.00  0.00     0.106 C 
BRANCH   7   8
HETATM    8  S           1     -22.288 -14.863   3.078  0.00  0.00    -0.180 SA
HETATM    9  H           1     -23.603 -15.143   3.114  0.00  0.00     0.101 HD
ENDBRANCH   7   8
ENDBRANCH   6   7
BRANCH   6  10
HETATM   10  C           1     -20.246 -14.335  -0.214  0.00  0.00     0.197 C 
HETATM   11  O           1     -19.308 -15.064   0.175  0.00  0.00    -0.646 OA
HETATM   12  O           1     -20.347 -14.038  -1.424  0.00  0.00    -0.646 OA
ENDBRANCH   6  10
ENDBRANCH   3   6
ENDBRANCH   1   2
BRANCH   1  13
HETATM   13  C           1     -22.359  -9.063   0.201  0.00  0.00     0.081 C 
BRANCH  13  14
HETATM   14  C           1     -21.975  -8.193  -0.954  0.00  0.00    -0.056 A 
HETATM   15  C           1     -22.387  -6.860  -0.990  0.00  0.00     0.010 A 
HETATM   16  C           1     -22.030  -6.048  -2.066  0.00  0.00     0.038 A 
HETATM   17  C           1     -21.260  -6.568  -3.107  0.00  0.00     0.081 A 
HETATM   18  C           1     -20.847  -7.900  -3.070  0.00  0.00     0.038 A 
HETATM   19  C           1     -21.205  -8.712  -1.994  0.00  0.00     0.010 A 
BRANCH  17  20
HETATM   20  O           1     -20.912  -5.780  -4.152  0.00  0.00    -0.247 OA
BRANCH  20  21
HETATM   21  P           1     -21.697  -5.982  -5.549  0.00  0.00     0.411 P 
HETATM   22  O           1     -23.141  -6.167  -5.280  0.00  0.00    -0.624 OA
HETATM   23  O           1     -21.502  -4.788  -6.401  0.00  0.00    -0.624 OA
BRANCH  21  24
HETATM   24  O           1     -21.120  -7.285  -6.308  0.00  0.00    -0.300 OA
HETATM   25  H           1     -21.770  -7.497  -6.957  0.00  0.00     0.223 HD
ENDBRANCH  21  24
ENDBRANCH  20  21
ENDBRANCH  17  20
ENDBRANCH  13  14
ENDBRANCH   1  13
BRANCH   1  26
HETATM   26  N           1     -24.175 -10.724   0.014  0.00  0.00    -0.066 N 
HETATM   27  H           1     -24.637  -9.842   0.330  0.00  0.00     0.275 HD
HETATM   28  H           1     -24.659 -11.084  -0.840  0.00  0.00     0.275 HD
HETATM   29  H           1     -24.231 -11.438   0.774  0.00  0.00     0.275 HD
ENDBRANCH   1  26
TORSDOF 11
ENDMDL
MODEL 9
REMARK VINA RESULT:      -5.6      5.237      7.157
REMARK  11 active torsions:
REMARK  status: ('A' for Active; 'I' for Inactive)
REMARK    1  A    between atoms: S_1  and  C_2 
REMARK    2  A    between atoms: C_2  and  C_3 
REMARK    3  A    between atoms: C_3  and  C_4 
REMARK    4  A    between atoms: C_3  and  N_7 
REMARK       I    between atoms: N_7  and  C_8 
REMARK    5  A    between atoms: C_8  and  C_9 
REMARK    6  A    between atoms: C_9  and  C_10 
REMARK    7  A    between atoms: C_9  and  N_22 
REMARK    8  A    between atoms: C_10  and  C_11 
REMARK    9  A    between atoms: C_14  and  O_15 
REMARK   10  A    between atoms: O_15  and  P_16 
REMARK   11  A    between atoms: P_16  and  O_17 
ROOT
HETATM    1  C           1     -22.407  -8.755  -0.349  0.00  0.00     0.278 C 
ENDROOT
BRANCH   1   2
HETATM    2  C           1     -21.736  -9.904   0.363  0.00  0.00     0.249 C 
HETATM    3  N           1     -22.031 -11.193   0.012  0.00  0.00    -0.344 N 
HETATM    4  H           1     -22.699 -11.377  -0.725  0.00  0.00     0.163 HD
HETATM    5  O           1     -20.938  -9.684   1.244  0.00  0.00    -0.271 OA
BRANCH   3   6
HETATM    6  C           1     -21.387 -12.296   0.697  0.00  0.00     0.194 C 
BRANCH   6   7
HETATM    7  C           1     -22.428 -13.346   1.064  0.00  0.00     0.106 C 
BRANCH   7   8
HETATM    8  S           1     -23.584 -13.563  -0.318  0.00  0.00    -0.180 SA
HETATM    9  H           1     -23.588 -12.274  -0.700  0.00  0.00     0.101 HD
ENDBRANCH   7   8
ENDBRANCH   6   7
BRANCH   6  10
HETATM   10  C           1     -20.349 -12.914  -0.208  0.00  0.00     0.197 C 
HETATM   11  O           1     -19.584 -13.800   0.232  0.00  0.00    -0.646 OA
HETATM   12  O           1     -20.253 -12.538  -1.396  0.00  0.00    -0.646 OA
ENDBRANCH   6  10
ENDBRANCH   3   6
ENDBRANCH   1   2
BRANCH   1  13
HETATM   13  C           1     -21.368  -7.699  -0.702  0.00  0.00     0.081 C 
BRANCH  13  14
HETATM   14  C           1     -21.294  -7.547  -2.189  0.00  0.00    -0.056 A 
HETATM   15  C           1     -22.123  -6.631  -2.839  0.00  0.00     0.010 A 
HETATM   16  C           1     -22.054  -6.489  -4.224  0.00  0.00     0.038 A 
HETATM   17  C           1     -21.157  -7.261  -4.961  0.00  0.00     0.081 A 
HETATM   18  C           1     -20.328  -8.176  -4.312  0.00  0.00     0.038 A 
HETATM   19  C           1     -20.397  -8.319  -2.927  0.00  0.00     0.010 A 
BRANCH  17  20
HETATM   20  O           1     -21.089  -7.123  -6.308  0.00  0.00    -0.247 OA
BRANCH  20  21
HETATM   21  P           1     -20.681  -5.679  -6.903  0.00  0.00     0.411 P 
HETATM   22  O           1     -19.787  -4.987  -5.947  0.00  0.00    -0.624 OA
HETATM   23  O           1     -19.981  -5.858  -8.194  0.00  0.00    -0.624 OA
BRANCH  21  24
HETATM   24  O           1     -22.012  -4.794  -7.131  0.00  0.00    -0.300 OA
HETATM   25  H           1     -22.607  -5.364  -7.589  0.00  0.00     0.223 HD
ENDBRANCH  21  24
ENDBRANCH  20  21
ENDBRANCH  17  20
ENDBRANCH  13  14
ENDBRANCH   1  13
BRANCH   1  26
HETATM   26  N           1     -23.449  -8.152   0.546  0.00  0.00    -0.066 N 
HETATM   27  H           1     -23.436  -7.112   0.444  0.00  0.00     0.275 HD
HETATM   28  H           1     -24.391  -8.517   0.278  0.00  0.00     0.275 HD
HETATM   29  H           1     -23.245  -8.408   1.538  0.00  0.00     0.275 HD
ENDBRANCH   1  26
TORSDOF 11
ENDMDL
