MODEL 1
REMARK VINA RESULT:      -8.7      0.000      0.000
REMARK  13 active torsions:
REMARK  status: ('A' for Active; 'I' for Inactive)
REMARK       I    between atoms: N_9  and  C_10 
REMARK       I    between atoms: C_10  and  N_11 
REMARK    1  A    between atoms: N_12  and  C_13 
REMARK    2  A    between atoms: C_13  and  C_14 
REMARK    3  A    between atoms: C_14  and  C_15 
REMARK    4  A    between atoms: C_15  and  C_16 
REMARK    5  A    between atoms: C_16  and  C_17 
REMARK    6  A    between atoms: C_16  and  N_20 
REMARK       I    between atoms: N_20  and  C_21 
REMARK    7  A    between atoms: C_21  and  C_22 
REMARK    8  A    between atoms: C_22  and  C_23 
REMARK    9  A    between atoms: C_22  and  N_35 
REMARK   10  A    between atoms: C_23  and  C_24 
REMARK   11  A    between atoms: C_27  and  O_28 
REMARK   12  A    between atoms: O_28  and  P_29 
REMARK   13  A    between atoms: P_29  and  O_30 
ROOT
HETATM    1  O           1     -21.522  -3.263  -7.178  0.00  0.00    -0.271 OA
HETATM    2  H           1     -22.294  -5.755  -8.921  0.00  0.00     0.163 HD
HETATM    3  N           1     -22.197  -4.778  -8.674  0.00  0.00    -0.345 N 
HETATM    4  C           1     -21.637  -4.429  -7.474  0.00  0.00     0.249 C 
ENDROOT
BRANCH   4   5
HETATM    5  C           1     -21.165  -5.500  -6.522  0.00  0.00     0.278 C 
BRANCH   5   6
HETATM    6  C           1     -22.315  -5.918  -5.616  0.00  0.00     0.081 C 
BRANCH   6   7
HETATM    7  C           1     -21.790  -6.764  -4.499  0.00  0.00    -0.056 A 
HETATM    8  C           1     -21.747  -6.257  -3.201  0.00  0.00     0.010 A 
HETATM    9  C           1     -21.258  -7.045  -2.159  0.00  0.00     0.038 A 
HETATM   10  C           1     -20.812  -8.342  -2.417  0.00  0.00     0.081 A 
HETATM   11  C           1     -20.856  -8.850  -3.714  0.00  0.00     0.038 A 
HETATM   12  C           1     -21.345  -8.061  -4.756  0.00  0.00     0.010 A 
BRANCH  10  13
HETATM   13  O           1     -20.337  -9.108  -1.405  0.00  0.00    -0.247 OA
BRANCH  13  14
HETATM   14  P           1     -21.364  -9.541  -0.236  0.00  0.00     0.411 P 
HETATM   15  O           1     -22.710  -9.752  -0.816  0.00  0.00    -0.624 OA
HETATM   16  O           1     -20.895 -10.796   0.393  0.00  0.00    -0.624 OA
BRANCH  14  17
HETATM   17  O           1     -21.436  -8.375   0.878  0.00  0.00    -0.300 OA
HETATM   18  H           1     -21.996  -7.715   0.505  0.00  0.00     0.223 HD
ENDBRANCH  14  17
ENDBRANCH  13  14
ENDBRANCH  10  13
ENDBRANCH   6   7
ENDBRANCH   5   6
BRANCH   5  19
HETATM   19  N           1     -20.041  -4.964  -5.686  0.00  0.00    -0.066 N 
HETATM   20  H           1     -20.400  -4.202  -5.067  0.00  0.00     0.275 HD
HETATM   21  H           1     -19.648  -5.733  -5.097  0.00  0.00     0.275 HD
HETATM   22  H           1     -19.293  -4.584  -6.309  0.00  0.00     0.275 HD
ENDBRANCH   5  19
ENDBRANCH   4   5
BRANCH   3  23
HETATM   23  C           1     -22.651  -3.749  -9.589  0.00  0.00     0.185 C 
BRANCH  23  24
HETATM   24  C           1     -22.019  -3.972 -10.957  0.00  0.00     0.038 C 
BRANCH  24  25
HETATM   25  C           1     -22.236  -2.740 -11.824  0.00  0.00     0.023 C 
BRANCH  25  26
HETATM   26  C           1     -23.075  -3.113 -13.039  0.00  0.00     0.138 C 
BRANCH  26  27
HETATM   27  N           1     -23.823  -1.935 -13.500  0.00  0.00    -0.227 N 
HETATM   28  H           1     -24.512  -1.467 -12.861  0.00  0.00     0.177 HD
HETATM   29  C           1     -23.635  -1.483 -14.668  0.00  0.00     0.665 C 
HETATM   30  N           1     -24.296  -0.440 -15.075  0.00  0.00    -0.235 N 
HETATM   31  N           1     -22.804  -2.047 -15.439  0.00  0.00    -0.235 N 
HETATM   32  H           1     -24.982   0.024 -14.439  0.00  0.00     0.174 HD
HETATM   33  H           1     -24.141  -0.068 -16.040  0.00  0.00     0.174 HD
HETATM   34  H           1     -22.649  -1.672 -16.407  0.00  0.00     0.174 HD
HETATM   35  H           1     -22.270  -2.889 -15.109  0.00  0.00     0.174 HD
ENDBRANCH  26  27
ENDBRANCH  25  26
ENDBRANCH  24  25
ENDBRANCH  23  24
BRANCH  23  36
HETATM   36  C           1     -24.153  -3.813  -9.712  0.00  0.00     0.196 C 
HETATM   37  O           1     -24.846  -2.807  -9.447  0.00  0.00    -0.646 OA
HETATM   38  O           1     -24.706  -4.873 -10.079  0.00  0.00    -0.646 OA
ENDBRANCH  23  36
ENDBRANCH   3  23
TORSDOF 13
ENDMDL
MODEL 2
REMARK VINA RESULT:      -8.4      4.772     10.875
REMARK  13 active torsions:
REMARK  status: ('A' for Active; 'I' for Inactive)
REMARK       I    between atoms: N_9  and  C_10 
REMARK       I    between atoms: C_10  and  N_11 
REMARK    1  A    between atoms: N_12  and  C_13 
REMARK    2  A    between atoms: C_13  and  C_14 
REMARK    3  A    between atoms: C_14  and  C_15 
REMARK    4  A    between atoms: C_15  and  C_16 
REMARK    5  A    between atoms: C_16  and  C_17 
REMARK    6  A    between atoms: C_16  and  N_20 
REMARK       I    between atoms: N_20  and  C_21 
REMARK    7  A    between atoms: C_21  and  C_22 
REMARK    8  A    between atoms: C_22  and  C_23 
REMARK    9  A    between atoms: C_22  and  N_35 
REMARK   10  A    between atoms: C_23  and  C_24 
REMARK   11  A    between atoms: C_27  and  O_28 
REMARK   12  A    between atoms: O_28  and  P_29 
REMARK   13  A    between atoms: P_29  and  O_30 
ROOT
HETATM    1  O           1     -22.925  -5.921  -5.395  0.00  0.00    -0.271 OA
HETATM    2  H           1     -19.976  -6.604  -4.572  0.00  0.00     0.163 HD
HETATM    3  N           1     -20.987  -6.651  -4.560  0.00  0.00    -0.345 N 
HETATM    4  C           1     -21.718  -5.865  -5.409  0.00  0.00     0.249 C 
ENDROOT
BRANCH   4   5
HETATM    5  C           1     -21.017  -4.928  -6.362  0.00  0.00     0.278 C 
BRANCH   5   6
HETATM    6  C           1     -20.773  -5.638  -7.687  0.00  0.00     0.081 C 
BRANCH   6   7
HETATM    7  C           1     -21.327  -4.813  -8.806  0.00  0.00    -0.056 A 
HETATM    8  C           1     -22.653  -4.382  -8.766  0.00  0.00     0.010 A 
HETATM    9  C           1     -23.169  -3.613  -9.808  0.00  0.00     0.038 A 
HETATM   10  C           1     -22.358  -3.274 -10.891  0.00  0.00     0.081 A 
HETATM   11  C           1     -21.032  -3.704 -10.933  0.00  0.00     0.038 A 
HETATM   12  C           1     -20.517  -4.474  -9.889  0.00  0.00     0.010 A 
BRANCH  10  13
HETATM   13  O           1     -22.859  -2.526 -11.904  0.00  0.00    -0.247 OA
BRANCH  13  14
HETATM   14  P           1     -23.897  -3.229 -12.923  0.00  0.00     0.411 P 
HETATM   15  O           1     -25.283  -2.882 -12.532  0.00  0.00    -0.624 OA
HETATM   16  O           1     -23.638  -2.750 -14.299  0.00  0.00    -0.624 OA
BRANCH  14  17
HETATM   17  O           1     -23.708  -4.831 -12.866  0.00  0.00    -0.300 OA
HETATM   18  H           1     -22.842  -4.963 -12.518  0.00  0.00     0.223 HD
ENDBRANCH  14  17
ENDBRANCH  13  14
ENDBRANCH  10  13
ENDBRANCH   6   7
ENDBRANCH   5   6
BRANCH   5  19
HETATM   19  N           1     -19.703  -4.507  -5.772  0.00  0.00    -0.066 N 
HETATM   20  H           1     -19.202  -5.347  -5.403  0.00  0.00     0.275 HD
HETATM   21  H           1     -19.121  -4.052  -6.511  0.00  0.00     0.275 HD
HETATM   22  H           1     -19.872  -3.831  -4.994  0.00  0.00     0.275 HD
ENDBRANCH   5  19
ENDBRANCH   4   5
BRANCH   3  23
HETATM   23  C           1     -21.660  -7.552  -3.645  0.00  0.00     0.185 C 
BRANCH  23  24
HETATM   24  C           1     -20.907  -8.875  -3.589  0.00  0.00     0.038 C 
BRANCH  24  25
HETATM   25  C           1     -21.889 -10.026  -3.757  0.00  0.00     0.023 C 
BRANCH  25  26
HETATM   26  C           1     -21.699 -11.027  -2.625  0.00  0.00     0.138 C 
BRANCH  26  27
HETATM   27  N           1     -21.089 -10.352  -1.471  0.00  0.00    -0.227 N 
HETATM   28  H           1     -20.338  -9.633  -1.619  0.00  0.00     0.177 HD
HETATM   29  C           1     -21.470 -10.636  -0.298  0.00  0.00     0.665 C 
HETATM   30  N           1     -20.931 -10.038   0.723  0.00  0.00    -0.235 N 
HETATM   31  N           1     -22.376 -11.502  -0.118  0.00  0.00    -0.235 N 
HETATM   32  H           1     -20.183  -9.324   0.575  0.00  0.00     0.174 HD
HETATM   33  H           1     -21.246 -10.273   1.692  0.00  0.00     0.174 HD
HETATM   34  H           1     -22.692 -11.737   0.855  0.00  0.00     0.174 HD
HETATM   35  H           1     -22.812 -11.984  -0.943  0.00  0.00     0.174 HD
ENDBRANCH  26  27
ENDBRANCH  25  26
ENDBRANCH  24  25
ENDBRANCH  23  24
BRANCH  23  36
HETATM   36  C           1     -21.697  -6.935  -2.269  0.00  0.00     0.196 C 
HETATM   37  O           1     -21.044  -7.449  -1.335  0.00  0.00    -0.646 OA
HETATM   38  O           1     -22.382  -5.910  -2.061  0.00  0.00    -0.646 OA
ENDBRANCH  23  36
ENDBRANCH   3  23
TORSDOF 13
ENDMDL
MODEL 3
REMARK VINA RESULT:      -8.0      4.713     10.861
REMARK  13 active torsions:
REMARK  status: ('A' for Active; 'I' for Inactive)
REMARK       I    between atoms: N_9  and  C_10 
REMARK       I    between atoms: C_10  and  N_11 
REMARK    1  A    between atoms: N_12  and  C_13 
REMARK    2  A    between atoms: C_13  and  C_14 
REMARK    3  A    between atoms: C_14  and  C_15 
REMARK    4  A    between atoms: C_15  and  C_16 
REMARK    5  A    between atoms: C_16  and  C_17 
REMARK    6  A    between atoms: C_16  and  N_20 
REMARK       I    between atoms: N_20  and  C_21 
REMARK    7  A    between atoms: C_21  and  C_22 
REMARK    8  A    between atoms: C_22  and  C_23 
REMARK    9  A    between atoms: C_22  and  N_35 
REMARK   10  A    between atoms: C_23  and  C_24 
REMARK   11  A    between atoms: C_27  and  O_28 
REMARK   12  A    between atoms: O_28  and  P_29 
REMARK   13  A    between atoms: P_29  and  O_30 
ROOT
HETATM    1  O           1     -20.215  -4.769  -4.995  0.00  0.00    -0.271 OA
HETATM    2  H           1     -21.770  -7.291  -6.025  0.00  0.00     0.163 HD
HETATM    3  N           1     -21.153  -6.746  -5.435  0.00  0.00    -0.345 N 
HETATM    4  C           1     -20.951  -5.418  -5.699  0.00  0.00     0.249 C 
ENDROOT
BRANCH   4   5
HETATM    5  C           1     -21.646  -4.767  -6.870  0.00  0.00     0.278 C 
BRANCH   5   6
HETATM    6  C           1     -21.160  -5.402  -8.166  0.00  0.00     0.081 C 
BRANCH   6   7
HETATM    7  C           1     -21.598  -4.566  -9.327  0.00  0.00    -0.056 A 
HETATM    8  C           1     -22.936  -4.188  -9.450  0.00  0.00     0.010 A 
HETATM    9  C           1     -23.344  -3.408 -10.532  0.00  0.00     0.038 A 
HETATM   10  C           1     -22.414  -3.006 -11.491  0.00  0.00     0.081 A 
HETATM   11  C           1     -21.077  -3.382 -11.368  0.00  0.00     0.038 A 
HETATM   12  C           1     -20.670  -4.163 -10.286  0.00  0.00     0.010 A 
BRANCH  10  13
HETATM   13  O           1     -22.811  -2.248 -12.542  0.00  0.00    -0.247 OA
BRANCH  13  14
HETATM   14  P           1     -23.905  -2.870 -13.554  0.00  0.00     0.411 P 
HETATM   15  O           1     -25.251  -2.364 -13.197  0.00  0.00    -0.624 OA
HETATM   16  O           1     -23.579  -2.469 -14.940  0.00  0.00    -0.624 OA
BRANCH  14  17
HETATM   17  O           1     -23.890  -4.480 -13.442  0.00  0.00    -0.300 OA
HETATM   18  H           1     -24.354  -4.783 -14.204  0.00  0.00     0.223 HD
ENDBRANCH  14  17
ENDBRANCH  13  14
ENDBRANCH  10  13
ENDBRANCH   6   7
ENDBRANCH   5   6
BRANCH   5  19
HETATM   19  N           1     -21.331  -3.301  -6.884  0.00  0.00    -0.066 N 
HETATM   20  H           1     -21.489  -2.901  -5.931  0.00  0.00     0.275 HD
HETATM   21  H           1     -20.332  -3.163  -7.158  0.00  0.00     0.275 HD
HETATM   22  H           1     -21.952  -2.818  -7.572  0.00  0.00     0.275 HD
ENDBRANCH   5  19
ENDBRANCH   4   5
BRANCH   3  23
HETATM   23  C           1     -20.487  -7.372  -4.310  0.00  0.00     0.185 C 
BRANCH  23  24
HETATM   24  C           1     -21.518  -7.759  -3.259  0.00  0.00     0.038 C 
BRANCH  24  25
HETATM   25  C           1     -22.159  -6.501  -2.688  0.00  0.00     0.023 C 
BRANCH  25  26
HETATM   26  C           1     -22.106  -6.548  -1.167  0.00  0.00     0.138 C 
BRANCH  26  27
HETATM   27  N           1     -21.695  -7.890  -0.731  0.00  0.00    -0.227 N 
HETATM   28  H           1     -20.793  -8.301  -1.076  0.00  0.00     0.177 HD
HETATM   29  C           1     -22.429  -8.550   0.061  0.00  0.00     0.665 C 
HETATM   30  N           1     -22.065  -9.736   0.448  0.00  0.00    -0.235 N 
HETATM   31  N           1     -23.517  -8.054   0.479  0.00  0.00    -0.235 N 
HETATM   32  H           1     -21.167 -10.145   0.104  0.00  0.00     0.174 HD
HETATM   33  H           1     -22.671 -10.282   1.103  0.00  0.00     0.174 HD
HETATM   34  H           1     -24.125  -8.602   1.136  0.00  0.00     0.174 HD
HETATM   35  H           1     -23.810  -7.095   0.167  0.00  0.00     0.174 HD
ENDBRANCH  26  27
ENDBRANCH  25  26
ENDBRANCH  24  25
ENDBRANCH  23  24
BRANCH  23  36
HETATM   36  C           1     -19.761  -8.609  -4.781  0.00  0.00     0.196 C 
HETATM   37  O           1     -18.687  -8.948  -4.239  0.00  0.00    -0.646 OA
HETATM   38  O           1     -20.233  -9.293  -5.714  0.00  0.00    -0.646 OA
ENDBRANCH  23  36
ENDBRANCH   3  23
TORSDOF 13
ENDMDL
MODEL 4
REMARK VINA RESULT:      -7.9      5.347     10.418
REMARK  13 active torsions:
REMARK  status: ('A' for Active; 'I' for Inactive)
REMARK       I    between atoms: N_9  and  C_10 
REMARK       I    between atoms: C_10  and  N_11 
REMARK    1  A    between atoms: N_12  and  C_13 
REMARK    2  A    between atoms: C_13  and  C_14 
REMARK    3  A    between atoms: C_14  and  C_15 
REMARK    4  A    between atoms: C_15  and  C_16 
REMARK    5  A    between atoms: C_16  and  C_17 
REMARK    6  A    between atoms: C_16  and  N_20 
REMARK       I    between atoms: N_20  and  C_21 
REMARK    7  A    between atoms: C_21  and  C_22 
REMARK    8  A    between atoms: C_22  and  C_23 
REMARK    9  A    between atoms: C_22  and  N_35 
REMARK   10  A    between atoms: C_23  and  C_24 
REMARK   11  A    between atoms: C_27  and  O_28 
REMARK   12  A    between atoms: O_28  and  P_29 
REMARK   13  A    between atoms: P_29  and  O_30 
ROOT
HETATM    1  O           1     -21.059  -8.592  -6.066  0.00  0.00    -0.271 OA
HETATM    2  H           1     -21.870  -8.439  -3.039  0.00  0.00     0.163 HD
HETATM    3  N           1     -21.539  -8.854  -3.901  0.00  0.00    -0.345 N 
HETATM    4  C           1     -21.453  -8.096  -5.037  0.00  0.00     0.249 C 
ENDROOT
BRANCH   4   5
HETATM    5  C           1     -21.851  -6.640  -5.005  0.00  0.00     0.278 C 
BRANCH   5   6
HETATM    6  C           1     -20.723  -5.792  -5.577  0.00  0.00     0.081 C 
BRANCH   6   7
HETATM    7  C           1     -21.179  -5.145  -6.847  0.00  0.00    -0.056 A 
HETATM    8  C           1     -22.455  -4.588  -6.927  0.00  0.00     0.010 A 
HETATM    9  C           1     -22.880  -3.984  -8.110  0.00  0.00     0.038 A 
HETATM   10  C           1     -22.028  -3.938  -9.214  0.00  0.00     0.081 A 
HETATM   11  C           1     -20.751  -4.493  -9.134  0.00  0.00     0.038 A 
HETATM   12  C           1     -20.327  -5.097  -7.950  0.00  0.00     0.010 A 
BRANCH  10  13
HETATM   13  O           1     -22.440  -3.351 -10.364  0.00  0.00    -0.247 OA
BRANCH  13  14
HETATM   14  P           1     -23.734  -3.969 -11.107  0.00  0.00     0.411 P 
HETATM   15  O           1     -23.592  -3.794 -12.571  0.00  0.00    -0.624 OA
HETATM   16  O           1     -23.843  -5.410 -10.791  0.00  0.00    -0.624 OA
BRANCH  14  17
HETATM   17  O           1     -25.063  -3.205 -10.602  0.00  0.00    -0.300 OA
HETATM   18  H           1     -25.038  -2.364 -11.027  0.00  0.00     0.223 HD
ENDBRANCH  14  17
ENDBRANCH  13  14
ENDBRANCH  10  13
ENDBRANCH   6   7
ENDBRANCH   5   6
BRANCH   5  19
HETATM   19  N           1     -22.117  -6.227  -3.587  0.00  0.00    -0.066 N 
HETATM   20  H           1     -22.054  -7.063  -2.963  0.00  0.00     0.275 HD
HETATM   21  H           1     -21.407  -5.519  -3.293  0.00  0.00     0.275 HD
HETATM   22  H           1     -23.074  -5.812  -3.519  0.00  0.00     0.275 HD
ENDBRANCH   5  19
ENDBRANCH   4   5
BRANCH   3  23
HETATM   23  C           1     -21.156 -10.252  -3.931  0.00  0.00     0.185 C 
BRANCH  23  24
HETATM   24  C           1     -20.212 -10.546  -2.773  0.00  0.00     0.038 C 
BRANCH  24  25
HETATM   25  C           1     -20.189  -9.357  -1.822  0.00  0.00     0.023 C 
BRANCH  25  26
HETATM   26  C           1     -20.767  -9.770  -0.476  0.00  0.00     0.138 C 
BRANCH  26  27
HETATM   27  N           1     -21.620  -8.692   0.044  0.00  0.00    -0.227 N 
HETATM   28  H           1     -21.196  -7.771   0.316  0.00  0.00     0.177 HD
HETATM   29  C           1     -22.867  -8.874   0.163  0.00  0.00     0.665 C 
HETATM   30  N           1     -23.622  -7.920   0.621  0.00  0.00    -0.235 N 
HETATM   31  N           1     -23.380  -9.984  -0.166  0.00  0.00    -0.235 N 
HETATM   32  H           1     -23.199  -7.005   0.893  0.00  0.00     0.174 HD
HETATM   33  H           1     -24.652  -8.071   0.720  0.00  0.00     0.174 HD
HETATM   34  H           1     -24.414 -10.135  -0.067  0.00  0.00     0.174 HD
HETATM   35  H           1     -22.770 -10.754  -0.537  0.00  0.00     0.174 HD
ENDBRANCH  26  27
ENDBRANCH  25  26
ENDBRANCH  24  25
ENDBRANCH  23  24
BRANCH  23  36
HETATM   36  C           1     -22.389 -11.114  -3.806  0.00  0.00     0.196 C 
HETATM   37  O           1     -23.124 -11.012  -2.802  0.00  0.00    -0.646 OA
HETATM   38  O           1     -22.674 -11.931  -4.709  0.00  0.00    -0.646 OA
ENDBRANCH  23  36
ENDBRANCH   3  23
TORSDOF 13
ENDMDL
MODEL 5
REMARK VINA RESULT:      -7.7      1.326      2.172
REMARK  13 active torsions:
REMARK  status: ('A' for Active; 'I' for Inactive)
REMARK       I    between atoms: N_9  and  C_10 
REMARK       I    between atoms: C_10  and  N_11 
REMARK    1  A    between atoms: N_12  and  C_13 
REMARK    2  A    between atoms: C_13  and  C_14 
REMARK    3  A    between atoms: C_14  and  C_15 
REMARK    4  A    between atoms: C_15  and  C_16 
REMARK    5  A    between atoms: C_16  and  C_17 
REMARK    6  A    between atoms: C_16  and  N_20 
REMARK       I    between atoms: N_20  and  C_21 
REMARK    7  A    between atoms: C_21  and  C_22 
REMARK    8  A    between atoms: C_22  and  C_23 
REMARK    9  A    between atoms: C_22  and  N_35 
REMARK   10  A    between atoms: C_23  and  C_24 
REMARK   11  A    between atoms: C_27  and  O_28 
REMARK   12  A    between atoms: O_28  and  P_29 
REMARK   13  A    between atoms: P_29  and  O_30 
ROOT
HETATM    1  O           1     -21.345  -3.209  -7.456  0.00  0.00    -0.271 OA
HETATM    2  H           1     -22.370  -5.771  -8.946  0.00  0.00     0.163 HD
HETATM    3  N           1     -22.219  -4.785  -8.773  0.00  0.00    -0.345 N 
HETATM    4  C           1     -21.525  -4.385  -7.663  0.00  0.00     0.249 C 
ENDROOT
BRANCH   4   5
HETATM    5  C           1     -20.984  -5.413  -6.699  0.00  0.00     0.278 C 
BRANCH   5   6
HETATM    6  C           1     -22.101  -5.878  -5.774  0.00  0.00     0.081 C 
BRANCH   6   7
HETATM    7  C           1     -21.550  -6.843  -4.772  0.00  0.00    -0.056 A 
HETATM    8  C           1     -20.887  -7.993  -5.201  0.00  0.00     0.010 A 
HETATM    9  C           1     -20.373  -8.892  -4.267  0.00  0.00     0.038 A 
HETATM   10  C           1     -20.522  -8.641  -2.903  0.00  0.00     0.081 A 
HETATM   11  C           1     -21.185  -7.492  -2.473  0.00  0.00     0.038 A 
HETATM   12  C           1     -21.699  -6.593  -3.408  0.00  0.00     0.010 A 
BRANCH  10  13
HETATM   13  O           1     -20.023  -9.515  -1.996  0.00  0.00    -0.247 OA
BRANCH  13  14
HETATM   14  P           1     -18.735 -10.393  -2.419  0.00  0.00     0.411 P 
HETATM   15  O           1     -17.618  -9.489  -2.776  0.00  0.00    -0.624 OA
HETATM   16  O           1     -18.331 -11.254  -1.285  0.00  0.00    -0.624 OA
BRANCH  14  17
HETATM   17  O           1     -19.105 -11.317  -3.690  0.00  0.00    -0.300 OA
HETATM   18  H           1     -19.042 -12.203  -3.375  0.00  0.00     0.223 HD
ENDBRANCH  14  17
ENDBRANCH  13  14
ENDBRANCH  10  13
ENDBRANCH   6   7
ENDBRANCH   5   6
BRANCH   5  19
HETATM   19  N           1     -19.883  -4.803  -5.884  0.00  0.00    -0.066 N 
HETATM   20  H           1     -20.225  -3.919  -5.442  0.00  0.00     0.275 HD
HETATM   21  H           1     -19.590  -5.474  -5.139  0.00  0.00     0.275 HD
HETATM   22  H           1     -19.068  -4.590  -6.503  0.00  0.00     0.275 HD
ENDBRANCH   5  19
ENDBRANCH   4   5
BRANCH   3  23
HETATM   23  C           1     -22.738  -3.799  -9.699  0.00  0.00     0.185 C 
BRANCH  23  24
HETATM   24  C           1     -22.221  -4.096 -11.100  0.00  0.00     0.038 C 
BRANCH  24  25
HETATM   25  C           1     -22.351  -2.850 -11.966  0.00  0.00     0.023 C 
BRANCH  25  26
HETATM   26  C           1     -23.285  -3.137 -13.134  0.00  0.00     0.138 C 
BRANCH  26  27
HETATM   27  N           1     -22.751  -2.514 -14.353  0.00  0.00    -0.227 N 
HETATM   28  H           1     -21.890  -2.903 -14.809  0.00  0.00     0.177 HD
HETATM   29  C           1     -23.332  -1.507 -14.855  0.00  0.00     0.665 C 
HETATM   30  N           1     -22.861  -0.956 -15.935  0.00  0.00    -0.235 N 
HETATM   31  N           1     -24.372  -1.037 -14.307  0.00  0.00    -0.235 N 
HETATM   32  H           1     -22.003  -1.344 -16.387  0.00  0.00     0.174 HD
HETATM   33  H           1     -23.340  -0.125 -16.349  0.00  0.00     0.174 HD
HETATM   34  H           1     -24.853  -0.202 -14.724  0.00  0.00     0.174 HD
HETATM   35  H           1     -24.753  -1.482 -13.436  0.00  0.00     0.174 HD
ENDBRANCH  26  27
ENDBRANCH  25  26
ENDBRANCH  24  25
ENDBRANCH  23  24
BRANCH  23  36
HETATM   36  C           1     -24.246  -3.851  -9.698  0.00  0.00     0.196 C 
HETATM   37  O           1     -24.834  -4.934  -9.905  0.00  0.00    -0.646 OA
HETATM   38  O           1     -24.908  -2.811  -9.490  0.00  0.00    -0.646 OA
ENDBRANCH  23  36
ENDBRANCH   3  23
TORSDOF 13
ENDMDL
MODEL 6
REMARK VINA RESULT:      -7.7      5.434     10.536
REMARK  13 active torsions:
REMARK  status: ('A' for Active; 'I' for Inactive)
REMARK       I    between atoms: N_9  and  C_10 
REMARK       I    between atoms: C_10  and  N_11 
REMARK    1  A    between atoms: N_12  and  C_13 
REMARK    2  A    between atoms: C_13  and  C_14 
REMARK    3  A    between atoms: C_14  and  C_15 
REMARK    4  A    between atoms: C_15  and  C_16 
REMARK    5  A    between atoms: C_16  and  C_17 
REMARK    6  A    between atoms: C_16  and  N_20 
REMARK       I    between atoms: N_20  and  C_21 
REMARK    7  A    between atoms: C_21  and  C_22 
REMARK    8  A    between atoms: C_22  and  C_23 
REMARK    9  A    between atoms: C_22  and  N_35 
REMARK   10  A    between atoms: C_23  and  C_24 
REMARK   11  A    between atoms: C_27  and  O_28 
REMARK   12  A    between atoms: O_28  and  P_29 
REMARK   13  A    between atoms: P_29  and  O_30 
ROOT
HETATM    1  O           1     -19.325  -6.923  -6.643  0.00  0.00    -0.271 OA
HETATM    2  H           1     -21.183  -8.017  -4.366  0.00  0.00     0.163 HD
HETATM    3  N           1     -20.367  -7.956  -4.961  0.00  0.00    -0.345 N 
HETATM    4  C           1     -20.298  -6.994  -5.933  0.00  0.00     0.249 C 
ENDROOT
BRANCH   4   5
HETATM    5  C           1     -21.440  -6.024  -6.116  0.00  0.00     0.278 C 
BRANCH   5   6
HETATM    6  C           1     -20.910  -4.718  -6.691  0.00  0.00     0.081 C 
BRANCH   6   7
HETATM    7  C           1     -21.244  -4.641  -8.148  0.00  0.00    -0.056 A 
HETATM    8  C           1     -20.226  -4.504  -9.091  0.00  0.00     0.010 A 
HETATM    9  C           1     -20.537  -4.433 -10.449  0.00  0.00     0.038 A 
HETATM   10  C           1     -21.867  -4.500 -10.863  0.00  0.00     0.081 A 
HETATM   11  C           1     -22.886  -4.638  -9.921  0.00  0.00     0.038 A 
HETATM   12  C           1     -22.574  -4.709  -8.563  0.00  0.00     0.010 A 
BRANCH  10  13
HETATM   13  O           1     -22.169  -4.432 -12.183  0.00  0.00    -0.247 OA
BRANCH  13  14
HETATM   14  P           1     -22.843  -3.072 -12.736  0.00  0.00     0.411 P 
HETATM   15  O           1     -24.309  -3.132 -12.534  0.00  0.00    -0.624 OA
HETATM   16  O           1     -22.291  -1.913 -12.001  0.00  0.00    -0.624 OA
BRANCH  14  17
HETATM   17  O           1     -22.524  -2.913 -14.310  0.00  0.00    -0.300 OA
HETATM   18  H           1     -21.584  -2.945 -14.373  0.00  0.00     0.223 HD
ENDBRANCH  14  17
ENDBRANCH  13  14
ENDBRANCH  10  13
ENDBRANCH   6   7
ENDBRANCH   5   6
BRANCH   5  19
HETATM   19  N           1     -22.087  -5.759  -4.788  0.00  0.00    -0.066 N 
HETATM   20  H           1     -22.996  -6.273  -4.734  0.00  0.00     0.275 HD
HETATM   21  H           1     -21.456  -6.087  -4.023  0.00  0.00     0.275 HD
HETATM   22  H           1     -22.259  -4.734  -4.684  0.00  0.00     0.275 HD
ENDBRANCH   5  19
ENDBRANCH   4   5
BRANCH   3  23
HETATM   23  C           1     -19.270  -8.888  -4.784  0.00  0.00     0.185 C 
BRANCH  23  24
HETATM   24  C           1     -19.028  -9.112  -3.298  0.00  0.00     0.038 C 
BRANCH  24  25
HETATM   25  C           1     -20.363  -9.164  -2.568  0.00  0.00     0.023 C 
BRANCH  25  26
HETATM   26  C           1     -20.362  -8.149  -1.432  0.00  0.00     0.138 C 
BRANCH  26  27
HETATM   27  N           1     -21.424  -8.485  -0.472  0.00  0.00    -0.227 N 
HETATM   28  H           1     -21.349  -9.355   0.111  0.00  0.00     0.177 HD
HETATM   29  C           1     -22.428  -7.725  -0.348  0.00  0.00     0.665 C 
HETATM   30  N           1     -23.366  -8.021   0.501  0.00  0.00    -0.235 N 
HETATM   31  N           1     -22.519  -6.675  -1.051  0.00  0.00    -0.235 N 
HETATM   32  H           1     -23.291  -8.887   1.081  0.00  0.00     0.174 HD
HETATM   33  H           1     -24.196  -7.393   0.603  0.00  0.00     0.174 HD
HETATM   34  H           1     -23.352  -6.045  -0.947  0.00  0.00     0.174 HD
HETATM   35  H           1     -21.760  -6.436  -1.736  0.00  0.00     0.174 HD
ENDBRANCH  26  27
ENDBRANCH  25  26
ENDBRANCH  24  25
ENDBRANCH  23  24
BRANCH  23  36
HETATM   36  C           1     -19.616 -10.202  -5.441  0.00  0.00     0.196 C 
HETATM   37  O           1     -18.749 -11.096  -5.545  0.00  0.00    -0.646 OA
HETATM   38  O           1     -20.770 -10.395  -5.882  0.00  0.00    -0.646 OA
ENDBRANCH  23  36
ENDBRANCH   3  23
TORSDOF 13
ENDMDL
MODEL 7
REMARK VINA RESULT:      -7.5     12.191     14.609
REMARK  13 active torsions:
REMARK  status: ('A' for Active; 'I' for Inactive)
REMARK       I    between atoms: N_9  and  C_10 
REMARK       I    between atoms: C_10  and  N_11 
REMARK    1  A    between atoms: N_12  and  C_13 
REMARK    2  A    between atoms: C_13  and  C_14 
REMARK    3  A    between atoms: C_14  and  C_15 
REMARK    4  A    between atoms: C_15  and  C_16 
REMARK    5  A    between atoms: C_16  and  C_17 
REMARK    6  A    between atoms: C_16  and  N_20 
REMARK       I    between atoms: N_20  and  C_21 
REMARK    7  A    between atoms: C_21  and  C_22 
REMARK    8  A    between atoms: C_22  and  C_23 
REMARK    9  A    between atoms: C_22  and  N_35 
REMARK   10  A    between atoms: C_23  and  C_24 
REMARK   11  A    between atoms: C_27  and  O_28 
REMARK   12  A    between atoms: O_28  and  P_29 
REMARK   13  A    between atoms: P_29  and  O_30 
ROOT
HETATM    1  O           1     -34.911  -5.161 -15.455  0.00  0.00    -0.271 OA
HETATM    2  H           1     -32.321  -3.692 -14.468  0.00  0.00     0.163 HD
HETATM    3  N           1     -33.257  -4.074 -14.422  0.00  0.00    -0.345 N 
HETATM    4  C           1     -33.793  -4.707 -15.511  0.00  0.00     0.249 C 
ENDROOT
BRANCH   4   5
HETATM    5  C           1     -32.987  -4.836 -16.780  0.00  0.00     0.278 C 
BRANCH   5   6
HETATM    6  C           1     -32.425  -6.248 -16.884  0.00  0.00     0.081 C 
BRANCH   6   7
HETATM    7  C           1     -30.935  -6.186 -16.998  0.00  0.00    -0.056 A 
HETATM    8  C           1     -30.160  -5.912 -15.871  0.00  0.00     0.010 A 
HETATM    9  C           1     -28.770  -5.854 -15.976  0.00  0.00     0.038 A 
HETATM   10  C           1     -28.156  -6.071 -17.210  0.00  0.00     0.081 A 
HETATM   11  C           1     -28.929  -6.347 -18.336  0.00  0.00     0.038 A 
HETATM   12  C           1     -30.319  -6.404 -18.230  0.00  0.00     0.010 A 
BRANCH  10  13
HETATM   13  O           1     -26.805  -6.016 -17.312  0.00  0.00    -0.247 OA
BRANCH  13  14
HETATM   14  P           1     -25.928  -6.688 -16.134  0.00  0.00     0.411 P 
HETATM   15  O           1     -25.307  -5.623 -15.313  0.00  0.00    -0.624 OA
HETATM   16  O           1     -26.803  -7.522 -15.281  0.00  0.00    -0.624 OA
BRANCH  14  17
HETATM   17  O           1     -24.772  -7.610 -16.782  0.00  0.00    -0.300 OA
HETATM   18  H           1     -24.113  -7.004 -17.077  0.00  0.00     0.223 HD
ENDBRANCH  14  17
ENDBRANCH  13  14
ENDBRANCH  10  13
ENDBRANCH   6   7
ENDBRANCH   5   6
BRANCH   5  19
HETATM   19  N           1     -31.857  -3.850 -16.757  0.00  0.00    -0.066 N 
HETATM   20  H           1     -31.034  -4.251 -17.262  0.00  0.00     0.275 HD
HETATM   21  H           1     -32.157  -2.966 -17.227  0.00  0.00     0.275 HD
HETATM   22  H           1     -31.593  -3.647 -15.766  0.00  0.00     0.275 HD
ENDBRANCH   5  19
ENDBRANCH   4   5
BRANCH   3  23
HETATM   23  C           1     -34.031  -3.949 -13.202  0.00  0.00     0.185 C 
BRANCH  23  24
HETATM   24  C           1     -33.088  -3.882 -12.008  0.00  0.00     0.038 C 
BRANCH  24  25
HETATM   25  C           1     -33.752  -4.527 -10.799  0.00  0.00     0.023 C 
BRANCH  25  26
HETATM   26  C           1     -34.641  -5.674 -11.258  0.00  0.00     0.138 C 
BRANCH  26  27
HETATM   27  N           1     -33.911  -6.943 -11.128  0.00  0.00    -0.227 N 
HETATM   28  H           1     -33.101  -7.150 -11.762  0.00  0.00     0.177 HD
HETATM   29  C           1     -34.259  -7.786 -10.251  0.00  0.00     0.665 C 
HETATM   30  N           1     -33.613  -8.908 -10.135  0.00  0.00    -0.235 N 
HETATM   31  N           1     -35.236  -7.537  -9.484  0.00  0.00    -0.235 N 
HETATM   32  H           1     -32.807  -9.114 -10.767  0.00  0.00     0.174 HD
HETATM   33  H           1     -33.901  -9.605  -9.410  0.00  0.00     0.174 HD
HETATM   34  H           1     -35.524  -8.237  -8.757  0.00  0.00     0.174 HD
HETATM   35  H           1     -35.757  -6.630  -9.578  0.00  0.00     0.174 HD
ENDBRANCH  26  27
ENDBRANCH  25  26
ENDBRANCH  24  25
ENDBRANCH  23  24
BRANCH  23  36
HETATM   36  C           1     -34.862  -2.691 -13.259  0.00  0.00     0.196 C 
HETATM   37  O           1     -35.594  -2.381 -12.295  0.00  0.00    -0.646 OA
HETATM   38  O           1     -34.818  -1.959 -14.271  0.00  0.00    -0.646 OA
ENDBRANCH  23  36
ENDBRANCH   3  23
TORSDOF 13
ENDMDL
MODEL 8
REMARK VINA RESULT:      -7.3      5.167     10.630
REMARK  13 active torsions:
REMARK  status: ('A' for Active; 'I' for Inactive)
REMARK       I    between atoms: N_9  and  C_10 
REMARK       I    between atoms: C_10  and  N_11 
REMARK    1  A    between atoms: N_12  and  C_13 
REMARK    2  A    between atoms: C_13  and  C_14 
REMARK    3  A    between atoms: C_14  and  C_15 
REMARK    4  A    between atoms: C_15  and  C_16 
REMARK    5  A    between atoms: C_16  and  C_17 
REMARK    6  A    between atoms: C_16  and  N_20 
REMARK       I    between atoms: N_20  and  C_21 
REMARK    7  A    between atoms: C_21  and  C_22 
REMARK    8  A    between atoms: C_22  and  C_23 
REMARK    9  A    between atoms: C_22  and  N_35 
REMARK   10  A    between atoms: C_23  and  C_24 
REMARK   11  A    between atoms: C_27  and  O_28 
REMARK   12  A    between atoms: O_28  and  P_29 
REMARK   13  A    between atoms: P_29  and  O_30 
ROOT
HETATM    1  O           1     -20.435  -7.598  -3.726  0.00  0.00    -0.271 OA
HETATM    2  H           1     -20.258  -8.804  -6.617  0.00  0.00     0.163 HD
HETATM    3  N           1     -20.090  -8.727  -5.621  0.00  0.00    -0.345 N 
HETATM    4  C           1     -20.636  -7.690  -4.913  0.00  0.00     0.249 C 
ENDROOT
BRANCH   4   5
HETATM    5  C           1     -21.487  -6.662  -5.617  0.00  0.00     0.278 C 
BRANCH   5   6
HETATM    6  C           1     -20.633  -5.452  -5.972  0.00  0.00     0.081 C 
BRANCH   6   7
HETATM    7  C           1     -21.083  -4.890  -7.283  0.00  0.00    -0.056 A 
HETATM    8  C           1     -22.284  -4.186  -7.367  0.00  0.00     0.010 A 
HETATM    9  C           1     -22.703  -3.662  -8.589  0.00  0.00     0.038 A 
HETATM   10  C           1     -21.920  -3.841  -9.729  0.00  0.00     0.081 A 
HETATM   11  C           1     -20.719  -4.544  -9.647  0.00  0.00     0.038 A 
HETATM   12  C           1     -20.300  -5.068  -8.424  0.00  0.00     0.010 A 
BRANCH  10  13
HETATM   13  O           1     -22.327  -3.331 -10.917  0.00  0.00    -0.247 OA
BRANCH  13  14
HETATM   14  P           1     -23.662  -3.945 -11.587  0.00  0.00     0.411 P 
HETATM   15  O           1     -23.869  -5.327 -11.097  0.00  0.00    -0.624 OA
HETATM   16  O           1     -24.828  -3.111 -11.218  0.00  0.00    -0.624 OA
BRANCH  14  17
HETATM   17  O           1     -23.501  -3.964 -13.193  0.00  0.00    -0.300 OA
HETATM   18  H           1     -24.377  -3.871 -13.528  0.00  0.00     0.223 HD
ENDBRANCH  14  17
ENDBRANCH  13  14
ENDBRANCH  10  13
ENDBRANCH   6   7
ENDBRANCH   5   6
BRANCH   5  19
HETATM   19  N           1     -22.606  -6.236  -4.713  0.00  0.00    -0.066 N 
HETATM   20  H           1     -23.470  -6.774  -4.950  0.00  0.00     0.275 HD
HETATM   21  H           1     -22.340  -6.426  -3.720  0.00  0.00     0.275 HD
HETATM   22  H           1     -22.785  -5.215  -4.838  0.00  0.00     0.275 HD
ENDBRANCH   5  19
ENDBRANCH   4   5
BRANCH   3  23
HETATM   23  C           1     -19.272  -9.716  -4.946  0.00  0.00     0.185 C 
BRANCH  23  24
HETATM   24  C           1     -20.147 -10.878  -4.497  0.00  0.00     0.038 C 
BRANCH  24  25
HETATM   25  C           1     -20.027 -11.053  -2.990  0.00  0.00     0.023 C 
BRANCH  25  26
HETATM   26  C           1     -18.879 -10.200  -2.468  0.00  0.00     0.138 C 
BRANCH  26  27
HETATM   27  N           1     -17.788 -11.073  -2.009  0.00  0.00    -0.227 N 
HETATM   28  H           1     -18.008 -11.981  -1.531  0.00  0.00     0.177 HD
HETATM   29  C           1     -16.584 -10.729  -2.191  0.00  0.00     0.665 C 
HETATM   30  N           1     -15.619 -11.501  -1.786  0.00  0.00    -0.235 N 
HETATM   31  N           1     -16.317  -9.634  -2.768  0.00  0.00    -0.235 N 
HETATM   32  H           1     -15.839 -12.405  -1.310  0.00  0.00     0.174 HD
HETATM   33  H           1     -14.625 -11.217  -1.935  0.00  0.00     0.174 HD
HETATM   34  H           1     -15.318  -9.349  -2.918  0.00  0.00     0.174 HD
HETATM   35  H           1     -17.097  -9.011  -3.095  0.00  0.00     0.174 HD
ENDBRANCH  26  27
ENDBRANCH  25  26
ENDBRANCH  24  25
ENDBRANCH  23  24
BRANCH  23  36
HETATM   36  C           1     -18.210 -10.220  -5.891  0.00  0.00     0.196 C 
HETATM   37  O           1     -18.527 -10.942  -6.861  0.00  0.00    -0.646 OA
HETATM   38  O           1     -17.012  -9.917  -5.704  0.00  0.00    -0.646 OA
ENDBRANCH  23  36
ENDBRANCH   3  23
TORSDOF 13
ENDMDL
MODEL 9
REMARK VINA RESULT:      -7.0      1.492      2.104
REMARK  13 active torsions:
REMARK  status: ('A' for Active; 'I' for Inactive)
REMARK       I    between atoms: N_9  and  C_10 
REMARK       I    between atoms: C_10  and  N_11 
REMARK    1  A    between atoms: N_12  and  C_13 
REMARK    2  A    between atoms: C_13  and  C_14 
REMARK    3  A    between atoms: C_14  and  C_15 
REMARK    4  A    between atoms: C_15  and  C_16 
REMARK    5  A    between atoms: C_16  and  C_17 
REMARK    6  A    between atoms: C_16  and  N_20 
REMARK       I    between atoms: N_20  and  C_21 
REMARK    7  A    between atoms: C_21  and  C_22 
REMARK    8  A    between atoms: C_22  and  C_23 
REMARK    9  A    between atoms: C_22  and  N_35 
REMARK   10  A    between atoms: C_23  and  C_24 
REMARK   11  A    between atoms: C_27  and  O_28 
REMARK   12  A    between atoms: O_28  and  P_29 
REMARK   13  A    between atoms: P_29  and  O_30 
ROOT
HETATM    1  O           1     -21.219  -3.527  -7.581  0.00  0.00    -0.271 OA
HETATM    2  H           1     -21.467  -6.487  -8.586  0.00  0.00     0.163 HD
HETATM    3  N           1     -21.508  -5.476  -8.629  0.00  0.00    -0.345 N 
HETATM    4  C           1     -21.169  -4.732  -7.531  0.00  0.00     0.249 C 
ENDROOT
BRANCH   4   5
HETATM    5  C           1     -20.736  -5.418  -6.258  0.00  0.00     0.278 C 
BRANCH   5   6
HETATM    6  C           1     -21.962  -5.935  -5.517  0.00  0.00     0.081 C 
BRANCH   6   7
HETATM    7  C           1     -21.529  -6.830  -4.398  0.00  0.00    -0.056 A 
HETATM    8  C           1     -21.795  -6.473  -3.076  0.00  0.00     0.010 A 
HETATM    9  C           1     -21.392  -7.307  -2.033  0.00  0.00     0.038 A 
HETATM   10  C           1     -20.723  -8.499  -2.313  0.00  0.00     0.081 A 
HETATM   11  C           1     -20.457  -8.856  -3.634  0.00  0.00     0.038 A 
HETATM   12  C           1     -20.860  -8.022  -4.677  0.00  0.00     0.010 A 
BRANCH  10  13
HETATM   13  O           1     -20.331  -9.309  -1.300  0.00  0.00    -0.247 OA
BRANCH  13  14
HETATM   14  P           1     -21.415 -10.342  -0.694  0.00  0.00     0.411 P 
HETATM   15  O           1     -20.819 -11.695  -0.621  0.00  0.00    -0.624 OA
HETATM   16  O           1     -21.810  -9.902   0.663  0.00  0.00    -0.624 OA
BRANCH  14  17
HETATM   17  O           1     -22.717 -10.379  -1.648  0.00  0.00    -0.300 OA
HETATM   18  H           1     -22.933 -11.293  -1.730  0.00  0.00     0.223 HD
ENDBRANCH  14  17
ENDBRANCH  13  14
ENDBRANCH  10  13
ENDBRANCH   6   7
ENDBRANCH   5   6
BRANCH   5  19
HETATM   19  N           1     -20.002  -4.441  -5.389  0.00  0.00    -0.066 N 
HETATM   20  H           1     -19.383  -3.843  -5.983  0.00  0.00     0.275 HD
HETATM   21  H           1     -20.691  -3.837  -4.887  0.00  0.00     0.275 HD
HETATM   22  H           1     -19.421  -4.961  -4.694  0.00  0.00     0.275 HD
ENDBRANCH   5  19
ENDBRANCH   4   5
BRANCH   3  23
HETATM   23  C           1     -21.924  -4.818  -9.851  0.00  0.00     0.185 C 
BRANCH  23  24
HETATM   24  C           1     -22.934  -3.727  -9.523  0.00  0.00     0.038 C 
BRANCH  24  25
HETATM   25  C           1     -24.273  -4.064 -10.163  0.00  0.00     0.023 C 
BRANCH  25  26
HETATM   26  C           1     -24.488  -3.184 -11.387  0.00  0.00     0.138 C 
BRANCH  26  27
HETATM   27  N           1     -23.543  -3.574 -12.444  0.00  0.00    -0.227 N 
HETATM   28  H           1     -23.015  -4.478 -12.369  0.00  0.00     0.177 HD
HETATM   29  C           1     -23.368  -2.821 -13.446  0.00  0.00     0.665 C 
HETATM   30  N           1     -22.534  -3.167 -14.382  0.00  0.00    -0.235 N 
HETATM   31  N           1     -24.006  -1.731 -13.539  0.00  0.00    -0.235 N 
HETATM   32  H           1     -22.008  -4.066 -14.305  0.00  0.00     0.174 HD
HETATM   33  H           1     -22.389  -2.545 -15.209  0.00  0.00     0.174 HD
HETATM   34  H           1     -23.861  -1.107 -14.370  0.00  0.00     0.174 HD
HETATM   35  H           1     -24.680  -1.453 -12.784  0.00  0.00     0.174 HD
ENDBRANCH  26  27
ENDBRANCH  25  26
ENDBRANCH  24  25
ENDBRANCH  23  24
BRANCH  23  36
HETATM   36  C           1     -20.722  -4.205 -10.527  0.00  0.00     0.196 C 
HETATM   37  O           1     -20.804  -3.067 -11.037  0.00  0.00    -0.646 OA
HETATM   38  O           1     -19.644  -4.836 -10.577  0.00  0.00    -0.646 OA
ENDBRANCH  23  36
ENDBRANCH   3  23
TORSDOF 13
ENDMDL
