MODEL 1
REMARK VINA RESULT:      -6.3      0.000      0.000
REMARK  8 active torsions:
REMARK  status: ('A' for Active; 'I' for Inactive)
REMARK    1  A    between atoms: C_1  and  C_9 
REMARK    2  A    between atoms: C_1  and  C_18 
REMARK       I    between atoms: C_2  and  N_3 
REMARK    3  A    between atoms: C_2  and  C_9 
REMARK    4  A    between atoms: N_3  and  C_12 
REMARK    5  A    between atoms: C_7  and  C_12 
REMARK    6  A    between atoms: C_9  and  N_16 
REMARK    7  A    between atoms: C_10  and  C_20 
REMARK    8  A    between atoms: C_12  and  C_20 
ROOT
HETATM    1  C           1     -22.248  -4.139  -7.719  0.00  0.00     0.249 C 
HETATM    2  N           1     -23.062  -4.489  -8.762  0.00  0.00    -0.345 N 
HETATM    3  H           1     -23.678  -5.288  -8.676  0.00  0.00     0.163 HD
HETATM    4  O           1     -21.512  -3.187  -7.821  0.00  0.00    -0.271 OA
ENDROOT
BRANCH   1   5
HETATM    5  C           1     -22.269  -4.943  -6.442  0.00  0.00     0.278 C 
BRANCH   5   6
HETATM    6  C           1     -21.456  -6.217  -6.630  0.00  0.00     0.021 C 
HETATM    7  C           1     -19.989  -5.858  -6.832  0.00  0.00     0.012 C 
BRANCH   6   8
HETATM    8  C           1     -21.596  -7.096  -5.394  0.00  0.00     0.002 C 
HETATM    9  C           1     -20.286  -7.830  -5.141  0.00  0.00     0.005 C 
ENDBRANCH   6   8
ENDBRANCH   5   6
BRANCH   5  10
HETATM   10  N           1     -23.684  -5.300  -6.098  0.00  0.00    -0.066 N 
HETATM   11  H           1     -23.756  -6.332  -5.947  0.00  0.00     0.275 HD
HETATM   12  H           1     -24.315  -5.017  -6.881  0.00  0.00     0.275 HD
HETATM   13  H           1     -23.967  -4.799  -5.225  0.00  0.00     0.275 HD
ENDBRANCH   5  10
ENDBRANCH   1   5
BRANCH   2  14
HETATM   14  C           1     -23.042  -3.718  -9.989  0.00  0.00     0.185 C 
BRANCH  14  15
HETATM   15  C           1     -24.441  -3.257 -10.316  0.00  0.00     0.196 C 
HETATM   16  O           1     -24.824  -3.217 -11.505  0.00  0.00    -0.646 OA
HETATM   17  O           1     -25.219  -2.917  -9.398  0.00  0.00    -0.646 OA
ENDBRANCH  14  15
BRANCH  14  18
HETATM   18  C           1     -22.514  -4.585 -11.125  0.00  0.00     0.040 C 
BRANCH  18  19
HETATM   19  C           1     -21.110  -4.130 -11.501  0.00  0.00    -0.020 C 
HETATM   20  C           1     -21.003  -2.620 -11.329  0.00  0.00     0.009 C 
HETATM   21  C           1     -20.094  -4.818 -10.598  0.00  0.00     0.009 C 
ENDBRANCH  18  19
ENDBRANCH  14  18
ENDBRANCH   2  14
TORSDOF 8
ENDMDL
MODEL 2
REMARK VINA RESULT:      -6.1     12.022     13.795
REMARK  8 active torsions:
REMARK  status: ('A' for Active; 'I' for Inactive)
REMARK    1  A    between atoms: C_1  and  C_9 
REMARK    2  A    between atoms: C_1  and  C_18 
REMARK       I    between atoms: C_2  and  N_3 
REMARK    3  A    between atoms: C_2  and  C_9 
REMARK    4  A    between atoms: N_3  and  C_12 
REMARK    5  A    between atoms: C_7  and  C_12 
REMARK    6  A    between atoms: C_9  and  N_16 
REMARK    7  A    between atoms: C_10  and  C_20 
REMARK    8  A    between atoms: C_12  and  C_20 
ROOT
HETATM    1  C           1     -34.021  -2.495 -11.683  0.00  0.00     0.249 C 
HETATM    2  N           1     -34.901  -1.779 -12.449  0.00  0.00    -0.345 N 
HETATM    3  H           1     -35.419  -2.239 -13.187  0.00  0.00     0.163 HD
HETATM    4  O           1     -33.402  -1.947 -10.803  0.00  0.00    -0.271 OA
ENDROOT
BRANCH   1   5
HETATM    5  C           1     -33.824  -3.970 -11.938  0.00  0.00     0.278 C 
BRANCH   5   6
HETATM    6  C           1     -34.279  -4.762 -10.720  0.00  0.00     0.021 C 
HETATM    7  C           1     -35.794  -4.675 -10.594  0.00  0.00     0.012 C 
BRANCH   6   8
HETATM    8  C           1     -33.867  -6.219 -10.880  0.00  0.00     0.002 C 
HETATM    9  C           1     -34.759  -7.098 -10.014  0.00  0.00     0.005 C 
ENDBRANCH   6   8
ENDBRANCH   5   6
BRANCH   5  10
HETATM   10  N           1     -32.372  -4.242 -12.198  0.00  0.00    -0.066 N 
HETATM   11  H           1     -31.802  -3.429 -11.871  0.00  0.00     0.275 HD
HETATM   12  H           1     -32.222  -4.384 -13.222  0.00  0.00     0.275 HD
HETATM   13  H           1     -32.081  -5.103 -11.681  0.00  0.00     0.275 HD
ENDBRANCH   5  10
ENDBRANCH   1   5
BRANCH   2  14
HETATM   14  C           1     -35.090  -0.363 -12.204  0.00  0.00     0.185 C 
BRANCH  14  15
HETATM   15  C           1     -36.270  -0.165 -11.284  0.00  0.00     0.196 C 
HETATM   16  O           1     -37.213  -0.985 -11.293  0.00  0.00    -0.646 OA
HETATM   17  O           1     -36.304   0.817 -10.512  0.00  0.00    -0.646 OA
ENDBRANCH  14  15
BRANCH  14  18
HETATM   18  C           1     -35.351   0.349 -13.525  0.00  0.00     0.040 C 
BRANCH  18  19
HETATM   19  C           1     -36.149  -0.565 -14.446  0.00  0.00    -0.020 C 
HETATM   20  C           1     -37.556  -0.010 -14.617  0.00  0.00     0.009 C 
HETATM   21  C           1     -35.463  -0.640 -15.805  0.00  0.00     0.009 C 
ENDBRANCH  18  19
ENDBRANCH  14  18
ENDBRANCH   2  14
TORSDOF 8
ENDMDL
MODEL 3
REMARK VINA RESULT:      -5.9      1.953      6.162
REMARK  8 active torsions:
REMARK  status: ('A' for Active; 'I' for Inactive)
REMARK    1  A    between atoms: C_1  and  C_9 
REMARK    2  A    between atoms: C_1  and  C_18 
REMARK       I    between atoms: C_2  and  N_3 
REMARK    3  A    between atoms: C_2  and  C_9 
REMARK    4  A    between atoms: N_3  and  C_12 
REMARK    5  A    between atoms: C_7  and  C_12 
REMARK    6  A    between atoms: C_9  and  N_16 
REMARK    7  A    between atoms: C_10  and  C_20 
REMARK    8  A    between atoms: C_12  and  C_20 
ROOT
HETATM    1  C           1     -22.394  -4.252  -7.799  0.00  0.00     0.249 C 
HETATM    2  N           1     -22.324  -5.402  -7.059  0.00  0.00    -0.345 N 
HETATM    3  H           1     -22.829  -6.227  -7.358  0.00  0.00     0.163 HD
HETATM    4  O           1     -21.793  -3.267  -7.442  0.00  0.00    -0.271 OA
ENDROOT
BRANCH   1   5
HETATM    5  C           1     -23.222  -4.215  -9.060  0.00  0.00     0.278 C 
BRANCH   5   6
HETATM    6  C           1     -22.435  -3.524 -10.166  0.00  0.00     0.021 C 
HETATM    7  C           1     -21.324  -4.447 -10.651  0.00  0.00     0.012 C 
BRANCH   6   8
HETATM    8  C           1     -23.367  -3.201 -11.326  0.00  0.00     0.002 C 
HETATM    9  C           1     -22.543  -2.836 -12.553  0.00  0.00     0.005 C 
ENDBRANCH   6   8
ENDBRANCH   5   6
BRANCH   5  10
HETATM   10  N           1     -24.491  -3.459  -8.802  0.00  0.00    -0.066 N 
HETATM   11  H           1     -24.415  -2.501  -9.213  0.00  0.00     0.275 HD
HETATM   12  H           1     -24.650  -3.384  -7.772  0.00  0.00     0.275 HD
HETATM   13  H           1     -25.293  -3.964  -9.243  0.00  0.00     0.275 HD
ENDBRANCH   5  10
ENDBRANCH   1   5
BRANCH   2  14
HETATM   14  C           1     -21.529  -5.437  -5.847  0.00  0.00     0.185 C 
BRANCH  14  15
HETATM   15  C           1     -20.083  -5.682  -6.203  0.00  0.00     0.196 C 
HETATM   16  O           1     -19.237  -4.777  -6.038  0.00  0.00    -0.646 OA
HETATM   17  O           1     -19.731  -6.790  -6.661  0.00  0.00    -0.646 OA
ENDBRANCH  14  15
BRANCH  14  18
HETATM   18  C           1     -22.028  -6.560  -4.946  0.00  0.00     0.040 C 
BRANCH  18  19
HETATM   19  C           1     -21.199  -6.592  -3.668  0.00  0.00    -0.020 C 
HETATM   20  C           1     -22.067  -6.171  -2.490  0.00  0.00     0.009 C 
HETATM   21  C           1     -20.678  -8.005  -3.438  0.00  0.00     0.009 C 
ENDBRANCH  18  19
ENDBRANCH  14  18
ENDBRANCH   2  14
TORSDOF 8
ENDMDL
MODEL 4
REMARK VINA RESULT:      -5.8      2.991      6.700
REMARK  8 active torsions:
REMARK  status: ('A' for Active; 'I' for Inactive)
REMARK    1  A    between atoms: C_1  and  C_9 
REMARK    2  A    between atoms: C_1  and  C_18 
REMARK       I    between atoms: C_2  and  N_3 
REMARK    3  A    between atoms: C_2  and  C_9 
REMARK    4  A    between atoms: N_3  and  C_12 
REMARK    5  A    between atoms: C_7  and  C_12 
REMARK    6  A    between atoms: C_9  and  N_16 
REMARK    7  A    between atoms: C_10  and  C_20 
REMARK    8  A    between atoms: C_12  and  C_20 
ROOT
HETATM    1  C           1     -21.199  -5.176  -6.215  0.00  0.00     0.249 C 
HETATM    2  N           1     -21.539  -6.461  -5.892  0.00  0.00    -0.345 N 
HETATM    3  H           1     -22.315  -6.912  -6.362  0.00  0.00     0.163 HD
HETATM    4  O           1     -20.274  -4.637  -5.655  0.00  0.00    -0.271 OA
ENDROOT
BRANCH   1   5
HETATM    5  C           1     -21.979  -4.430  -7.271  0.00  0.00     0.278 C 
BRANCH   5   6
HETATM    6  C           1     -21.655  -5.003  -8.644  0.00  0.00     0.021 C 
HETATM    7  C           1     -22.771  -4.649  -9.618  0.00  0.00     0.012 C 
BRANCH   6   8
HETATM    8  C           1     -20.342  -4.415  -9.142  0.00  0.00     0.002 C 
HETATM    9  C           1     -20.353  -4.364 -10.664  0.00  0.00     0.005 C 
ENDBRANCH   6   8
ENDBRANCH   5   6
BRANCH   5  10
HETATM   10  N           1     -21.607  -2.978  -7.235  0.00  0.00    -0.066 N 
HETATM   11  H           1     -21.805  -2.545  -8.165  0.00  0.00     0.275 HD
HETATM   12  H           1     -20.590  -2.884  -7.015  0.00  0.00     0.275 HD
HETATM   13  H           1     -22.169  -2.492  -6.498  0.00  0.00     0.275 HD
ENDBRANCH   5  10
ENDBRANCH   1   5
BRANCH   2  14
HETATM   14  C           1     -20.791  -7.177  -4.878  0.00  0.00     0.185 C 
BRANCH  14  15
HETATM   15  C           1     -20.237  -8.451  -5.469  0.00  0.00     0.196 C 
HETATM   16  O           1     -19.030  -8.518  -5.789  0.00  0.00    -0.646 OA
HETATM   17  O           1     -20.984  -9.439  -5.637  0.00  0.00    -0.646 OA
ENDBRANCH  14  15
BRANCH  14  18
HETATM   18  C           1     -21.711  -7.516  -3.713  0.00  0.00     0.040 C 
BRANCH  18  19
HETATM   19  C           1     -21.130  -6.947  -2.424  0.00  0.00    -0.020 C 
HETATM   20  C           1     -22.251  -6.352  -1.582  0.00  0.00     0.009 C 
HETATM   21  C           1     -20.444  -8.061  -1.644  0.00  0.00     0.009 C 
ENDBRANCH  18  19
ENDBRANCH  14  18
ENDBRANCH   2  14
TORSDOF 8
ENDMDL
MODEL 5
REMARK VINA RESULT:      -5.6      4.739      8.653
REMARK  8 active torsions:
REMARK  status: ('A' for Active; 'I' for Inactive)
REMARK    1  A    between atoms: C_1  and  C_9 
REMARK    2  A    between atoms: C_1  and  C_18 
REMARK       I    between atoms: C_2  and  N_3 
REMARK    3  A    between atoms: C_2  and  C_9 
REMARK    4  A    between atoms: N_3  and  C_12 
REMARK    5  A    between atoms: C_7  and  C_12 
REMARK    6  A    between atoms: C_9  and  N_16 
REMARK    7  A    between atoms: C_10  and  C_20 
REMARK    8  A    between atoms: C_12  and  C_20 
ROOT
HETATM    1  C           1     -21.433  -6.877  -3.732  0.00  0.00     0.249 C 
HETATM    2  N           1     -21.118  -8.153  -3.352  0.00  0.00    -0.345 N 
HETATM    3  H           1     -21.258  -8.922  -3.995  0.00  0.00     0.163 HD
HETATM    4  O           1     -21.267  -5.959  -2.965  0.00  0.00    -0.271 OA
ENDROOT
BRANCH   1   5
HETATM    5  C           1     -21.991  -6.616  -5.111  0.00  0.00     0.278 C 
BRANCH   5   6
HETATM    6  C           1     -21.155  -5.548  -5.804  0.00  0.00     0.021 C 
HETATM    7  C           1     -19.959  -6.201  -6.484  0.00  0.00     0.012 C 
BRANCH   6   8
HETATM    8  C           1     -22.006  -4.836  -6.847  0.00  0.00     0.002 C 
HETATM    9  C           1     -21.316  -3.546  -7.272  0.00  0.00     0.005 C 
ENDBRANCH   6   8
ENDBRANCH   5   6
BRANCH   5  10
HETATM   10  N           1     -23.410  -6.144  -4.995  0.00  0.00    -0.066 N 
HETATM   11  H           1     -23.881  -6.649  -4.211  0.00  0.00     0.275 HD
HETATM   12  H           1     -23.915  -6.337  -5.888  0.00  0.00     0.275 HD
HETATM   13  H           1     -23.420  -5.116  -4.804  0.00  0.00     0.275 HD
ENDBRANCH   5  10
ENDBRANCH   1   5
BRANCH   2  14
HETATM   14  C           1     -20.583  -8.403  -2.028  0.00  0.00     0.185 C 
BRANCH  14  15
HETATM   15  C           1     -19.462  -9.409  -2.121  0.00  0.00     0.196 C 
HETATM   16  O           1     -19.545 -10.496  -1.510  0.00  0.00    -0.646 OA
HETATM   17  O           1     -18.450  -9.155  -2.809  0.00  0.00    -0.646 OA
ENDBRANCH  14  15
BRANCH  14  18
HETATM   18  C           1     -21.686  -8.954  -1.132  0.00  0.00     0.040 C 
BRANCH  18  19
HETATM   19  C           1     -21.801  -8.093   0.120  0.00  0.00    -0.020 C 
HETATM   20  C           1     -23.267  -7.964   0.513  0.00  0.00     0.009 C 
HETATM   21  C           1     -21.024  -8.744   1.257  0.00  0.00     0.009 C 
ENDBRANCH  18  19
ENDBRANCH  14  18
ENDBRANCH   2  14
TORSDOF 8
ENDMDL
MODEL 6
REMARK VINA RESULT:      -5.5      3.164      4.999
REMARK  8 active torsions:
REMARK  status: ('A' for Active; 'I' for Inactive)
REMARK    1  A    between atoms: C_1  and  C_9 
REMARK    2  A    between atoms: C_1  and  C_18 
REMARK       I    between atoms: C_2  and  N_3 
REMARK    3  A    between atoms: C_2  and  C_9 
REMARK    4  A    between atoms: N_3  and  C_12 
REMARK    5  A    between atoms: C_7  and  C_12 
REMARK    6  A    between atoms: C_9  and  N_16 
REMARK    7  A    between atoms: C_10  and  C_20 
REMARK    8  A    between atoms: C_12  and  C_20 
ROOT
HETATM    1  C           1     -21.369  -6.608  -4.258  0.00  0.00     0.249 C 
HETATM    2  N           1     -21.104  -5.498  -5.013  0.00  0.00    -0.345 N 
HETATM    3  H           1     -20.905  -4.614  -4.561  0.00  0.00     0.163 HD
HETATM    4  O           1     -21.607  -7.662  -4.798  0.00  0.00    -0.271 OA
ENDROOT
BRANCH   1   5
HETATM    5  C           1     -21.364  -6.515  -2.752  0.00  0.00     0.278 C 
BRANCH   5   6
HETATM    6  C           1     -21.413  -7.916  -2.156  0.00  0.00     0.021 C 
HETATM    7  C           1     -19.994  -8.423  -1.931  0.00  0.00     0.012 C 
BRANCH   6   8
HETATM    8  C           1     -22.153  -7.876  -0.825  0.00  0.00     0.002 C 
HETATM    9  C           1     -22.663  -9.270  -0.485  0.00  0.00     0.005 C 
ENDBRANCH   6   8
ENDBRANCH   5   6
BRANCH   5  10
HETATM   10  N           1     -22.561  -5.736  -2.295  0.00  0.00    -0.066 N 
HETATM   11  H           1     -22.854  -6.070  -1.349  0.00  0.00     0.275 HD
HETATM   12  H           1     -23.345  -5.872  -2.971  0.00  0.00     0.275 HD
HETATM   13  H           1     -22.316  -4.720  -2.245  0.00  0.00     0.275 HD
ENDBRANCH   5  10
ENDBRANCH   1   5
BRANCH   2  14
HETATM   14  C           1     -21.110  -5.587  -6.460  0.00  0.00     0.185 C 
BRANCH  14  15
HETATM   15  C           1     -19.693  -5.731  -6.960  0.00  0.00     0.196 C 
HETATM   16  O           1     -18.992  -4.714  -7.154  0.00  0.00    -0.646 OA
HETATM   17  O           1     -19.219  -6.866  -7.179  0.00  0.00    -0.646 OA
ENDBRANCH  14  15
BRANCH  14  18
HETATM   18  C           1     -21.728  -4.322  -7.044  0.00  0.00     0.040 C 
BRANCH  18  19
HETATM   19  C           1     -22.280  -4.620  -8.432  0.00  0.00    -0.020 C 
HETATM   20  C           1     -23.695  -4.068  -8.544  0.00  0.00     0.009 C 
HETATM   21  C           1     -21.392  -3.964  -9.482  0.00  0.00     0.009 C 
ENDBRANCH  18  19
ENDBRANCH  14  18
ENDBRANCH   2  14
TORSDOF 8
ENDMDL
MODEL 7
REMARK VINA RESULT:      -5.5     10.393     12.143
REMARK  8 active torsions:
REMARK  status: ('A' for Active; 'I' for Inactive)
REMARK    1  A    between atoms: C_1  and  C_9 
REMARK    2  A    between atoms: C_1  and  C_18 
REMARK       I    between atoms: C_2  and  N_3 
REMARK    3  A    between atoms: C_2  and  C_9 
REMARK    4  A    between atoms: N_3  and  C_12 
REMARK    5  A    between atoms: C_7  and  C_12 
REMARK    6  A    between atoms: C_9  and  N_16 
REMARK    7  A    between atoms: C_10  and  C_20 
REMARK    8  A    between atoms: C_12  and  C_20 
ROOT
HETATM    1  C           1     -26.075  -6.318 -17.832  0.00  0.00     0.249 C 
HETATM    2  N           1     -27.352  -6.676 -18.170  0.00  0.00    -0.345 N 
HETATM    3  H           1     -27.532  -7.128 -19.058  0.00  0.00     0.163 HD
HETATM    4  O           1     -25.859  -5.779 -16.773  0.00  0.00    -0.271 OA
ENDROOT
BRANCH   1   5
HETATM    5  C           1     -24.936  -6.597 -18.783  0.00  0.00     0.278 C 
BRANCH   5   6
HETATM    6  C           1     -25.492  -7.084 -20.114  0.00  0.00     0.021 C 
HETATM    7  C           1     -25.615  -5.908 -21.075  0.00  0.00     0.012 C 
BRANCH   6   8
HETATM    8  C           1     -24.553  -8.126 -20.706  0.00  0.00     0.002 C 
HETATM    9  C           1     -24.234  -7.761 -22.150  0.00  0.00     0.005 C 
ENDBRANCH   6   8
ENDBRANCH   5   6
BRANCH   5  10
HETATM   10  N           1     -24.043  -7.650 -18.199  0.00  0.00    -0.066 N 
HETATM   11  H           1     -24.459  -8.593 -18.369  0.00  0.00     0.275 HD
HETATM   12  H           1     -23.945  -7.493 -17.171  0.00  0.00     0.275 HD
HETATM   13  H           1     -23.101  -7.598 -18.650  0.00  0.00     0.275 HD
ENDBRANCH   5  10
ENDBRANCH   1   5
BRANCH   2  14
HETATM   14  C           1     -28.445  -6.408 -17.257  0.00  0.00     0.185 C 
BRANCH  14  15
HETATM   15  C           1     -28.597  -7.566 -16.301  0.00  0.00     0.196 C 
HETATM   16  O           1     -29.219  -8.591 -16.655  0.00  0.00    -0.646 OA
HETATM   17  O           1     -28.101  -7.501 -15.156  0.00  0.00    -0.646 OA
ENDBRANCH  14  15
BRANCH  14  18
HETATM   18  C           1     -29.735  -6.230 -18.049  0.00  0.00     0.040 C 
BRANCH  18  19
HETATM   19  C           1     -30.903  -6.058 -17.086  0.00  0.00    -0.020 C 
HETATM   20  C           1     -31.299  -4.588 -17.027  0.00  0.00     0.009 C 
HETATM   21  C           1     -32.086  -6.885 -17.571  0.00  0.00     0.009 C 
ENDBRANCH  18  19
ENDBRANCH  14  18
ENDBRANCH   2  14
TORSDOF 8
ENDMDL
MODEL 8
REMARK VINA RESULT:      -5.3      3.308      6.926
REMARK  8 active torsions:
REMARK  status: ('A' for Active; 'I' for Inactive)
REMARK    1  A    between atoms: C_1  and  C_9 
REMARK    2  A    between atoms: C_1  and  C_18 
REMARK       I    between atoms: C_2  and  N_3 
REMARK    3  A    between atoms: C_2  and  C_9 
REMARK    4  A    between atoms: N_3  and  C_12 
REMARK    5  A    between atoms: C_7  and  C_12 
REMARK    6  A    between atoms: C_9  and  N_16 
REMARK    7  A    between atoms: C_10  and  C_20 
REMARK    8  A    between atoms: C_12  and  C_20 
ROOT
HETATM    1  C           1     -21.674  -5.608  -5.699  0.00  0.00     0.249 C 
HETATM    2  N           1     -20.916  -6.395  -4.875  0.00  0.00    -0.345 N 
HETATM    3  H           1     -19.909  -6.295  -4.866  0.00  0.00     0.163 HD
HETATM    4  O           1     -22.876  -5.728  -5.712  0.00  0.00    -0.271 OA
ENDROOT
BRANCH   1   5
HETATM    5  C           1     -21.008  -4.591  -6.594  0.00  0.00     0.278 C 
BRANCH   5   6
HETATM    6  C           1     -21.384  -4.865  -8.044  0.00  0.00     0.021 C 
HETATM    7  C           1     -22.354  -3.795  -8.528  0.00  0.00     0.012 C 
BRANCH   6   8
HETATM    8  C           1     -20.130  -4.839  -8.907  0.00  0.00     0.002 C 
HETATM    9  C           1     -20.476  -4.306 -10.291  0.00  0.00     0.005 C 
ENDBRANCH   6   8
ENDBRANCH   5   6
BRANCH   5  10
HETATM   10  N           1     -19.520  -4.685  -6.437  0.00  0.00    -0.066 N 
HETATM   11  H           1     -19.074  -3.819  -6.815  0.00  0.00     0.275 HD
HETATM   12  H           1     -19.166  -5.516  -6.962  0.00  0.00     0.275 HD
HETATM   13  H           1     -19.282  -4.786  -5.424  0.00  0.00     0.275 HD
ENDBRANCH   5  10
ENDBRANCH   1   5
BRANCH   2  14
HETATM   14  C           1     -21.556  -7.372  -4.017  0.00  0.00     0.185 C 
BRANCH  14  15
HETATM   15  C           1     -21.594  -6.849  -2.601  0.00  0.00     0.196 C 
HETATM   16  O           1     -20.859  -7.358  -1.727  0.00  0.00    -0.646 OA
HETATM   17  O           1     -22.359  -5.907  -2.303  0.00  0.00    -0.646 OA
ENDBRANCH  14  15
BRANCH  14  18
HETATM   18  C           1     -20.767  -8.675  -4.056  0.00  0.00     0.040 C 
BRANCH  18  19
HETATM   19  C           1     -21.718  -9.838  -4.307  0.00  0.00    -0.020 C 
HETATM   20  C           1     -21.134 -10.748  -5.379  0.00  0.00     0.009 C 
HETATM   21  C           1     -21.905 -10.627  -3.017  0.00  0.00     0.009 C 
ENDBRANCH  18  19
ENDBRANCH  14  18
ENDBRANCH   2  14
TORSDOF 8
ENDMDL
MODEL 9
REMARK VINA RESULT:      -5.3      5.753      7.711
REMARK  8 active torsions:
REMARK  status: ('A' for Active; 'I' for Inactive)
REMARK    1  A    between atoms: C_1  and  C_9 
REMARK    2  A    between atoms: C_1  and  C_18 
REMARK       I    between atoms: C_2  and  N_3 
REMARK    3  A    between atoms: C_2  and  C_9 
REMARK    4  A    between atoms: N_3  and  C_12 
REMARK    5  A    between atoms: C_7  and  C_12 
REMARK    6  A    between atoms: C_9  and  N_16 
REMARK    7  A    between atoms: C_10  and  C_20 
REMARK    8  A    between atoms: C_12  and  C_20 
ROOT
HETATM    1  C           1     -21.198  -8.486  -2.348  0.00  0.00     0.249 C 
HETATM    2  N           1     -20.353  -7.903  -3.253  0.00  0.00    -0.345 N 
HETATM    3  H           1     -19.835  -7.071  -2.999  0.00  0.00     0.163 HD
HETATM    4  O           1     -21.817  -9.478  -2.651  0.00  0.00    -0.271 OA
ENDROOT
BRANCH   1   5
HETATM    5  C           1     -21.356  -7.889  -0.970  0.00  0.00     0.278 C 
BRANCH   5   6
HETATM    6  C           1     -21.741  -8.983   0.017  0.00  0.00     0.021 C 
HETATM    7  C           1     -21.021  -8.750   1.339  0.00  0.00     0.012 C 
BRANCH   6   8
HETATM    8  C           1     -23.245  -8.954   0.247  0.00  0.00     0.002 C 
HETATM    9  C           1     -23.827 -10.337  -0.011  0.00  0.00     0.005 C 
ENDBRANCH   6   8
ENDBRANCH   5   6
BRANCH   5  10
HETATM   10  N           1     -22.430  -6.843  -0.999  0.00  0.00    -0.066 N 
HETATM   11  H           1     -22.601  -6.492  -0.029  0.00  0.00     0.275 HD
HETATM   12  H           1     -23.310  -7.257  -1.380  0.00  0.00     0.275 HD
HETATM   13  H           1     -22.126  -6.049  -1.608  0.00  0.00     0.275 HD
ENDBRANCH   5  10
ENDBRANCH   1   5
BRANCH   2  14
HETATM   14  C           1     -20.202  -8.475  -4.577  0.00  0.00     0.185 C 
BRANCH  14  15
HETATM   15  C           1     -18.832  -9.097  -4.701  0.00  0.00     0.196 C 
HETATM   16  O           1     -18.132  -9.275  -3.681  0.00  0.00    -0.646 OA
HETATM   17  O           1     -18.398  -9.436  -5.823  0.00  0.00    -0.646 OA
ENDBRANCH  14  15
BRANCH  14  18
HETATM   18  C           1     -20.359  -7.380  -5.624  0.00  0.00     0.040 C 
BRANCH  18  19
HETATM   19  C           1     -20.995  -6.153  -4.984  0.00  0.00    -0.020 C 
HETATM   20  C           1     -20.309  -4.896  -5.503  0.00  0.00     0.009 C 
HETATM   21  C           1     -22.476  -6.107  -5.339  0.00  0.00     0.009 C 
ENDBRANCH  18  19
ENDBRANCH  14  18
ENDBRANCH   2  14
TORSDOF 8
ENDMDL
