MODEL 1
REMARK VINA RESULT:      -7.8      0.000      0.000
REMARK  10 active torsions:
REMARK  status: ('A' for Active; 'I' for Inactive)
REMARK    1  A    between atoms: C_1  and  O_20 
REMARK    2  A    between atoms: C_3  and  C_9 
REMARK       I    between atoms: C_4  and  N_15 
REMARK    3  A    between atoms: C_4  and  C_22 
REMARK    4  A    between atoms: C_9  and  C_10 
REMARK    5  A    between atoms: C_10  and  C_18 
REMARK    6  A    between atoms: N_15  and  C_18 
REMARK    7  A    between atoms: C_18  and  C_23 
REMARK    8  A    between atoms: N_19  and  C_22 
REMARK    9  A    between atoms: C_22  and  C_26 
REMARK   10  A    between atoms: C_25  and  C_26 
ROOT
HETATM    1  C           1     -21.078  -5.642  -7.140  0.00  0.00     0.278 C 
ENDROOT
BRANCH   1   2
HETATM    2  C           1     -21.712  -4.554  -7.972  0.00  0.00     0.249 C 
HETATM    3  N           1     -22.238  -4.851  -9.201  0.00  0.00    -0.345 N 
HETATM    4  H           1     -22.202  -5.800  -9.551  0.00  0.00     0.163 HD
HETATM    5  O           1     -21.755  -3.422  -7.554  0.00  0.00    -0.271 OA
BRANCH   3   6
HETATM    6  C           1     -22.847  -3.806 -10.000  0.00  0.00     0.186 C 
BRANCH   6   7
HETATM    7  C           1     -22.533  -4.043 -11.471  0.00  0.00     0.046 C 
BRANCH   7   8
HETATM    8  C           1     -22.712  -2.743 -12.245  0.00  0.00     0.116 C 
BRANCH   8   9
HETATM    9  C           1     -23.769  -2.930 -13.305  0.00  0.00     0.172 C 
HETATM   10  O           1     -23.438  -3.042 -14.505  0.00  0.00    -0.648 OA
HETATM   11  O           1     -24.977  -2.974 -12.984  0.00  0.00    -0.648 OA
ENDBRANCH   8   9
ENDBRANCH   7   8
ENDBRANCH   6   7
BRANCH   6  12
HETATM   12  C           1     -24.342  -3.826  -9.796  0.00  0.00     0.196 C 
HETATM   13  O           1     -24.971  -4.903  -9.888  0.00  0.00    -0.646 OA
HETATM   14  O           1     -24.952  -2.767  -9.536  0.00  0.00    -0.646 OA
ENDBRANCH   6  12
ENDBRANCH   3   6
ENDBRANCH   1   2
BRANCH   1  15
HETATM   15  N           1     -19.739  -5.995  -7.716  0.00  0.00    -0.066 N 
HETATM   16  H           1     -19.403  -5.213  -8.321  0.00  0.00     0.275 HD
HETATM   17  H           1     -19.825  -6.867  -8.288  0.00  0.00     0.275 HD
HETATM   18  H           1     -19.057  -6.154  -6.941  0.00  0.00     0.275 HD
ENDBRANCH   1  15
BRANCH   1  19
HETATM   19  C           1     -20.900  -5.149  -5.709  0.00  0.00     0.081 C 
BRANCH  19  20
HETATM   20  C           1     -21.147  -6.278  -4.758  0.00  0.00    -0.056 A 
HETATM   21  C           1     -21.209  -6.033  -3.387  0.00  0.00     0.010 A 
HETATM   22  C           1     -21.440  -7.087  -2.500  0.00  0.00     0.037 A 
HETATM   23  C           1     -21.609  -8.383  -2.987  0.00  0.00     0.065 A 
HETATM   24  C           1     -21.546  -8.627  -4.358  0.00  0.00     0.037 A 
HETATM   25  C           1     -21.315  -7.574  -5.245  0.00  0.00     0.010 A 
BRANCH  23  26
HETATM   26  O           1     -21.832  -9.405  -2.126  0.00  0.00    -0.361 OA
HETATM   27  H           1     -20.987  -9.630  -1.701  0.00  0.00     0.217 HD
ENDBRANCH  23  26
ENDBRANCH  19  20
ENDBRANCH   1  19
TORSDOF 10
ENDMDL
MODEL 2
REMARK VINA RESULT:      -7.6      2.428      8.330
REMARK  10 active torsions:
REMARK  status: ('A' for Active; 'I' for Inactive)
REMARK    1  A    between atoms: C_1  and  O_20 
REMARK    2  A    between atoms: C_3  and  C_9 
REMARK       I    between atoms: C_4  and  N_15 
REMARK    3  A    between atoms: C_4  and  C_22 
REMARK    4  A    between atoms: C_9  and  C_10 
REMARK    5  A    between atoms: C_10  and  C_18 
REMARK    6  A    between atoms: N_15  and  C_18 
REMARK    7  A    between atoms: C_18  and  C_23 
REMARK    8  A    between atoms: N_19  and  C_22 
REMARK    9  A    between atoms: C_22  and  C_26 
REMARK   10  A    between atoms: C_25  and  C_26 
ROOT
HETATM    1  C           1     -21.990  -5.417  -6.728  0.00  0.00     0.278 C 
ENDROOT
BRANCH   1   2
HETATM    2  C           1     -21.010  -6.047  -5.769  0.00  0.00     0.249 C 
HETATM    3  N           1     -21.198  -7.337  -5.349  0.00  0.00    -0.345 N 
HETATM    4  H           1     -21.993  -7.868  -5.682  0.00  0.00     0.163 HD
HETATM    5  O           1     -20.062  -5.415  -5.372  0.00  0.00    -0.271 OA
BRANCH   3   6
HETATM    6  C           1     -20.256  -7.943  -4.428  0.00  0.00     0.186 C 
BRANCH   6   7
HETATM    7  C           1     -21.001  -8.452  -3.202  0.00  0.00     0.046 C 
BRANCH   7   8
HETATM    8  C           1     -20.829  -7.464  -2.056  0.00  0.00     0.116 C 
BRANCH   8   9
HETATM    9  C           1     -22.101  -6.672  -1.878  0.00  0.00     0.172 C 
HETATM   10  O           1     -22.725  -6.726  -0.797  0.00  0.00    -0.648 OA
HETATM   11  O           1     -22.531  -5.962  -2.814  0.00  0.00    -0.648 OA
ENDBRANCH   8   9
ENDBRANCH   7   8
ENDBRANCH   6   7
BRANCH   6  12
HETATM   12  C           1     -19.561  -9.097  -5.109  0.00  0.00     0.196 C 
HETATM   13  O           1     -19.756 -10.266  -4.711  0.00  0.00    -0.646 OA
HETATM   14  O           1     -18.789  -8.883  -6.068  0.00  0.00    -0.646 OA
ENDBRANCH   6  12
ENDBRANCH   3   6
ENDBRANCH   1   2
BRANCH   1  15
HETATM   15  N           1     -23.301  -5.198  -6.031  0.00  0.00    -0.066 N 
HETATM   16  H           1     -23.636  -6.102  -5.628  0.00  0.00     0.275 HD
HETATM   17  H           1     -24.004  -4.840  -6.717  0.00  0.00     0.275 HD
HETATM   18  H           1     -23.176  -4.500  -5.264  0.00  0.00     0.275 HD
ENDBRANCH   1  15
BRANCH   1  19
HETATM   19  C           1     -21.442  -4.078  -7.207  0.00  0.00     0.081 C 
BRANCH  19  20
HETATM   20  C           1     -21.519  -4.014  -8.701  0.00  0.00    -0.056 A 
HETATM   21  C           1     -20.376  -4.235  -9.468  0.00  0.00     0.010 A 
HETATM   22  C           1     -20.449  -4.174 -10.861  0.00  0.00     0.037 A 
HETATM   23  C           1     -21.665  -3.893 -11.484  0.00  0.00     0.065 A 
HETATM   24  C           1     -22.807  -3.671 -10.716  0.00  0.00     0.037 A 
HETATM   25  C           1     -22.735  -3.731  -9.324  0.00  0.00     0.010 A 
BRANCH  23  26
HETATM   26  O           1     -21.735  -3.834 -12.836  0.00  0.00    -0.361 OA
HETATM   27  H           1     -21.056  -3.210 -13.144  0.00  0.00     0.217 HD
ENDBRANCH  23  26
ENDBRANCH  19  20
ENDBRANCH   1  19
TORSDOF 10
ENDMDL
MODEL 3
REMARK VINA RESULT:      -7.4      2.368      8.912
REMARK  10 active torsions:
REMARK  status: ('A' for Active; 'I' for Inactive)
REMARK    1  A    between atoms: C_1  and  O_20 
REMARK    2  A    between atoms: C_3  and  C_9 
REMARK       I    between atoms: C_4  and  N_15 
REMARK    3  A    between atoms: C_4  and  C_22 
REMARK    4  A    between atoms: C_9  and  C_10 
REMARK    5  A    between atoms: C_10  and  C_18 
REMARK    6  A    between atoms: N_15  and  C_18 
REMARK    7  A    between atoms: C_18  and  C_23 
REMARK    8  A    between atoms: N_19  and  C_22 
REMARK    9  A    between atoms: C_22  and  C_26 
REMARK   10  A    between atoms: C_25  and  C_26 
ROOT
HETATM    1  C           1     -22.240  -5.116  -6.859  0.00  0.00     0.278 C 
ENDROOT
BRANCH   1   2
HETATM    2  C           1     -21.410  -5.665  -5.724  0.00  0.00     0.249 C 
HETATM    3  N           1     -22.020  -6.283  -4.666  0.00  0.00    -0.345 N 
HETATM    4  H           1     -23.028  -6.372  -4.645  0.00  0.00     0.163 HD
HETATM    5  O           1     -20.208  -5.558  -5.750  0.00  0.00    -0.271 OA
BRANCH   3   6
HETATM    6  C           1     -21.223  -6.811  -3.576  0.00  0.00     0.186 C 
BRANCH   6   7
HETATM    7  C           1     -22.025  -6.752  -2.284  0.00  0.00     0.046 C 
BRANCH   7   8
HETATM    8  C           1     -21.265  -7.473  -1.179  0.00  0.00     0.116 C 
BRANCH   8   9
HETATM    9  C           1     -22.181  -7.698  -0.001  0.00  0.00     0.172 C 
HETATM   10  O           1     -23.373  -7.328  -0.057  0.00  0.00    -0.648 OA
HETATM   11  O           1     -21.746  -8.255   1.031  0.00  0.00    -0.648 OA
ENDBRANCH   8   9
ENDBRANCH   7   8
ENDBRANCH   6   7
BRANCH   6  12
HETATM   12  C           1     -20.853  -8.243  -3.874  0.00  0.00     0.196 C 
HETATM   13  O           1     -19.650  -8.570  -3.974  0.00  0.00    -0.646 OA
HETATM   14  O           1     -21.748  -9.102  -4.022  0.00  0.00    -0.646 OA
ENDBRANCH   6  12
ENDBRANCH   3   6
ENDBRANCH   1   2
BRANCH   1  15
HETATM   15  N           1     -23.633  -4.844  -6.372  0.00  0.00    -0.066 N 
HETATM   16  H           1     -23.598  -4.530  -5.376  0.00  0.00     0.275 HD
HETATM   17  H           1     -24.203  -5.717  -6.443  0.00  0.00     0.275 HD
HETATM   18  H           1     -24.068  -4.097  -6.958  0.00  0.00     0.275 HD
ENDBRANCH   1  15
BRANCH   1  19
HETATM   19  C           1     -21.618  -3.820  -7.363  0.00  0.00     0.081 C 
BRANCH  19  20
HETATM   20  C           1     -21.646  -3.804  -8.860  0.00  0.00    -0.056 A 
HETATM   21  C           1     -20.485  -4.077  -9.582  0.00  0.00     0.010 A 
HETATM   22  C           1     -20.511  -4.061 -10.978  0.00  0.00     0.037 A 
HETATM   23  C           1     -21.699  -3.772 -11.649  0.00  0.00     0.065 A 
HETATM   24  C           1     -22.860  -3.498 -10.926  0.00  0.00     0.037 A 
HETATM   25  C           1     -22.834  -3.514  -9.531  0.00  0.00     0.010 A 
BRANCH  23  26
HETATM   26  O           1     -21.725  -3.756 -13.004  0.00  0.00    -0.361 OA
HETATM   27  H           1     -22.486  -3.221 -13.283  0.00  0.00     0.217 HD
ENDBRANCH  23  26
ENDBRANCH  19  20
ENDBRANCH   1  19
TORSDOF 10
ENDMDL
MODEL 4
REMARK VINA RESULT:      -7.3      1.805      8.393
REMARK  10 active torsions:
REMARK  status: ('A' for Active; 'I' for Inactive)
REMARK    1  A    between atoms: C_1  and  O_20 
REMARK    2  A    between atoms: C_3  and  C_9 
REMARK       I    between atoms: C_4  and  N_15 
REMARK    3  A    between atoms: C_4  and  C_22 
REMARK    4  A    between atoms: C_9  and  C_10 
REMARK    5  A    between atoms: C_10  and  C_18 
REMARK    6  A    between atoms: N_15  and  C_18 
REMARK    7  A    between atoms: C_18  and  C_23 
REMARK    8  A    between atoms: N_19  and  C_22 
REMARK    9  A    between atoms: C_22  and  C_26 
REMARK   10  A    between atoms: C_25  and  C_26 
ROOT
HETATM    1  C           1     -20.906  -4.205  -7.487  0.00  0.00     0.278 C 
ENDROOT
BRANCH   1   2
HETATM    2  C           1     -20.600  -4.873  -6.169  0.00  0.00     0.249 C 
HETATM    3  N           1     -21.245  -6.030  -5.821  0.00  0.00    -0.345 N 
HETATM    4  H           1     -21.927  -6.437  -6.448  0.00  0.00     0.163 HD
HETATM    5  O           1     -19.786  -4.386  -5.421  0.00  0.00    -0.271 OA
BRANCH   3   6
HETATM    6  C           1     -20.950  -6.671  -4.555  0.00  0.00     0.186 C 
BRANCH   6   7
HETATM    7  C           1     -22.215  -6.734  -3.711  0.00  0.00     0.046 C 
BRANCH   7   8
HETATM    8  C           1     -21.923  -6.197  -2.316  0.00  0.00     0.116 C 
BRANCH   8   9
HETATM    9  C           1     -22.196  -7.274  -1.294  0.00  0.00     0.172 C 
HETATM   10  O           1     -21.716  -8.417  -1.448  0.00  0.00    -0.648 OA
HETATM   11  O           1     -22.903  -7.022  -0.294  0.00  0.00    -0.648 OA
ENDBRANCH   8   9
ENDBRANCH   7   8
ENDBRANCH   6   7
BRANCH   6  12
HETATM   12  C           1     -20.444  -8.070  -4.808  0.00  0.00     0.196 C 
HETATM   13  O           1     -20.856  -8.714  -5.797  0.00  0.00    -0.646 OA
HETATM   14  O           1     -19.615  -8.585  -4.027  0.00  0.00    -0.646 OA
ENDBRANCH   6  12
ENDBRANCH   3   6
ENDBRANCH   1   2
BRANCH   1  15
HETATM   15  N           1     -19.635  -3.685  -8.091  0.00  0.00    -0.066 N 
HETATM   16  H           1     -18.982  -4.481  -8.268  0.00  0.00     0.275 HD
HETATM   17  H           1     -19.189  -3.007  -7.432  0.00  0.00     0.275 HD
HETATM   18  H           1     -19.849  -3.203  -8.993  0.00  0.00     0.275 HD
ENDBRANCH   1  15
BRANCH   1  19
HETATM   19  C           1     -21.539  -5.217  -8.434  0.00  0.00     0.081 C 
BRANCH  19  20
HETATM   20  C           1     -22.318  -4.494  -9.488  0.00  0.00    -0.056 A 
HETATM   21  C           1     -23.591  -4.003  -9.202  0.00  0.00     0.010 A 
HETATM   22  C           1     -24.317  -3.330 -10.185  0.00  0.00     0.037 A 
HETATM   23  C           1     -23.768  -3.147 -11.455  0.00  0.00     0.065 A 
HETATM   24  C           1     -22.495  -3.639 -11.741  0.00  0.00     0.037 A 
HETATM   25  C           1     -21.769  -4.313 -10.758  0.00  0.00     0.010 A 
BRANCH  23  26
HETATM   26  O           1     -24.473  -2.494 -12.410  0.00  0.00    -0.361 OA
HETATM   27  H           1     -25.394  -2.798 -12.363  0.00  0.00     0.217 HD
ENDBRANCH  23  26
ENDBRANCH  19  20
ENDBRANCH   1  19
TORSDOF 10
ENDMDL
MODEL 5
REMARK VINA RESULT:      -7.1     12.187     14.062
REMARK  10 active torsions:
REMARK  status: ('A' for Active; 'I' for Inactive)
REMARK    1  A    between atoms: C_1  and  O_20 
REMARK    2  A    between atoms: C_3  and  C_9 
REMARK       I    between atoms: C_4  and  N_15 
REMARK    3  A    between atoms: C_4  and  C_22 
REMARK    4  A    between atoms: C_9  and  C_10 
REMARK    5  A    between atoms: C_10  and  C_18 
REMARK    6  A    between atoms: N_15  and  C_18 
REMARK    7  A    between atoms: C_18  and  C_23 
REMARK    8  A    between atoms: N_19  and  C_22 
REMARK    9  A    between atoms: C_22  and  C_26 
REMARK   10  A    between atoms: C_25  and  C_26 
ROOT
HETATM    1  C           1     -33.871  -3.105 -11.533  0.00  0.00     0.278 C 
ENDROOT
BRANCH   1   2
HETATM    2  C           1     -34.637  -2.445 -12.653  0.00  0.00     0.249 C 
HETATM    3  N           1     -35.299  -1.267 -12.429  0.00  0.00    -0.345 N 
HETATM    4  H           1     -35.274  -0.840 -11.512  0.00  0.00     0.163 HD
HETATM    5  O           1     -34.666  -2.955 -13.747  0.00  0.00    -0.271 OA
BRANCH   3   6
HETATM    6  C           1     -36.034  -0.632 -13.505  0.00  0.00     0.186 C 
BRANCH   6   7
HETATM    7  C           1     -37.268   0.057 -12.940  0.00  0.00     0.046 C 
BRANCH   7   8
HETATM    8  C           1     -37.684  -0.626 -11.644  0.00  0.00     0.116 C 
BRANCH   8   9
HETATM    9  C           1     -37.305   0.244 -10.471  0.00  0.00     0.172 C 
HETATM   10  O           1     -38.075   1.152 -10.093  0.00  0.00    -0.648 OA
HETATM   11  O           1     -36.220   0.057  -9.879  0.00  0.00    -0.648 OA
ENDBRANCH   8   9
ENDBRANCH   7   8
ENDBRANCH   6   7
BRANCH   6  12
HETATM   12  C           1     -35.152   0.389 -14.180  0.00  0.00     0.196 C 
HETATM   13  O           1     -34.809   0.228 -15.372  0.00  0.00    -0.646 OA
HETATM   14  O           1     -34.762   1.394 -13.548  0.00  0.00    -0.646 OA
ENDBRANCH   6  12
ENDBRANCH   3   6
ENDBRANCH   1   2
BRANCH   1  15
HETATM   15  N           1     -33.100  -2.065 -10.775  0.00  0.00    -0.066 N 
HETATM   16  H           1     -33.574  -1.875  -9.864  0.00  0.00     0.275 HD
HETATM   17  H           1     -33.057  -1.185 -11.337  0.00  0.00     0.275 HD
HETATM   18  H           1     -32.130  -2.411 -10.597  0.00  0.00     0.275 HD
ENDBRANCH   1  15
BRANCH   1  19
HETATM   19  C           1     -34.847  -3.799 -10.591  0.00  0.00     0.081 C 
BRANCH  19  20
HETATM   20  C           1     -34.488  -5.248 -10.479  0.00  0.00    -0.056 A 
HETATM   21  C           1     -35.349  -6.132  -9.831  0.00  0.00     0.010 A 
HETATM   22  C           1     -35.013  -7.483  -9.727  0.00  0.00     0.037 A 
HETATM   23  C           1     -33.817  -7.948 -10.272  0.00  0.00     0.065 A 
HETATM   24  C           1     -32.956  -7.063 -10.920  0.00  0.00     0.037 A 
HETATM   25  C           1     -33.290  -5.712 -11.024  0.00  0.00     0.010 A 
BRANCH  23  26
HETATM   26  O           1     -33.491  -9.259 -10.171  0.00  0.00    -0.361 OA
HETATM   27  H           1     -34.299  -9.753  -9.957  0.00  0.00     0.217 HD
ENDBRANCH  23  26
ENDBRANCH  19  20
ENDBRANCH   1  19
TORSDOF 10
ENDMDL
MODEL 6
REMARK VINA RESULT:      -7.0     12.177     14.458
REMARK  10 active torsions:
REMARK  status: ('A' for Active; 'I' for Inactive)
REMARK    1  A    between atoms: C_1  and  O_20 
REMARK    2  A    between atoms: C_3  and  C_9 
REMARK       I    between atoms: C_4  and  N_15 
REMARK    3  A    between atoms: C_4  and  C_22 
REMARK    4  A    between atoms: C_9  and  C_10 
REMARK    5  A    between atoms: C_10  and  C_18 
REMARK    6  A    between atoms: N_15  and  C_18 
REMARK    7  A    between atoms: C_18  and  C_23 
REMARK    8  A    between atoms: N_19  and  C_22 
REMARK    9  A    between atoms: C_22  and  C_26 
REMARK   10  A    between atoms: C_25  and  C_26 
ROOT
HETATM    1  C           1     -35.323  -1.207 -11.003  0.00  0.00     0.278 C 
ENDROOT
BRANCH   1   2
HETATM    2  C           1     -35.482  -0.248 -12.158  0.00  0.00     0.249 C 
HETATM    3  N           1     -35.874  -0.714 -13.385  0.00  0.00    -0.345 N 
HETATM    4  H           1     -36.056  -1.700 -13.517  0.00  0.00     0.163 HD
HETATM    5  O           1     -35.263   0.929 -12.000  0.00  0.00    -0.271 OA
BRANCH   3   6
HETATM    6  C           1     -36.027   0.207 -14.494  0.00  0.00     0.186 C 
BRANCH   6   7
HETATM    7  C           1     -34.966  -0.085 -15.547  0.00  0.00     0.046 C 
BRANCH   7   8
HETATM    8  C           1     -35.476  -1.160 -16.498  0.00  0.00     0.116 C 
BRANCH   8   9
HETATM    9  C           1     -34.597  -2.382 -16.393  0.00  0.00     0.172 C 
HETATM   10  O           1     -34.702  -3.144 -15.408  0.00  0.00    -0.648 OA
HETATM   11  O           1     -33.765  -2.633 -17.292  0.00  0.00    -0.648 OA
ENDBRANCH   8   9
ENDBRANCH   7   8
ENDBRANCH   6   7
BRANCH   6  12
HETATM   12  C           1     -37.398   0.038 -15.101  0.00  0.00     0.196 C 
HETATM   13  O           1     -38.072  -0.984 -14.845  0.00  0.00    -0.646 OA
HETATM   14  O           1     -37.858   0.917 -15.861  0.00  0.00    -0.646 OA
ENDBRANCH   6  12
ENDBRANCH   3   6
ENDBRANCH   1   2
BRANCH   1  15
HETATM   15  N           1     -35.955  -0.619  -9.776  0.00  0.00    -0.066 N 
HETATM   16  H           1     -35.228  -0.495  -9.036  0.00  0.00     0.275 HD
HETATM   17  H           1     -36.702  -1.262  -9.428  0.00  0.00     0.275 HD
HETATM   18  H           1     -36.375   0.308 -10.010  0.00  0.00     0.275 HD
ENDBRANCH   1  15
BRANCH   1  19
HETATM   19  C           1     -36.004  -2.526 -11.342  0.00  0.00     0.081 C 
BRANCH  19  20
HETATM   20  C           1     -34.990  -3.628 -11.333  0.00  0.00    -0.056 A 
HETATM   21  C           1     -33.704  -3.395 -11.816  0.00  0.00     0.010 A 
HETATM   22  C           1     -32.759  -4.422 -11.808  0.00  0.00     0.037 A 
HETATM   23  C           1     -33.102  -5.681 -11.315  0.00  0.00     0.065 A 
HETATM   24  C           1     -34.389  -5.913 -10.833  0.00  0.00     0.037 A 
HETATM   25  C           1     -35.334  -4.887 -10.841  0.00  0.00     0.010 A 
BRANCH  23  26
HETATM   26  O           1     -32.185  -6.678 -11.308  0.00  0.00    -0.361 OA
HETATM   27  H           1     -31.777  -6.705 -10.426  0.00  0.00     0.217 HD
ENDBRANCH  23  26
ENDBRANCH  19  20
ENDBRANCH   1  19
TORSDOF 10
ENDMDL
MODEL 7
REMARK VINA RESULT:      -7.0      2.058      3.188
REMARK  10 active torsions:
REMARK  status: ('A' for Active; 'I' for Inactive)
REMARK    1  A    between atoms: C_1  and  O_20 
REMARK    2  A    between atoms: C_3  and  C_9 
REMARK       I    between atoms: C_4  and  N_15 
REMARK    3  A    between atoms: C_4  and  C_22 
REMARK    4  A    between atoms: C_9  and  C_10 
REMARK    5  A    between atoms: C_10  and  C_18 
REMARK    6  A    between atoms: N_15  and  C_18 
REMARK    7  A    between atoms: C_18  and  C_23 
REMARK    8  A    between atoms: N_19  and  C_22 
REMARK    9  A    between atoms: C_22  and  C_26 
REMARK   10  A    between atoms: C_25  and  C_26 
ROOT
HETATM    1  C           1     -20.766  -6.029  -4.903  0.00  0.00     0.278 C 
ENDROOT
BRANCH   1   2
HETATM    2  C           1     -21.046  -5.997  -6.386  0.00  0.00     0.249 C 
HETATM    3  N           1     -21.333  -4.808  -7.002  0.00  0.00    -0.345 N 
HETATM    4  H           1     -21.357  -3.951  -6.464  0.00  0.00     0.163 HD
HETATM    5  O           1     -21.017  -7.018  -7.028  0.00  0.00    -0.271 OA
BRANCH   3   6
HETATM    6  C           1     -21.601  -4.776  -8.427  0.00  0.00     0.186 C 
BRANCH   6   7
HETATM    7  C           1     -22.708  -3.771  -8.713  0.00  0.00     0.046 C 
BRANCH   7   8
HETATM    8  C           1     -23.715  -4.383  -9.677  0.00  0.00     0.116 C 
BRANCH   8   9
HETATM    9  C           1     -23.981  -3.419 -10.808  0.00  0.00     0.172 C 
HETATM   10  O           1     -23.026  -2.887 -11.413  0.00  0.00    -0.648 OA
HETATM   11  O           1     -25.157  -3.152 -11.138  0.00  0.00    -0.648 OA
ENDBRANCH   8   9
ENDBRANCH   7   8
ENDBRANCH   6   7
BRANCH   6  12
HETATM   12  C           1     -20.349  -4.370  -9.164  0.00  0.00     0.196 C 
HETATM   13  O           1     -20.243  -4.599 -10.389  0.00  0.00    -0.646 OA
HETATM   14  O           1     -19.417  -3.807  -8.550  0.00  0.00    -0.646 OA
ENDBRANCH   6  12
ENDBRANCH   3   6
ENDBRANCH   1   2
BRANCH   1  15
HETATM   15  N           1     -20.176  -4.717  -4.478  0.00  0.00    -0.066 N 
HETATM   16  H           1     -20.020  -4.724  -3.445  0.00  0.00     0.275 HD
HETATM   17  H           1     -20.833  -3.943  -4.727  0.00  0.00     0.275 HD
HETATM   18  H           1     -19.264  -4.570  -4.967  0.00  0.00     0.275 HD
ENDBRANCH   1  15
BRANCH   1  19
HETATM   19  C           1     -22.066  -6.269  -4.146  0.00  0.00     0.081 C 
BRANCH  19  20
HETATM   20  C           1     -21.767  -6.943  -2.843  0.00  0.00    -0.056 A 
HETATM   21  C           1     -20.846  -7.989  -2.794  0.00  0.00     0.010 A 
HETATM   22  C           1     -20.568  -8.617  -1.579  0.00  0.00     0.037 A 
HETATM   23  C           1     -21.211  -8.197  -0.414  0.00  0.00     0.065 A 
HETATM   24  C           1     -22.132  -7.152  -0.464  0.00  0.00     0.037 A 
HETATM   25  C           1     -22.410  -6.524  -1.679  0.00  0.00     0.010 A 
BRANCH  23  26
HETATM   26  O           1     -20.941  -8.808   0.765  0.00  0.00    -0.361 OA
HETATM   27  H           1     -21.068  -9.763   0.644  0.00  0.00     0.217 HD
ENDBRANCH  23  26
ENDBRANCH  19  20
ENDBRANCH   1  19
TORSDOF 10
ENDMDL
MODEL 8
REMARK VINA RESULT:      -6.9      2.323      8.004
REMARK  10 active torsions:
REMARK  status: ('A' for Active; 'I' for Inactive)
REMARK    1  A    between atoms: C_1  and  O_20 
REMARK    2  A    between atoms: C_3  and  C_9 
REMARK       I    between atoms: C_4  and  N_15 
REMARK    3  A    between atoms: C_4  and  C_22 
REMARK    4  A    between atoms: C_9  and  C_10 
REMARK    5  A    between atoms: C_10  and  C_18 
REMARK    6  A    between atoms: N_15  and  C_18 
REMARK    7  A    between atoms: C_18  and  C_23 
REMARK    8  A    between atoms: N_19  and  C_22 
REMARK    9  A    between atoms: C_22  and  C_26 
REMARK   10  A    between atoms: C_25  and  C_26 
ROOT
HETATM    1  C           1     -20.970  -4.898  -6.438  0.00  0.00     0.278 C 
ENDROOT
BRANCH   1   2
HETATM    2  C           1     -21.664  -5.845  -5.489  0.00  0.00     0.249 C 
HETATM    3  N           1     -20.927  -6.609  -4.624  0.00  0.00    -0.345 N 
HETATM    4  H           1     -19.917  -6.538  -4.620  0.00  0.00     0.163 HD
HETATM    5  O           1     -22.868  -5.929  -5.494  0.00  0.00    -0.271 OA
BRANCH   3   6
HETATM    6  C           1     -21.593  -7.518  -3.712  0.00  0.00     0.186 C 
BRANCH   6   7
HETATM    7  C           1     -20.829  -8.834  -3.658  0.00  0.00     0.046 C 
BRANCH   7   8
HETATM    8  C           1     -21.586  -9.894  -4.448  0.00  0.00     0.116 C 
BRANCH   8   9
HETATM    9  C           1     -20.762 -10.317  -5.640  0.00  0.00     0.172 C 
HETATM   10  O           1     -19.566  -9.968  -5.729  0.00  0.00    -0.648 OA
HETATM   11  O           1     -21.278 -11.017  -6.539  0.00  0.00    -0.648 OA
ENDBRANCH   8   9
ENDBRANCH   7   8
ENDBRANCH   6   7
BRANCH   6  12
HETATM   12  C           1     -21.636  -6.904  -2.334  0.00  0.00     0.196 C 
HETATM   13  O           1     -22.322  -5.880  -2.127  0.00  0.00    -0.646 OA
HETATM   14  O           1     -20.983  -7.419  -1.401  0.00  0.00    -0.646 OA
ENDBRANCH   6  12
ENDBRANCH   3   6
ENDBRANCH   1   2
BRANCH   1  15
HETATM   15  N           1     -19.681  -4.434  -5.826  0.00  0.00    -0.066 N 
HETATM   16  H           1     -19.702  -4.608  -4.796  0.00  0.00     0.275 HD
HETATM   17  H           1     -19.559  -3.412  -6.006  0.00  0.00     0.275 HD
HETATM   18  H           1     -18.885  -4.959  -6.252  0.00  0.00     0.275 HD
ENDBRANCH   1  15
BRANCH   1  19
HETATM   19  C           1     -20.679  -5.616  -7.750  0.00  0.00     0.081 C 
BRANCH  19  20
HETATM   20  C           1     -21.189  -4.793  -8.892  0.00  0.00    -0.056 A 
HETATM   21  C           1     -20.327  -4.422  -9.923  0.00  0.00     0.010 A 
HETATM   22  C           1     -20.804  -3.655 -10.988  0.00  0.00     0.037 A 
HETATM   23  C           1     -22.141  -3.260 -11.019  0.00  0.00     0.065 A 
HETATM   24  C           1     -23.002  -3.631  -9.987  0.00  0.00     0.037 A 
HETATM   25  C           1     -22.527  -4.398  -8.923  0.00  0.00     0.010 A 
BRANCH  23  26
HETATM   26  O           1     -22.603  -2.515 -12.053  0.00  0.00    -0.361 OA
HETATM   27  H           1     -23.335  -3.000 -12.468  0.00  0.00     0.217 HD
ENDBRANCH  23  26
ENDBRANCH  19  20
ENDBRANCH   1  19
TORSDOF 10
ENDMDL
MODEL 9
REMARK VINA RESULT:      -6.4      3.167      8.291
REMARK  10 active torsions:
REMARK  status: ('A' for Active; 'I' for Inactive)
REMARK    1  A    between atoms: C_1  and  O_20 
REMARK    2  A    between atoms: C_3  and  C_9 
REMARK       I    between atoms: C_4  and  N_15 
REMARK    3  A    between atoms: C_4  and  C_22 
REMARK    4  A    between atoms: C_9  and  C_10 
REMARK    5  A    between atoms: C_10  and  C_18 
REMARK    6  A    between atoms: N_15  and  C_18 
REMARK    7  A    between atoms: C_18  and  C_23 
REMARK    8  A    between atoms: N_19  and  C_22 
REMARK    9  A    between atoms: C_22  and  C_26 
REMARK   10  A    between atoms: C_25  and  C_26 
ROOT
HETATM    1  C           1     -21.674  -6.350  -4.909  0.00  0.00     0.278 C 
ENDROOT
BRANCH   1   2
HETATM    2  C           1     -21.037  -7.718  -4.944  0.00  0.00     0.249 C 
HETATM    3  N           1     -20.431  -8.219  -3.822  0.00  0.00    -0.345 N 
HETATM    4  H           1     -20.410  -7.673  -2.971  0.00  0.00     0.163 HD
HETATM    5  O           1     -21.061  -8.370  -5.959  0.00  0.00    -0.271 OA
BRANCH   3   6
HETATM    6  C           1     -19.819  -9.534  -3.855  0.00  0.00     0.186 C 
BRANCH   6   7
HETATM    7  C           1     -18.305  -9.391  -3.793  0.00  0.00     0.046 C 
BRANCH   7   8
HETATM    8  C           1     -17.658 -10.436  -4.693  0.00  0.00     0.116 C 
BRANCH   8   9
HETATM    9  C           1     -18.031 -10.164  -6.130  0.00  0.00     0.172 C 
HETATM   10  O           1     -18.547 -11.066  -6.823  0.00  0.00    -0.648 OA
HETATM   11  O           1     -17.822  -9.036  -6.626  0.00  0.00    -0.648 OA
ENDBRANCH   8   9
ENDBRANCH   7   8
ENDBRANCH   6   7
BRANCH   6  12
HETATM   12  C           1     -20.297 -10.339  -2.672  0.00  0.00     0.196 C 
HETATM   13  O           1     -19.905 -10.049  -1.520  0.00  0.00    -0.646 OA
HETATM   14  O           1     -21.083 -11.295  -2.843  0.00  0.00    -0.646 OA
ENDBRANCH   6  12
ENDBRANCH   3   6
ENDBRANCH   1   2
BRANCH   1  15
HETATM   15  N           1     -22.158  -6.060  -3.519  0.00  0.00    -0.066 N 
HETATM   16  H           1     -23.195  -6.177  -3.480  0.00  0.00     0.275 HD
HETATM   17  H           1     -21.907  -5.079  -3.261  0.00  0.00     0.275 HD
HETATM   18  H           1     -21.707  -6.722  -2.848  0.00  0.00     0.275 HD
ENDBRANCH   1  15
BRANCH   1  19
HETATM   19  C           1     -20.646  -5.302  -5.317  0.00  0.00     0.081 C 
BRANCH  19  20
HETATM   20  C           1     -20.891  -4.889  -6.735  0.00  0.00    -0.056 A 
HETATM   21  C           1     -22.175  -4.535  -7.147  0.00  0.00     0.010 A 
HETATM   22  C           1     -22.403  -4.151  -8.469  0.00  0.00     0.037 A 
HETATM   23  C           1     -21.345  -4.121  -9.378  0.00  0.00     0.065 A 
HETATM   24  C           1     -20.062  -4.477  -8.966  0.00  0.00     0.037 A 
HETATM   25  C           1     -19.834  -4.861  -7.644  0.00  0.00     0.010 A 
BRANCH  23  26
HETATM   26  O           1     -21.566  -3.749 -10.662  0.00  0.00    -0.361 OA
HETATM   27  H           1     -22.518  -3.587 -10.767  0.00  0.00     0.217 HD
ENDBRANCH  23  26
ENDBRANCH  19  20
ENDBRANCH   1  19
TORSDOF 10
ENDMDL
