MODEL 1
REMARK VINA RESULT:      -8.0      0.000      0.000
REMARK  9 active torsions:
REMARK  status: ('A' for Active; 'I' for Inactive)
REMARK    1  A    between atoms: N_4  and  C_7 
REMARK    2  A    between atoms: N_6  and  C_13 
REMARK       I    between atoms: N_6  and  C_9 
REMARK    3  A    between atoms: C_7  and  C_9 
REMARK    4  A    between atoms: C_7  and  C_8 
REMARK    5  A    between atoms: C_8  and  C_14 
REMARK    6  A    between atoms: C_11  and  C_13 
REMARK    7  A    between atoms: C_13  and  C_20 
REMARK    8  A    between atoms: C_20  and  C_29 
REMARK    9  A    between atoms: O_23  and  C_26 
ROOT
HETATM    1  N           1     -21.437  -6.355  -6.343  0.00  0.00    -0.344 N 
HETATM    2  C           1     -20.683  -7.424  -5.941  0.00  0.00     0.249 C 
HETATM    3  H           1     -22.386  -6.252  -6.010  0.00  0.00     0.163 HD
HETATM    4  O           1     -19.549  -7.547  -6.337  0.00  0.00    -0.271 OA
ENDROOT
BRANCH   1   5
HETATM    5  C           1     -20.874  -5.370  -7.246  0.00  0.00     0.189 C 
BRANCH   5   6
HETATM    6  C           1     -19.728  -4.662  -6.566  0.00  0.00     0.197 C 
HETATM    7  O           1     -19.833  -4.306  -5.372  0.00  0.00    -0.646 OA
HETATM    8  O           1     -18.673  -4.431  -7.197  0.00  0.00    -0.646 OA
ENDBRANCH   5   6
BRANCH   5   9
HETATM    9  C           1     -21.947  -4.356  -7.622  0.00  0.00     0.074 C 
BRANCH   9  10
HETATM   10  C           1     -21.929  -4.136  -9.102  0.00  0.00    -0.056 A 
HETATM   11  C           1     -20.750  -4.330  -9.822  0.00  0.00     0.010 A 
HETATM   12  C           1     -20.733  -4.125 -11.202  0.00  0.00     0.037 A 
HETATM   13  C           1     -21.895  -3.725 -11.861  0.00  0.00     0.065 A 
HETATM   14  C           1     -23.074  -3.530 -11.142  0.00  0.00     0.037 A 
HETATM   15  C           1     -23.091  -3.736  -9.763  0.00  0.00     0.010 A 
BRANCH  13  16
HETATM   16  O           1     -21.879  -3.525 -13.201  0.00  0.00    -0.361 OA
HETATM   17  H           1     -21.440  -4.287 -13.614  0.00  0.00     0.217 HD
ENDBRANCH  13  16
ENDBRANCH   9  10
ENDBRANCH   5   9
ENDBRANCH   1   5
BRANCH   2  18
HETATM   18  C           1     -21.269  -8.450  -5.001  0.00  0.00     0.280 C 
BRANCH  18  19
HETATM   19  N           1     -21.129  -9.816  -5.602  0.00  0.00    -0.066 N 
HETATM   20  H           1     -20.258  -9.857  -6.177  0.00  0.00     0.275 HD
HETATM   21  H           1     -21.076 -10.528  -4.838  0.00  0.00     0.275 HD
HETATM   22  H           1     -21.957 -10.016  -6.208  0.00  0.00     0.275 HD
ENDBRANCH  18  19
BRANCH  18  23
HETATM   23  C           1     -20.527  -8.402  -3.671  0.00  0.00     0.101 C 
BRANCH  23  24
HETATM   24  C           1     -21.288  -7.550  -2.704  0.00  0.00     0.028 A 
HETATM   25  N           1     -21.757  -7.979  -1.489  0.00  0.00    -0.355 N 
HETATM   26  C           1     -22.359  -6.939  -0.962  0.00  0.00     0.180 A 
ATOM     27  HN          1     -21.659  -8.909  -1.082  1.00  0.00     0.166 HD
HETATM   28  N           1     -22.297  -5.853  -1.789  0.00  0.00    -0.360 N 
HETATM   29  C           1     -21.612  -6.230  -2.911  0.00  0.00     0.114 A 
HETATM   30  H           1     -22.701  -4.903  -1.598  0.00  0.00     0.166 HD
ENDBRANCH  23  24
ENDBRANCH  18  23
ENDBRANCH   2  18
TORSDOF 9
ENDMDL
MODEL 2
REMARK VINA RESULT:      -7.9      3.036      7.986
REMARK  9 active torsions:
REMARK  status: ('A' for Active; 'I' for Inactive)
REMARK    1  A    between atoms: N_4  and  C_7 
REMARK    2  A    between atoms: N_6  and  C_13 
REMARK       I    between atoms: N_6  and  C_9 
REMARK    3  A    between atoms: C_7  and  C_9 
REMARK    4  A    between atoms: C_7  and  C_8 
REMARK    5  A    between atoms: C_8  and  C_14 
REMARK    6  A    between atoms: C_11  and  C_13 
REMARK    7  A    between atoms: C_13  and  C_20 
REMARK    8  A    between atoms: C_20  and  C_29 
REMARK    9  A    between atoms: O_23  and  C_26 
ROOT
HETATM    1  N           1     -21.716  -5.028  -7.606  0.00  0.00    -0.344 N 
HETATM    2  C           1     -23.008  -4.593  -7.738  0.00  0.00     0.249 C 
HETATM    3  H           1     -21.134  -5.140  -8.426  0.00  0.00     0.163 HD
HETATM    4  O           1     -23.703  -4.459  -6.760  0.00  0.00    -0.271 OA
ENDROOT
BRANCH   1   5
HETATM    5  C           1     -21.182  -5.326  -6.292  0.00  0.00     0.189 C 
BRANCH   5   6
HETATM    6  C           1     -19.792  -4.750  -6.171  0.00  0.00     0.197 C 
HETATM    7  O           1     -19.405  -4.276  -5.081  0.00  0.00    -0.646 OA
HETATM    8  O           1     -19.028  -4.748  -7.160  0.00  0.00    -0.646 OA
ENDBRANCH   5   6
BRANCH   5   9
HETATM    9  C           1     -21.126  -6.836  -6.098  0.00  0.00     0.074 C 
BRANCH   9  10
HETATM   10  C           1     -21.097  -7.151  -4.636  0.00  0.00    -0.056 A 
HETATM   11  C           1     -20.296  -8.191  -4.162  0.00  0.00     0.010 A 
HETATM   12  C           1     -20.269  -8.486  -2.799  0.00  0.00     0.037 A 
HETATM   13  C           1     -21.043  -7.740  -1.910  0.00  0.00     0.065 A 
HETATM   14  C           1     -21.844  -6.701  -2.383  0.00  0.00     0.037 A 
HETATM   15  C           1     -21.871  -6.407  -3.746  0.00  0.00     0.010 A 
BRANCH  13  16
HETATM   16  O           1     -21.017  -8.027  -0.585  0.00  0.00    -0.361 OA
HETATM   17  H           1     -21.489  -7.319  -0.116  0.00  0.00     0.217 HD
ENDBRANCH  13  16
ENDBRANCH   9  10
ENDBRANCH   5   9
ENDBRANCH   1   5
BRANCH   2  18
HETATM   18  C           1     -23.563  -4.283  -9.107  0.00  0.00     0.280 C 
BRANCH  18  19
HETATM   19  N           1     -24.686  -3.297  -8.979  0.00  0.00    -0.066 N 
HETATM   20  H           1     -25.350  -3.620  -8.239  0.00  0.00     0.275 HD
HETATM   21  H           1     -24.299  -2.362  -8.717  0.00  0.00     0.275 HD
HETATM   22  H           1     -25.189  -3.223  -9.891  0.00  0.00     0.275 HD
ENDBRANCH  18  19
BRANCH  18  23
HETATM   23  C           1     -22.463  -3.689  -9.978  0.00  0.00     0.101 C 
BRANCH  23  24
HETATM   24  C           1     -22.973  -3.510 -11.374  0.00  0.00     0.028 A 
HETATM   25  N           1     -22.961  -2.324 -12.062  0.00  0.00    -0.355 N 
HETATM   26  C           1     -23.489  -2.596 -13.232  0.00  0.00     0.180 A 
ATOM     27  HN          1     -22.615  -1.422 -11.734  1.00  0.00     0.166 HD
HETATM   28  N           1     -23.843  -3.912 -13.328  0.00  0.00    -0.360 N 
HETATM   29  C           1     -23.517  -4.512 -12.142  0.00  0.00     0.114 A 
HETATM   30  H           1     -24.283  -4.379 -14.158  0.00  0.00     0.166 HD
ENDBRANCH  23  24
ENDBRANCH  18  23
ENDBRANCH   2  18
TORSDOF 9
ENDMDL
MODEL 3
REMARK VINA RESULT:      -7.6      2.655      7.707
REMARK  9 active torsions:
REMARK  status: ('A' for Active; 'I' for Inactive)
REMARK    1  A    between atoms: N_4  and  C_7 
REMARK    2  A    between atoms: N_6  and  C_13 
REMARK       I    between atoms: N_6  and  C_9 
REMARK    3  A    between atoms: C_7  and  C_9 
REMARK    4  A    between atoms: C_7  and  C_8 
REMARK    5  A    between atoms: C_8  and  C_14 
REMARK    6  A    between atoms: C_11  and  C_13 
REMARK    7  A    between atoms: C_13  and  C_20 
REMARK    8  A    between atoms: C_20  and  C_29 
REMARK    9  A    between atoms: O_23  and  C_26 
ROOT
HETATM    1  N           1     -20.449  -6.714  -6.194  0.00  0.00    -0.344 N 
HETATM    2  C           1     -20.511  -5.348  -6.114  0.00  0.00     0.249 C 
HETATM    3  H           1     -20.563  -7.173  -7.088  0.00  0.00     0.163 HD
HETATM    4  O           1     -20.373  -4.799  -5.047  0.00  0.00    -0.271 OA
ENDROOT
BRANCH   1   5
HETATM    5  C           1     -20.218  -7.500  -4.999  0.00  0.00     0.189 C 
BRANCH   5   6
HETATM    6  C           1     -19.162  -8.542  -5.278  0.00  0.00     0.197 C 
HETATM    7  O           1     -18.556  -8.540  -6.372  0.00  0.00    -0.646 OA
HETATM    8  O           1     -18.894  -9.407  -4.416  0.00  0.00    -0.646 OA
ENDBRANCH   5   6
BRANCH   5   9
HETATM    9  C           1     -21.513  -8.187  -4.586  0.00  0.00     0.074 C 
BRANCH   9  10
HETATM   10  C           1     -21.706  -8.044  -3.109  0.00  0.00    -0.056 A 
HETATM   11  C           1     -21.633  -9.167  -2.284  0.00  0.00     0.010 A 
HETATM   12  C           1     -21.813  -9.035  -0.907  0.00  0.00     0.037 A 
HETATM   13  C           1     -22.065  -7.779  -0.355  0.00  0.00     0.065 A 
HETATM   14  C           1     -22.138  -6.656  -1.179  0.00  0.00     0.037 A 
HETATM   15  C           1     -21.959  -6.789  -2.556  0.00  0.00     0.010 A 
BRANCH  13  16
HETATM   16  O           1     -22.240  -7.650   0.982  0.00  0.00    -0.361 OA
HETATM   17  H           1     -21.367  -7.697   1.406  0.00  0.00     0.217 HD
ENDBRANCH  13  16
ENDBRANCH   9  10
ENDBRANCH   5   9
ENDBRANCH   1   5
BRANCH   2  18
HETATM   18  C           1     -20.751  -4.529  -7.359  0.00  0.00     0.280 C 
BRANCH  18  19
HETATM   19  N           1     -19.435  -4.127  -7.954  0.00  0.00    -0.066 N 
HETATM   20  H           1     -19.463  -4.267  -8.989  0.00  0.00     0.275 HD
HETATM   21  H           1     -19.251  -3.121  -7.742  0.00  0.00     0.275 HD
HETATM   22  H           1     -18.674  -4.715  -7.544  0.00  0.00     0.275 HD
ENDBRANCH  18  19
BRANCH  18  23
HETATM   23  C           1     -21.533  -5.358  -8.369  0.00  0.00     0.101 C 
BRANCH  23  24
HETATM   24  C           1     -22.572  -4.501  -9.022  0.00  0.00     0.028 A 
HETATM   25  N           1     -23.720  -4.065  -8.411  0.00  0.00    -0.355 N 
HETATM   26  C           1     -24.346  -3.351  -9.317  0.00  0.00     0.180 A 
ATOM     27  HN          1     -24.022  -4.255  -7.455  1.00  0.00     0.166 HD
HETATM   28  N           1     -23.648  -3.309 -10.490  0.00  0.00    -0.360 N 
HETATM   29  C           1     -22.506  -4.042 -10.316  0.00  0.00     0.114 A 
HETATM   30  H           1     -23.934  -2.805 -11.365  0.00  0.00     0.166 HD
ENDBRANCH  23  24
ENDBRANCH  18  23
ENDBRANCH   2  18
TORSDOF 9
ENDMDL
MODEL 4
REMARK VINA RESULT:      -7.5      2.611      8.080
REMARK  9 active torsions:
REMARK  status: ('A' for Active; 'I' for Inactive)
REMARK    1  A    between atoms: N_4  and  C_7 
REMARK    2  A    between atoms: N_6  and  C_13 
REMARK       I    between atoms: N_6  and  C_9 
REMARK    3  A    between atoms: C_7  and  C_9 
REMARK    4  A    between atoms: C_7  and  C_8 
REMARK    5  A    between atoms: C_8  and  C_14 
REMARK    6  A    between atoms: C_11  and  C_13 
REMARK    7  A    between atoms: C_13  and  C_20 
REMARK    8  A    between atoms: C_20  and  C_29 
REMARK    9  A    between atoms: O_23  and  C_26 
ROOT
HETATM    1  N           1     -20.951  -6.841  -6.134  0.00  0.00    -0.344 N 
HETATM    2  C           1     -20.924  -5.474  -6.209  0.00  0.00     0.249 C 
HETATM    3  H           1     -21.293  -7.383  -6.916  0.00  0.00     0.163 HD
HETATM    4  O           1     -20.514  -4.825  -5.276  0.00  0.00    -0.271 OA
ENDROOT
BRANCH   1   5
HETATM    5  C           1     -20.487  -7.510  -4.935  0.00  0.00     0.189 C 
BRANCH   5   6
HETATM    6  C           1     -19.256  -8.323  -5.257  0.00  0.00     0.197 C 
HETATM    7  O           1     -18.746  -8.261  -6.396  0.00  0.00    -0.646 OA
HETATM    8  O           1     -18.746  -9.057  -4.383  0.00  0.00    -0.646 OA
ENDBRANCH   5   6
BRANCH   5   9
HETATM    9  C           1     -21.582  -8.430  -4.412  0.00  0.00     0.074 C 
BRANCH   9  10
HETATM   10  C           1     -21.728  -8.243  -2.935  0.00  0.00    -0.056 A 
HETATM   11  C           1     -21.985  -6.975  -2.414  0.00  0.00     0.010 A 
HETATM   12  C           1     -22.121  -6.801  -1.036  0.00  0.00     0.037 A 
HETATM   13  C           1     -22.001  -7.895  -0.180  0.00  0.00     0.065 A 
HETATM   14  C           1     -21.743  -9.163  -0.701  0.00  0.00     0.037 A 
HETATM   15  C           1     -21.607  -9.337  -2.077  0.00  0.00     0.010 A 
BRANCH  13  16
HETATM   16  O           1     -22.132  -7.726   1.158  0.00  0.00    -0.361 OA
HETATM   17  H           1     -22.287  -6.782   1.327  0.00  0.00     0.217 HD
ENDBRANCH  13  16
ENDBRANCH   9  10
ENDBRANCH   5   9
ENDBRANCH   1   5
BRANCH   2  18
HETATM   18  C           1     -21.407  -4.777  -7.458  0.00  0.00     0.280 C 
BRANCH  18  19
HETATM   19  N           1     -21.649  -3.328  -7.160  0.00  0.00    -0.066 N 
HETATM   20  H           1     -22.159  -3.239  -6.252  0.00  0.00     0.275 HD
HETATM   21  H           1     -20.733  -2.829  -7.095  0.00  0.00     0.275 HD
HETATM   22  H           1     -22.223  -2.906  -7.925  0.00  0.00     0.275 HD
ENDBRANCH  18  19
BRANCH  18  23
HETATM   23  C           1     -20.351  -4.901  -8.549  0.00  0.00     0.101 C 
BRANCH  23  24
HETATM   24  C           1     -20.944  -4.507  -9.866  0.00  0.00     0.028 A 
HETATM   25  N           1     -22.272  -4.615 -10.186  0.00  0.00    -0.355 N 
HETATM   26  C           1     -22.370  -4.167 -11.416  0.00  0.00     0.180 A 
ATOM     27  HN          1     -23.024  -4.968  -9.594  1.00  0.00     0.166 HD
HETATM   28  N           1     -21.156  -3.774 -11.903  0.00  0.00    -0.360 N 
HETATM   29  C           1     -20.231  -3.985 -10.919  0.00  0.00     0.114 A 
HETATM   30  H           1     -20.968  -3.380 -12.858  0.00  0.00     0.166 HD
ENDBRANCH  23  24
ENDBRANCH  18  23
ENDBRANCH   2  18
TORSDOF 9
ENDMDL
MODEL 5
REMARK VINA RESULT:      -7.2      2.712      7.924
REMARK  9 active torsions:
REMARK  status: ('A' for Active; 'I' for Inactive)
REMARK    1  A    between atoms: N_4  and  C_7 
REMARK    2  A    between atoms: N_6  and  C_13 
REMARK       I    between atoms: N_6  and  C_9 
REMARK    3  A    between atoms: C_7  and  C_9 
REMARK    4  A    between atoms: C_7  and  C_8 
REMARK    5  A    between atoms: C_8  and  C_14 
REMARK    6  A    between atoms: C_11  and  C_13 
REMARK    7  A    between atoms: C_13  and  C_20 
REMARK    8  A    between atoms: C_20  and  C_29 
REMARK    9  A    between atoms: O_23  and  C_26 
ROOT
HETATM    1  N           1     -20.842  -8.061  -4.421  0.00  0.00    -0.344 N 
HETATM    2  C           1     -20.663  -7.304  -5.547  0.00  0.00     0.249 C 
HETATM    3  H           1     -21.686  -7.959  -3.872  0.00  0.00     0.163 HD
HETATM    4  O           1     -19.656  -7.426  -6.203  0.00  0.00    -0.271 OA
ENDROOT
BRANCH   1   5
HETATM    5  C           1     -19.824  -9.010  -4.015  0.00  0.00     0.189 C 
BRANCH   5   6
HETATM    6  C           1     -20.397 -10.406  -4.046  0.00  0.00     0.197 C 
HETATM    7  O           1     -19.670 -11.386  -3.774  0.00  0.00    -0.646 OA
HETATM    8  O           1     -21.598 -10.582  -4.343  0.00  0.00    -0.646 OA
ENDBRANCH   5   6
BRANCH   5   9
HETATM    9  C           1     -19.359  -8.682  -2.603  0.00  0.00     0.074 C 
BRANCH   9  10
HETATM   10  C           1     -20.549  -8.415  -1.735  0.00  0.00    -0.056 A 
HETATM   11  C           1     -21.170  -7.167  -1.768  0.00  0.00     0.010 A 
HETATM   12  C           1     -22.279  -6.918  -0.959  0.00  0.00     0.037 A 
HETATM   13  C           1     -22.765  -7.917  -0.116  0.00  0.00     0.065 A 
HETATM   14  C           1     -22.143  -9.165  -0.082  0.00  0.00     0.037 A 
HETATM   15  C           1     -21.035  -9.414  -0.891  0.00  0.00     0.010 A 
BRANCH  13  16
HETATM   16  O           1     -23.842  -7.675   0.671  0.00  0.00    -0.361 OA
HETATM   17  H           1     -24.486  -8.388   0.526  0.00  0.00     0.217 HD
ENDBRANCH  13  16
ENDBRANCH   9  10
ENDBRANCH   5   9
ENDBRANCH   1   5
BRANCH   2  18
HETATM   18  C           1     -21.723  -6.316  -5.969  0.00  0.00     0.280 C 
BRANCH  18  19
HETATM   19  N           1     -22.710  -6.136  -4.854  0.00  0.00    -0.066 N 
HETATM   20  H           1     -22.294  -6.482  -3.961  0.00  0.00     0.275 HD
HETATM   21  H           1     -22.947  -5.123  -4.760  0.00  0.00     0.275 HD
HETATM   22  H           1     -23.578  -6.678  -5.068  0.00  0.00     0.275 HD
ENDBRANCH  18  19
BRANCH  18  23
HETATM   23  C           1     -21.071  -4.978  -6.290  0.00  0.00     0.101 C 
BRANCH  23  24
HETATM   24  C           1     -21.613  -4.456  -7.585  0.00  0.00     0.028 A 
HETATM   25  N           1     -22.900  -4.024  -7.773  0.00  0.00    -0.355 N 
HETATM   26  C           1     -22.961  -3.653  -9.031  0.00  0.00     0.180 A 
ATOM     27  HN          1     -23.651  -3.997  -7.084  1.00  0.00     0.166 HD
HETATM   28  N           1     -21.762  -3.828  -9.663  0.00  0.00    -0.360 N 
HETATM   29  C           1     -20.886  -4.342  -8.746  0.00  0.00     0.114 A 
HETATM   30  H           1     -21.552  -3.607 -10.667  0.00  0.00     0.166 HD
ENDBRANCH  23  24
ENDBRANCH  18  23
ENDBRANCH   2  18
TORSDOF 9
ENDMDL
MODEL 6
REMARK VINA RESULT:      -7.0     11.364     14.647
REMARK  9 active torsions:
REMARK  status: ('A' for Active; 'I' for Inactive)
REMARK    1  A    between atoms: N_4  and  C_7 
REMARK    2  A    between atoms: N_6  and  C_13 
REMARK       I    between atoms: N_6  and  C_9 
REMARK    3  A    between atoms: C_7  and  C_9 
REMARK    4  A    between atoms: C_7  and  C_8 
REMARK    5  A    between atoms: C_8  and  C_14 
REMARK    6  A    between atoms: C_11  and  C_13 
REMARK    7  A    between atoms: C_13  and  C_20 
REMARK    8  A    between atoms: C_20  and  C_29 
REMARK    9  A    between atoms: O_23  and  C_26 
ROOT
HETATM    1  N           1     -26.225  -6.708 -18.172  0.00  0.00    -0.344 N 
HETATM    2  C           1     -26.882  -6.167 -19.245  0.00  0.00     0.249 C 
HETATM    3  H           1     -25.426  -7.310 -18.321  0.00  0.00     0.163 HD
HETATM    4  O           1     -27.836  -5.447 -19.068  0.00  0.00    -0.271 OA
ENDROOT
BRANCH   1   5
HETATM    5  C           1     -26.673  -6.417 -16.825  0.00  0.00     0.189 C 
BRANCH   5   6
HETATM    6  C           1     -25.494  -6.459 -15.883  0.00  0.00     0.197 C 
HETATM    7  O           1     -24.939  -5.397 -15.527  0.00  0.00    -0.646 OA
HETATM    8  O           1     -25.073  -7.557 -15.458  0.00  0.00    -0.646 OA
ENDBRANCH   5   6
BRANCH   5   9
HETATM    9  C           1     -27.703  -7.454 -16.398  0.00  0.00     0.074 C 
BRANCH   9  10
HETATM   10  C           1     -29.078  -6.885 -16.550  0.00  0.00    -0.056 A 
HETATM   11  C           1     -29.461  -5.774 -15.797  0.00  0.00     0.010 A 
HETATM   12  C           1     -30.743  -5.243 -15.939  0.00  0.00     0.037 A 
HETATM   13  C           1     -31.642  -5.823 -16.833  0.00  0.00     0.065 A 
HETATM   14  C           1     -31.261  -6.934 -17.585  0.00  0.00     0.037 A 
HETATM   15  C           1     -29.979  -7.464 -17.443  0.00  0.00     0.010 A 
BRANCH  13  16
HETATM   16  O           1     -32.888  -5.308 -16.970  0.00  0.00    -0.361 OA
HETATM   17  H           1     -33.527  -5.996 -16.720  0.00  0.00     0.217 HD
ENDBRANCH  13  16
ENDBRANCH   9  10
ENDBRANCH   5   9
ENDBRANCH   1   5
BRANCH   2  18
HETATM   18  C           1     -26.416  -6.471 -20.647  0.00  0.00     0.280 C 
BRANCH  18  19
HETATM   19  N           1     -25.196  -5.654 -20.956  0.00  0.00    -0.066 N 
HETATM   20  H           1     -25.173  -5.434 -21.977  0.00  0.00     0.275 HD
HETATM   21  H           1     -25.226  -4.765 -20.408  0.00  0.00     0.275 HD
HETATM   22  H           1     -24.341  -6.195 -20.696  0.00  0.00     0.275 HD
ENDBRANCH  18  19
BRANCH  18  23
HETATM   23  C           1     -26.077  -7.951 -20.760  0.00  0.00     0.101 C 
BRANCH  23  24
HETATM   24  C           1     -24.682  -8.107 -21.282  0.00  0.00     0.028 A 
HETATM   25  N           1     -23.606  -8.489 -20.524  0.00  0.00    -0.355 N 
HETATM   26  C           1     -22.586  -8.503 -21.351  0.00  0.00     0.180 A 
ATOM     27  HN          1     -23.598  -8.715 -19.529  1.00  0.00     0.166 HD
HETATM   28  N           1     -22.963  -8.144 -22.615  0.00  0.00    -0.360 N 
HETATM   29  C           1     -24.306  -7.888 -22.585  0.00  0.00     0.114 A 
HETATM   30  H           1     -22.336  -8.078 -23.454  0.00  0.00     0.166 HD
ENDBRANCH  23  24
ENDBRANCH  18  23
ENDBRANCH   2  18
TORSDOF 9
ENDMDL
MODEL 7
REMARK VINA RESULT:      -7.0      3.079      7.344
REMARK  9 active torsions:
REMARK  status: ('A' for Active; 'I' for Inactive)
REMARK    1  A    between atoms: N_4  and  C_7 
REMARK    2  A    between atoms: N_6  and  C_13 
REMARK       I    between atoms: N_6  and  C_9 
REMARK    3  A    between atoms: C_7  and  C_9 
REMARK    4  A    between atoms: C_7  and  C_8 
REMARK    5  A    between atoms: C_8  and  C_14 
REMARK    6  A    between atoms: C_11  and  C_13 
REMARK    7  A    between atoms: C_13  and  C_20 
REMARK    8  A    between atoms: C_20  and  C_29 
REMARK    9  A    between atoms: O_23  and  C_26 
ROOT
HETATM    1  N           1     -20.949  -6.501  -4.683  0.00  0.00    -0.344 N 
HETATM    2  C           1     -21.799  -5.815  -5.509  0.00  0.00     0.249 C 
HETATM    3  H           1     -19.955  -6.317  -4.713  0.00  0.00     0.163 HD
HETATM    4  O           1     -22.986  -6.034  -5.472  0.00  0.00    -0.271 OA
ENDROOT
BRANCH   1   5
HETATM    5  C           1     -21.475  -7.491  -3.763  0.00  0.00     0.189 C 
BRANCH   5   6
HETATM    6  C           1     -21.647  -6.868  -2.399  0.00  0.00     0.197 C 
HETATM    7  O           1     -22.332  -5.831  -2.267  0.00  0.00    -0.646 OA
HETATM    8  O           1     -21.106  -7.391  -1.400  0.00  0.00    -0.646 OA
ENDBRANCH   5   6
BRANCH   5   9
HETATM    9  C           1     -20.504  -8.661  -3.669  0.00  0.00     0.074 C 
BRANCH   9  10
HETATM   10  C           1     -21.165  -9.901  -4.185  0.00  0.00    -0.056 A 
HETATM   11  C           1     -20.817 -10.407  -5.437  0.00  0.00     0.010 A 
HETATM   12  C           1     -21.433 -11.563  -5.918  0.00  0.00     0.037 A 
HETATM   13  C           1     -22.396 -12.211  -5.147  0.00  0.00     0.065 A 
HETATM   14  C           1     -22.746 -11.705  -3.895  0.00  0.00     0.037 A 
HETATM   15  C           1     -22.130 -10.550  -3.414  0.00  0.00     0.010 A 
BRANCH  13  16
HETATM   16  O           1     -22.996 -13.333  -5.615  0.00  0.00    -0.361 OA
HETATM   17  H           1     -23.769 -13.516  -5.056  0.00  0.00     0.217 HD
ENDBRANCH  13  16
ENDBRANCH   9  10
ENDBRANCH   5   9
ENDBRANCH   1   5
BRANCH   2  18
HETATM   18  C           1     -21.251  -4.785  -6.466  0.00  0.00     0.280 C 
BRANCH  18  19
HETATM   19  N           1     -19.817  -4.502  -6.130  0.00  0.00    -0.066 N 
HETATM   20  H           1     -19.383  -3.944  -6.898  0.00  0.00     0.275 HD
HETATM   21  H           1     -19.770  -3.962  -5.236  0.00  0.00     0.275 HD
HETATM   22  H           1     -19.302  -5.404  -6.019  0.00  0.00     0.275 HD
ENDBRANCH  18  19
BRANCH  18  23
HETATM   23  C           1     -21.343  -5.316  -7.891  0.00  0.00     0.101 C 
BRANCH  23  24
HETATM   24  C           1     -22.377  -4.541  -8.647  0.00  0.00     0.028 A 
HETATM   25  N           1     -23.583  -4.142  -8.133  0.00  0.00    -0.355 N 
HETATM   26  C           1     -24.181  -3.498  -9.108  0.00  0.00     0.180 A 
ATOM     27  HN          1     -23.940  -4.310  -7.192  1.00  0.00     0.166 HD
HETATM   28  N           1     -23.408  -3.465 -10.234  0.00  0.00    -0.360 N 
HETATM   29  C           1     -22.245  -4.130  -9.953  0.00  0.00     0.114 A 
HETATM   30  H           1     -23.658  -3.013 -11.147  0.00  0.00     0.166 HD
ENDBRANCH  23  24
ENDBRANCH  18  23
ENDBRANCH   2  18
TORSDOF 9
ENDMDL
MODEL 8
REMARK VINA RESULT:      -6.9      3.028      5.378
REMARK  9 active torsions:
REMARK  status: ('A' for Active; 'I' for Inactive)
REMARK    1  A    between atoms: N_4  and  C_7 
REMARK    2  A    between atoms: N_6  and  C_13 
REMARK       I    between atoms: N_6  and  C_9 
REMARK    3  A    between atoms: C_7  and  C_9 
REMARK    4  A    between atoms: C_7  and  C_8 
REMARK    5  A    between atoms: C_8  and  C_14 
REMARK    6  A    between atoms: C_11  and  C_13 
REMARK    7  A    between atoms: C_13  and  C_20 
REMARK    8  A    between atoms: C_20  and  C_29 
REMARK    9  A    between atoms: O_23  and  C_26 
ROOT
HETATM    1  N           1     -21.692  -8.792  -4.093  0.00  0.00    -0.344 N 
HETATM    2  C           1     -20.914  -9.590  -4.889  0.00  0.00     0.249 C 
HETATM    3  H           1     -22.452  -9.195  -3.562  0.00  0.00     0.163 HD
HETATM    4  O           1     -20.005  -9.109  -5.523  0.00  0.00    -0.271 OA
ENDROOT
BRANCH   1   5
HETATM    5  C           1     -21.425  -7.369  -4.012  0.00  0.00     0.189 C 
BRANCH   5   6
HETATM    6  C           1     -21.574  -6.911  -2.581  0.00  0.00     0.197 C 
HETATM    7  O           1     -22.303  -5.932  -2.311  0.00  0.00    -0.646 OA
HETATM    8  O           1     -20.970  -7.511  -1.666  0.00  0.00    -0.646 OA
ENDBRANCH   5   6
BRANCH   5   9
HETATM    9  C           1     -22.414  -6.617  -4.892  0.00  0.00     0.074 C 
BRANCH   9  10
HETATM   10  C           1     -21.666  -5.754  -5.860  0.00  0.00    -0.056 A 
HETATM   11  C           1     -20.272  -5.729  -5.838  0.00  0.00     0.010 A 
HETATM   12  C           1     -19.574  -4.925  -6.739  0.00  0.00     0.037 A 
HETATM   13  C           1     -20.271  -4.146  -7.662  0.00  0.00     0.065 A 
HETATM   14  C           1     -21.665  -4.170  -7.684  0.00  0.00     0.037 A 
HETATM   15  C           1     -22.362  -4.974  -6.783  0.00  0.00     0.010 A 
BRANCH  13  16
HETATM   16  O           1     -19.593  -3.365  -8.537  0.00  0.00    -0.361 OA
HETATM   17  H           1     -20.242  -2.849  -9.044  0.00  0.00     0.217 HD
ENDBRANCH  13  16
ENDBRANCH   9  10
ENDBRANCH   5   9
ENDBRANCH   1   5
BRANCH   2  18
HETATM   18  C           1     -21.191 -11.071  -4.973  0.00  0.00     0.280 C 
BRANCH  18  19
HETATM   19  N           1     -22.313 -11.423  -4.042  0.00  0.00    -0.066 N 
HETATM   20  H           1     -22.195 -10.905  -3.143  0.00  0.00     0.275 HD
HETATM   21  H           1     -23.224 -11.157  -4.481  0.00  0.00     0.275 HD
HETATM   22  H           1     -22.302 -12.451  -3.857  0.00  0.00     0.275 HD
ENDBRANCH  18  19
BRANCH  18  23
HETATM   23  C           1     -21.583 -11.433  -6.400  0.00  0.00     0.101 C 
BRANCH  23  24
HETATM   24  C           1     -20.451 -12.156  -7.061  0.00  0.00     0.028 A 
HETATM   25  N           1     -19.193 -11.639  -7.236  0.00  0.00    -0.355 N 
HETATM   26  C           1     -18.513 -12.580  -7.847  0.00  0.00     0.180 A 
ATOM     27  HN          1     -18.857 -10.718  -6.952  1.00  0.00     0.166 HD
HETATM   28  N           1     -19.282 -13.686  -8.074  0.00  0.00    -0.360 N 
HETATM   29  C           1     -20.529 -13.428  -7.574  0.00  0.00     0.114 A 
HETATM   30  H           1     -18.974 -14.572  -8.546  0.00  0.00     0.166 HD
ENDBRANCH  23  24
ENDBRANCH  18  23
ENDBRANCH   2  18
TORSDOF 9
ENDMDL
MODEL 9
REMARK VINA RESULT:      -6.9      1.685      2.673
REMARK  9 active torsions:
REMARK  status: ('A' for Active; 'I' for Inactive)
REMARK    1  A    between atoms: N_4  and  C_7 
REMARK    2  A    between atoms: N_6  and  C_13 
REMARK       I    between atoms: N_6  and  C_9 
REMARK    3  A    between atoms: C_7  and  C_9 
REMARK    4  A    between atoms: C_7  and  C_8 
REMARK    5  A    between atoms: C_8  and  C_14 
REMARK    6  A    between atoms: C_11  and  C_13 
REMARK    7  A    between atoms: C_13  and  C_20 
REMARK    8  A    between atoms: C_20  and  C_29 
REMARK    9  A    between atoms: O_23  and  C_26 
ROOT
HETATM    1  N           1     -21.853  -5.460  -6.399  0.00  0.00    -0.344 N 
HETATM    2  C           1     -20.973  -6.400  -5.932  0.00  0.00     0.249 C 
HETATM    3  H           1     -22.634  -5.170  -5.826  0.00  0.00     0.163 HD
HETATM    4  O           1     -20.039  -6.746  -6.614  0.00  0.00    -0.271 OA
ENDROOT
BRANCH   1   5
HETATM    5  C           1     -21.662  -4.880  -7.714  0.00  0.00     0.189 C 
BRANCH   5   6
HETATM    6  C           1     -20.793  -3.652  -7.600  0.00  0.00     0.197 C 
HETATM    7  O           1     -19.609  -3.684  -8.001  0.00  0.00    -0.646 OA
HETATM    8  O           1     -21.256  -2.601  -7.106  0.00  0.00    -0.646 OA
ENDBRANCH   5   6
BRANCH   5   9
HETATM    9  C           1     -23.015  -4.493  -8.297  0.00  0.00     0.074 C 
BRANCH   9  10
HETATM   10  C           1     -22.850  -4.126  -9.739  0.00  0.00    -0.056 A 
HETATM   11  C           1     -23.837  -3.382 -10.386  0.00  0.00     0.010 A 
HETATM   12  C           1     -23.684  -3.039 -11.729  0.00  0.00     0.037 A 
HETATM   13  C           1     -22.544  -3.441 -12.425  0.00  0.00     0.065 A 
HETATM   14  C           1     -21.558  -4.186 -11.779  0.00  0.00     0.037 A 
HETATM   15  C           1     -21.712  -4.529 -10.436  0.00  0.00     0.010 A 
BRANCH  13  16
HETATM   16  O           1     -22.396  -3.109 -13.731  0.00  0.00    -0.361 OA
HETATM   17  H           1     -21.695  -3.668 -14.105  0.00  0.00     0.217 HD
ENDBRANCH  13  16
ENDBRANCH   9  10
ENDBRANCH   5   9
ENDBRANCH   1   5
BRANCH   2  18
HETATM   18  C           1     -21.171  -7.004  -4.563  0.00  0.00     0.280 C 
BRANCH  18  19
HETATM   19  N           1     -22.367  -6.378  -3.908  0.00  0.00    -0.066 N 
HETATM   20  H           1     -22.195  -6.289  -2.882  0.00  0.00     0.275 HD
HETATM   21  H           1     -22.530  -5.430  -4.318  0.00  0.00     0.275 HD
HETATM   22  H           1     -23.207  -6.977  -4.072  0.00  0.00     0.275 HD
ENDBRANCH  18  19
BRANCH  18  23
HETATM   23  C           1     -21.395  -8.505  -4.697  0.00  0.00     0.101 C 
BRANCH  23  24
HETATM   24  C           1     -20.357  -9.238  -3.904  0.00  0.00     0.028 A 
HETATM   25  N           1     -20.529  -9.682  -2.619  0.00  0.00    -0.355 N 
HETATM   26  C           1     -19.397 -10.265  -2.299  0.00  0.00     0.180 A 
ATOM     27  HN          1     -21.359  -9.581  -2.035  1.00  0.00     0.166 HD
HETATM   28  N           1     -18.500 -10.215  -3.328  0.00  0.00    -0.360 N 
HETATM   29  C           1     -19.103  -9.559  -4.367  0.00  0.00     0.114 A 
HETATM   30  H           1     -17.528 -10.608  -3.324  0.00  0.00     0.166 HD
ENDBRANCH  23  24
ENDBRANCH  18  23
ENDBRANCH   2  18
TORSDOF 9
ENDMDL
