MODEL 1
REMARK VINA RESULT:      -7.5      0.000      0.000
REMARK  11 active torsions:
REMARK  status: ('A' for Active; 'I' for Inactive)
REMARK       I    between atoms: N_2  and  C_27 
REMARK       I    between atoms: N_6  and  C_27 
REMARK    1  A    between atoms: N_6  and  C_9 
REMARK    2  A    between atoms: C_9  and  C_23 
REMARK    3  A    between atoms: C_10  and  C_26 
REMARK       I    between atoms: C_10  and  N_11 
REMARK    4  A    between atoms: N_13  and  C_24 
REMARK    5  A    between atoms: C_16  and  C_21 
REMARK       I    between atoms: C_17  and  N_18 
REMARK    6  A    between atoms: C_17  and  C_24 
REMARK    7  A    between atoms: N_18  and  C_21 
REMARK    8  A    between atoms: C_21  and  C_22 
REMARK    9  A    between atoms: C_22  and  C_23 
REMARK   10  A    between atoms: C_24  and  C_25 
REMARK   11  A    between atoms: C_25  and  C_26 
ROOT
HETATM    1  H           1     -36.167  -2.631 -12.636  0.00  0.00     0.163 HD
HETATM    2  C           1     -34.309  -2.793 -11.739  0.00  0.00     0.249 C 
HETATM    3  N           1     -35.466  -2.149 -12.087  0.00  0.00    -0.345 N 
HETATM    4  O           1     -33.472  -2.219 -11.084  0.00  0.00    -0.271 OA
ENDROOT
BRANCH   3   5
HETATM    5  C           1     -35.687  -0.779 -11.670  0.00  0.00     0.185 C 
BRANCH   5   6
HETATM    6  C           1     -36.631  -0.758 -10.493  0.00  0.00     0.196 C 
HETATM    7  O           1     -36.211  -0.433  -9.361  0.00  0.00    -0.646 OA
HETATM    8  O           1     -37.832  -1.066 -10.648  0.00  0.00    -0.646 OA
ENDBRANCH   5   6
BRANCH   5   9
HETATM    9  C           1     -36.294   0.011 -12.822  0.00  0.00     0.038 C 
BRANCH   9  10
HETATM   10  C           1     -35.192   0.748 -13.570  0.00  0.00     0.023 C 
BRANCH  10  11
HETATM   11  C           1     -35.402   0.589 -15.070  0.00  0.00     0.138 C 
BRANCH  11  12
HETATM   12  N           1     -34.854  -0.704 -15.507  0.00  0.00    -0.227 N 
HETATM   13  C           1     -35.341  -1.287 -16.520  0.00  0.00     0.665 C 
HETATM   14  N           1     -36.298  -0.757 -17.157  0.00  0.00    -0.235 N 
HETATM   15  N           1     -34.857  -2.430 -16.907  0.00  0.00    -0.235 N 
HETATM   16  H           1     -36.689   0.166 -16.845  0.00  0.00     0.174 HD
HETATM   17  H           1     -36.701  -1.241 -17.997  0.00  0.00     0.174 HD
HETATM   18  H           1     -34.067  -2.868 -16.382  0.00  0.00     0.174 HD
HETATM   19  H           1     -35.258  -2.912 -17.743  0.00  0.00     0.174 HD
HETATM   20  H           1     -34.061  -1.143 -14.979  0.00  0.00     0.177 HD
ENDBRANCH  11  12
ENDBRANCH  10  11
ENDBRANCH   9  10
ENDBRANCH   5   9
ENDBRANCH   3   5
BRANCH   2  21
HETATM   21  C           1     -34.079  -4.220 -12.173  0.00  0.00     0.275 C 
BRANCH  21  22
HETATM   22  N           1     -32.610  -4.450 -12.373  0.00  0.00    -0.066 N 
HETATM   23  H           1     -32.068  -3.805 -11.754  0.00  0.00     0.275 HD
HETATM   24  H           1     -32.377  -5.440 -12.132  0.00  0.00     0.275 HD
HETATM   25  H           1     -32.361  -4.265 -13.371  0.00  0.00     0.275 HD
ENDBRANCH  21  22
BRANCH  21  26
HETATM   26  C           1     -34.599  -5.168 -11.101  0.00  0.00     0.052 C 
BRANCH  26  27
HETATM   27  C           1     -33.595  -6.294 -10.888  0.00  0.00     0.105 C 
BRANCH  27  28
HETATM   28  C           1     -34.275  -7.450 -10.196  0.00  0.00     0.215 C 
HETATM   29  N           1     -33.723  -8.701 -10.253  0.00  0.00    -0.370 N 
HETATM   30  H           1     -34.179  -9.477  -9.790  0.00  0.00     0.159 HD
HETATM   31  H           1     -32.859  -8.852 -10.758  0.00  0.00     0.159 HD
HETATM   32  O           1     -35.307  -7.271  -9.594  0.00  0.00    -0.274 OA
ENDBRANCH  27  28
ENDBRANCH  26  27
ENDBRANCH  21  26
ENDBRANCH   2  21
TORSDOF 11
ENDMDL
MODEL 2
REMARK VINA RESULT:      -7.5     11.899     13.352
REMARK  11 active torsions:
REMARK  status: ('A' for Active; 'I' for Inactive)
REMARK       I    between atoms: N_2  and  C_27 
REMARK       I    between atoms: N_6  and  C_27 
REMARK    1  A    between atoms: N_6  and  C_9 
REMARK    2  A    between atoms: C_9  and  C_23 
REMARK    3  A    between atoms: C_10  and  C_26 
REMARK       I    between atoms: C_10  and  N_11 
REMARK    4  A    between atoms: N_13  and  C_24 
REMARK    5  A    between atoms: C_16  and  C_21 
REMARK       I    between atoms: C_17  and  N_18 
REMARK    6  A    between atoms: C_17  and  C_24 
REMARK    7  A    between atoms: N_18  and  C_21 
REMARK    8  A    between atoms: C_21  and  C_22 
REMARK    9  A    between atoms: C_22  and  C_23 
REMARK   10  A    between atoms: C_24  and  C_25 
REMARK   11  A    between atoms: C_25  and  C_26 
ROOT
HETATM    1  H           1     -22.059  -5.714  -9.149  0.00  0.00     0.163 HD
HETATM    2  C           1     -21.584  -4.389  -7.632  0.00  0.00     0.249 C 
HETATM    3  N           1     -22.079  -4.745  -8.858  0.00  0.00    -0.345 N 
HETATM    4  O           1     -21.607  -3.232  -7.284  0.00  0.00    -0.271 OA
ENDROOT
BRANCH   3   5
HETATM    5  C           1     -22.631  -3.734  -9.738  0.00  0.00     0.185 C 
BRANCH   5   6
HETATM    6  C           1     -24.135  -3.856  -9.763  0.00  0.00     0.196 C 
HETATM    7  O           1     -24.847  -2.862  -9.505  0.00  0.00    -0.646 OA
HETATM    8  O           1     -24.669  -4.952 -10.040  0.00  0.00    -0.646 OA
ENDBRANCH   5   6
BRANCH   5   9
HETATM    9  C           1     -22.082  -3.931 -11.145  0.00  0.00     0.038 C 
BRANCH   9  10
HETATM   10  C           1     -22.332  -2.676 -11.970  0.00  0.00     0.023 C 
BRANCH  10  11
HETATM   11  C           1     -23.181  -3.028 -13.184  0.00  0.00     0.138 C 
BRANCH  11  12
HETATM   12  N           1     -23.977  -1.858 -13.581  0.00  0.00    -0.227 N 
HETATM   13  C           1     -23.774  -1.304 -14.702  0.00  0.00     0.665 C 
HETATM   14  N           1     -22.885  -1.758 -15.480  0.00  0.00    -0.235 N 
HETATM   15  N           1     -24.479  -0.270 -15.053  0.00  0.00    -0.235 N 
HETATM   16  H           1     -22.316  -2.594 -15.197  0.00  0.00     0.174 HD
HETATM   17  H           1     -22.717  -1.299 -16.409  0.00  0.00     0.174 HD
HETATM   18  H           1     -25.213   0.105 -14.410  0.00  0.00     0.174 HD
HETATM   19  H           1     -24.312   0.188 -15.978  0.00  0.00     0.174 HD
HETATM   20  H           1     -24.715  -1.482 -12.936  0.00  0.00     0.177 HD
ENDBRANCH  11  12
ENDBRANCH  10  11
ENDBRANCH   9  10
ENDBRANCH   5   9
ENDBRANCH   3   5
BRANCH   2  21
HETATM   21  C           1     -21.009  -5.441  -6.716  0.00  0.00     0.275 C 
BRANCH  21  22
HETATM   22  N           1     -19.854  -4.862  -5.953  0.00  0.00    -0.066 N 
HETATM   23  H           1     -20.213  -4.255  -5.182  0.00  0.00     0.275 HD
HETATM   24  H           1     -19.282  -5.637  -5.547  0.00  0.00     0.275 HD
HETATM   25  H           1     -19.262  -4.291  -6.598  0.00  0.00     0.275 HD
ENDBRANCH  21  22
BRANCH  21  26
HETATM   26  C           1     -22.081  -5.903  -5.737  0.00  0.00     0.052 C 
BRANCH  26  27
HETATM   27  C           1     -21.600  -7.153  -5.010  0.00  0.00     0.105 C 
BRANCH  27  28
HETATM   28  C           1     -21.646  -6.918  -3.521  0.00  0.00     0.215 C 
HETATM   29  N           1     -20.957  -7.746  -2.676  0.00  0.00    -0.370 N 
HETATM   30  H           1     -20.988  -7.589  -1.676  0.00  0.00     0.159 HD
HETATM   31  H           1     -20.416  -8.515  -3.050  0.00  0.00     0.159 HD
HETATM   32  O           1     -22.292  -6.001  -3.074  0.00  0.00    -0.274 OA
ENDBRANCH  27  28
ENDBRANCH  26  27
ENDBRANCH  21  26
ENDBRANCH   2  21
TORSDOF 11
ENDMDL
MODEL 3
REMARK VINA RESULT:      -7.4      2.039      6.548
REMARK  11 active torsions:
REMARK  status: ('A' for Active; 'I' for Inactive)
REMARK       I    between atoms: N_2  and  C_27 
REMARK       I    between atoms: N_6  and  C_27 
REMARK    1  A    between atoms: N_6  and  C_9 
REMARK    2  A    between atoms: C_9  and  C_23 
REMARK    3  A    between atoms: C_10  and  C_26 
REMARK       I    between atoms: C_10  and  N_11 
REMARK    4  A    between atoms: N_13  and  C_24 
REMARK    5  A    between atoms: C_16  and  C_21 
REMARK       I    between atoms: C_17  and  N_18 
REMARK    6  A    between atoms: C_17  and  C_24 
REMARK    7  A    between atoms: N_18  and  C_21 
REMARK    8  A    between atoms: C_21  and  C_22 
REMARK    9  A    between atoms: C_22  and  C_23 
REMARK   10  A    between atoms: C_24  and  C_25 
REMARK   11  A    between atoms: C_25  and  C_26 
ROOT
HETATM    1  H           1     -34.007  -1.606 -13.708  0.00  0.00     0.163 HD
HETATM    2  C           1     -35.962  -0.972 -13.463  0.00  0.00     0.249 C 
HETATM    3  N           1     -34.838  -1.684 -13.136  0.00  0.00    -0.345 N 
HETATM    4  O           1     -36.955  -1.065 -12.781  0.00  0.00    -0.271 OA
ENDROOT
BRANCH   3   5
HETATM    5  C           1     -34.841  -2.548 -11.972  0.00  0.00     0.185 C 
BRANCH   5   6
HETATM    6  C           1     -34.359  -1.773 -10.770  0.00  0.00     0.196 C 
HETATM    7  O           1     -35.180  -1.176 -10.042  0.00  0.00    -0.646 OA
HETATM    8  O           1     -33.139  -1.728 -10.504  0.00  0.00    -0.646 OA
ENDBRANCH   5   6
BRANCH   5   9
HETATM    9  C           1     -33.916  -3.733 -12.217  0.00  0.00     0.038 C 
BRANCH   9  10
HETATM   10  C           1     -34.690  -5.030 -12.031  0.00  0.00     0.023 C 
BRANCH  10  11
HETATM   11  C           1     -34.410  -5.594 -10.644  0.00  0.00     0.138 C 
BRANCH  11  12
HETATM   12  N           1     -33.700  -6.874 -10.769  0.00  0.00    -0.227 N 
HETATM   13  C           1     -34.143  -7.904 -10.181  0.00  0.00     0.665 C 
HETATM   14  N           1     -35.198  -7.831  -9.485  0.00  0.00    -0.235 N 
HETATM   15  N           1     -33.515  -9.037 -10.291  0.00  0.00    -0.235 N 
HETATM   16  H           1     -35.706  -6.916  -9.396  0.00  0.00     0.174 HD
HETATM   17  H           1     -35.565  -8.685  -8.997  0.00  0.00     0.174 HD
HETATM   18  H           1     -32.644  -9.098 -10.866  0.00  0.00     0.174 HD
HETATM   19  H           1     -33.880  -9.888  -9.806  0.00  0.00     0.174 HD
HETATM   20  H           1     -32.825  -6.935 -11.346  0.00  0.00     0.177 HD
ENDBRANCH  11  12
ENDBRANCH  10  11
ENDBRANCH   9  10
ENDBRANCH   5   9
ENDBRANCH   3   5
BRANCH   2  21
HETATM   21  C           1     -35.959  -0.073 -14.675  0.00  0.00     0.275 C 
BRANCH  21  22
HETATM   22  N           1     -34.603   0.548 -14.833  0.00  0.00    -0.066 N 
HETATM   23  H           1     -34.662   1.350 -15.500  0.00  0.00     0.275 HD
HETATM   24  H           1     -34.268   0.892 -13.905  0.00  0.00     0.275 HD
HETATM   25  H           1     -33.935  -0.165 -15.203  0.00  0.00     0.275 HD
ENDBRANCH  21  22
BRANCH  21  26
HETATM   26  C           1     -36.290  -0.892 -15.916  0.00  0.00     0.052 C 
BRANCH  26  27
HETATM   27  C           1     -35.035  -1.058 -16.765  0.00  0.00     0.105 C 
BRANCH  27  28
HETATM   28  C           1     -34.520  -2.469 -16.628  0.00  0.00     0.215 C 
HETATM   29  N           1     -33.665  -2.978 -17.569  0.00  0.00    -0.370 N 
HETATM   30  H           1     -33.319  -3.925 -17.478  0.00  0.00     0.159 HD
HETATM   31  H           1     -33.379  -2.409 -18.355  0.00  0.00     0.159 HD
HETATM   32  O           1     -34.862  -3.149 -15.691  0.00  0.00    -0.274 OA
ENDBRANCH  27  28
ENDBRANCH  26  27
ENDBRANCH  21  26
ENDBRANCH   2  21
TORSDOF 11
ENDMDL
MODEL 4
REMARK VINA RESULT:      -7.4      3.694      6.596
REMARK  11 active torsions:
REMARK  status: ('A' for Active; 'I' for Inactive)
REMARK       I    between atoms: N_2  and  C_27 
REMARK       I    between atoms: N_6  and  C_27 
REMARK    1  A    between atoms: N_6  and  C_9 
REMARK    2  A    between atoms: C_9  and  C_23 
REMARK    3  A    between atoms: C_10  and  C_26 
REMARK       I    between atoms: C_10  and  N_11 
REMARK    4  A    between atoms: N_13  and  C_24 
REMARK    5  A    between atoms: C_16  and  C_21 
REMARK       I    between atoms: C_17  and  N_18 
REMARK    6  A    between atoms: C_17  and  C_24 
REMARK    7  A    between atoms: N_18  and  C_21 
REMARK    8  A    between atoms: C_21  and  C_22 
REMARK    9  A    between atoms: C_22  and  C_23 
REMARK   10  A    between atoms: C_24  and  C_25 
REMARK   11  A    between atoms: C_25  and  C_26 
ROOT
HETATM    1  H           1     -32.612  -3.266 -14.405  0.00  0.00     0.163 HD
HETATM    2  C           1     -33.984  -4.514 -15.324  0.00  0.00     0.249 C 
HETATM    3  N           1     -33.465  -3.797 -14.279  0.00  0.00    -0.345 N 
HETATM    4  O           1     -35.001  -5.149 -15.175  0.00  0.00    -0.271 OA
ENDROOT
BRANCH   3   5
HETATM    5  C           1     -34.137  -3.798 -12.995  0.00  0.00     0.185 C 
BRANCH   5   6
HETATM    6  C           1     -34.922  -2.519 -12.837  0.00  0.00     0.196 C 
HETATM    7  O           1     -35.828  -2.444 -11.979  0.00  0.00    -0.646 OA
HETATM    8  O           1     -34.668  -1.535 -13.565  0.00  0.00    -0.646 OA
ENDBRANCH   5   6
BRANCH   5   9
HETATM    9  C           1     -33.103  -3.900 -11.881  0.00  0.00     0.038 C 
BRANCH   9  10
HETATM   10  C           1     -33.740  -4.530 -10.650  0.00  0.00     0.023 C 
BRANCH  10  11
HETATM   11  C           1     -34.610  -5.706 -11.075  0.00  0.00     0.138 C 
BRANCH  11  12
HETATM   12  N           1     -33.829  -6.949 -10.992  0.00  0.00    -0.227 N 
HETATM   13  C           1     -34.199  -7.879 -10.216  0.00  0.00     0.665 C 
HETATM   14  N           1     -35.242  -7.738  -9.512  0.00  0.00    -0.235 N 
HETATM   15  N           1     -33.509  -8.978 -10.143  0.00  0.00    -0.235 N 
HETATM   16  H           1     -35.799  -6.850  -9.571  0.00  0.00     0.174 HD
HETATM   17  H           1     -35.548  -8.509  -8.869  0.00  0.00     0.174 HD
HETATM   18  H           1     -32.648  -9.094 -10.725  0.00  0.00     0.174 HD
HETATM   19  H           1     -33.814  -9.746  -9.503  0.00  0.00     0.174 HD
HETATM   20  H           1     -32.965  -7.065 -11.576  0.00  0.00     0.177 HD
ENDBRANCH  11  12
ENDBRANCH  10  11
ENDBRANCH   9  10
ENDBRANCH   5   9
ENDBRANCH   3   5
BRANCH   2  21
HETATM   21  C           1     -33.285  -4.513 -16.661  0.00  0.00     0.275 C 
BRANCH  21  22
HETATM   22  N           1     -33.520  -3.200 -17.347  0.00  0.00    -0.066 N 
HETATM   23  H           1     -32.994  -2.447 -16.848  0.00  0.00     0.275 HD
HETATM   24  H           1     -33.187  -3.259 -18.336  0.00  0.00     0.275 HD
HETATM   25  H           1     -34.541  -2.978 -17.334  0.00  0.00     0.275 HD
ENDBRANCH  21  22
BRANCH  21  26
HETATM   26  C           1     -31.789  -4.715 -16.453  0.00  0.00     0.052 C 
BRANCH  26  27
HETATM   27  C           1     -31.302  -5.854 -17.341  0.00  0.00     0.105 C 
BRANCH  27  28
HETATM   28  C           1     -30.015  -6.411 -16.784  0.00  0.00     0.215 C 
HETATM   29  N           1     -29.535  -7.609 -17.239  0.00  0.00    -0.370 N 
HETATM   30  H           1     -28.672  -7.984 -16.865  0.00  0.00     0.159 HD
HETATM   31  H           1     -30.042  -8.121 -17.950  0.00  0.00     0.159 HD
HETATM   32  O           1     -29.411  -5.801 -15.935  0.00  0.00    -0.274 OA
ENDBRANCH  27  28
ENDBRANCH  26  27
ENDBRANCH  21  26
ENDBRANCH   2  21
TORSDOF 11
ENDMDL
MODEL 5
REMARK VINA RESULT:      -7.1      2.047      7.172
REMARK  11 active torsions:
REMARK  status: ('A' for Active; 'I' for Inactive)
REMARK       I    between atoms: N_2  and  C_27 
REMARK       I    between atoms: N_6  and  C_27 
REMARK    1  A    between atoms: N_6  and  C_9 
REMARK    2  A    between atoms: C_9  and  C_23 
REMARK    3  A    between atoms: C_10  and  C_26 
REMARK       I    between atoms: C_10  and  N_11 
REMARK    4  A    between atoms: N_13  and  C_24 
REMARK    5  A    between atoms: C_16  and  C_21 
REMARK       I    between atoms: C_17  and  N_18 
REMARK    6  A    between atoms: C_17  and  C_24 
REMARK    7  A    between atoms: N_18  and  C_21 
REMARK    8  A    between atoms: C_21  and  C_22 
REMARK    9  A    between atoms: C_22  and  C_23 
REMARK   10  A    between atoms: C_24  and  C_25 
REMARK   11  A    between atoms: C_25  and  C_26 
ROOT
HETATM    1  H           1     -35.587  -2.208 -13.724  0.00  0.00     0.163 HD
HETATM    2  C           1     -34.820  -1.007 -12.224  0.00  0.00     0.249 C 
HETATM    3  N           1     -34.995  -2.183 -12.904  0.00  0.00    -0.345 N 
HETATM    4  O           1     -34.112  -0.975 -11.245  0.00  0.00    -0.271 OA
ENDROOT
BRANCH   3   5
HETATM    5  C           1     -34.331  -3.389 -12.449  0.00  0.00     0.185 C 
BRANCH   5   6
HETATM    6  C           1     -34.306  -4.401 -13.568  0.00  0.00     0.196 C 
HETATM    7  O           1     -33.601  -4.197 -14.579  0.00  0.00    -0.646 OA
HETATM    8  O           1     -34.992  -5.442 -13.484  0.00  0.00    -0.646 OA
ENDBRANCH   5   6
BRANCH   5   9
HETATM    9  C           1     -35.087  -3.965 -11.259  0.00  0.00     0.038 C 
BRANCH   9  10
HETATM   10  C           1     -34.182  -4.925 -10.498  0.00  0.00     0.023 C 
BRANCH  10  11
HETATM   11  C           1     -34.952  -6.197 -10.171  0.00  0.00     0.138 C 
BRANCH  11  12
HETATM   12  N           1     -34.244  -7.357 -10.732  0.00  0.00    -0.227 N 
HETATM   13  C           1     -34.043  -8.382 -10.017  0.00  0.00     0.665 C 
HETATM   14  N           1     -34.451  -8.409  -8.819  0.00  0.00    -0.235 N 
HETATM   15  N           1     -33.417  -9.408 -10.513  0.00  0.00    -0.235 N 
HETATM   16  H           1     -34.957  -7.580  -8.419  0.00  0.00     0.174 HD
HETATM   17  H           1     -34.284  -9.259  -8.227  0.00  0.00     0.174 HD
HETATM   18  H           1     -33.080  -9.386 -11.502  0.00  0.00     0.174 HD
HETATM   19  H           1     -33.250 -10.255  -9.923  0.00  0.00     0.174 HD
HETATM   20  H           1     -33.906  -7.335 -11.726  0.00  0.00     0.177 HD
ENDBRANCH  11  12
ENDBRANCH  10  11
ENDBRANCH   9  10
ENDBRANCH   5   9
ENDBRANCH   3   5
BRANCH   2  21
HETATM   21  C           1     -35.510   0.249 -12.697  0.00  0.00     0.275 C 
BRANCH  21  22
HETATM   22  N           1     -34.507   1.153 -13.351  0.00  0.00    -0.066 N 
HETATM   23  H           1     -33.943   0.608 -14.041  0.00  0.00     0.275 HD
HETATM   24  H           1     -35.008   1.927 -13.846  0.00  0.00     0.275 HD
HETATM   25  H           1     -33.874   1.555 -12.624  0.00  0.00     0.275 HD
ENDBRANCH  21  22
BRANCH  21  26
HETATM   26  C           1     -36.595  -0.115 -13.702  0.00  0.00     0.052 C 
BRANCH  26  27
HETATM   27  C           1     -36.226   0.439 -15.072  0.00  0.00     0.105 C 
BRANCH  27  28
HETATM   28  C           1     -35.910  -0.702 -16.008  0.00  0.00     0.215 C 
HETATM   29  N           1     -36.446  -0.721 -17.267  0.00  0.00    -0.370 N 
HETATM   30  H           1     -36.235  -1.486 -17.896  0.00  0.00     0.159 HD
HETATM   31  H           1     -37.053   0.029 -17.572  0.00  0.00     0.159 HD
HETATM   32  O           1     -35.186  -1.598 -15.645  0.00  0.00    -0.274 OA
ENDBRANCH  27  28
ENDBRANCH  26  27
ENDBRANCH  21  26
ENDBRANCH   2  21
TORSDOF 11
ENDMDL
MODEL 6
REMARK VINA RESULT:      -6.8     12.430     15.679
REMARK  11 active torsions:
REMARK  status: ('A' for Active; 'I' for Inactive)
REMARK       I    between atoms: N_2  and  C_27 
REMARK       I    between atoms: N_6  and  C_27 
REMARK    1  A    between atoms: N_6  and  C_9 
REMARK    2  A    between atoms: C_9  and  C_23 
REMARK    3  A    between atoms: C_10  and  C_26 
REMARK       I    between atoms: C_10  and  N_11 
REMARK    4  A    between atoms: N_13  and  C_24 
REMARK    5  A    between atoms: C_16  and  C_21 
REMARK       I    between atoms: C_17  and  N_18 
REMARK    6  A    between atoms: C_17  and  C_24 
REMARK    7  A    between atoms: N_18  and  C_21 
REMARK    8  A    between atoms: C_21  and  C_22 
REMARK    9  A    between atoms: C_22  and  C_23 
REMARK   10  A    between atoms: C_24  and  C_25 
REMARK   11  A    between atoms: C_25  and  C_26 
ROOT
HETATM    1  H           1     -22.262  -5.926  -8.355  0.00  0.00     0.163 HD
HETATM    2  C           1     -23.076  -4.100  -8.887  0.00  0.00     0.249 C 
HETATM    3  N           1     -22.185  -4.923  -8.251  0.00  0.00    -0.345 N 
HETATM    4  O           1     -22.986  -2.901  -8.763  0.00  0.00    -0.271 OA
ENDROOT
BRANCH   3   5
HETATM    5  C           1     -21.133  -4.356  -7.430  0.00  0.00     0.185 C 
BRANCH   5   6
HETATM    6  C           1     -19.814  -4.475  -8.151  0.00  0.00     0.196 C 
HETATM    7  O           1     -19.791  -4.709  -9.379  0.00  0.00    -0.646 OA
HETATM    8  O           1     -18.742  -4.342  -7.521  0.00  0.00    -0.646 OA
ENDBRANCH   5   6
BRANCH   5   9
HETATM    9  C           1     -21.061  -5.109  -6.108  0.00  0.00     0.038 C 
BRANCH   9  10
HETATM   10  C           1     -21.199  -6.603  -6.366  0.00  0.00     0.023 C 
BRANCH  10  11
HETATM   11  C           1     -21.518  -7.316  -5.058  0.00  0.00     0.138 C 
BRANCH  11  12
HETATM   12  N           1     -22.004  -6.339  -4.073  0.00  0.00    -0.227 N 
HETATM   13  C           1     -21.834  -6.550  -2.836  0.00  0.00     0.665 C 
HETATM   14  N           1     -21.245  -7.601  -2.448  0.00  0.00    -0.235 N 
HETATM   15  N           1     -22.264  -5.686  -1.965  0.00  0.00    -0.235 N 
HETATM   16  H           1     -20.898  -8.299  -3.152  0.00  0.00     0.174 HD
HETATM   17  H           1     -21.105  -7.775  -1.422  0.00  0.00     0.174 HD
HETATM   18  H           1     -22.750  -4.818  -2.285  0.00  0.00     0.174 HD
HETATM   19  H           1     -22.124  -5.859  -0.944  0.00  0.00     0.174 HD
HETATM   20  H           1     -22.492  -5.468  -4.395  0.00  0.00     0.177 HD
ENDBRANCH  11  12
ENDBRANCH  10  11
ENDBRANCH   9  10
ENDBRANCH   5   9
ENDBRANCH   3   5
BRANCH   2  21
HETATM   21  C           1     -24.171  -4.689  -9.742  0.00  0.00     0.275 C 
BRANCH  21  22
HETATM   22  N           1     -25.337  -3.746  -9.780  0.00  0.00    -0.066 N 
HETATM   23  H           1     -25.180  -2.969  -9.098  0.00  0.00     0.275 HD
HETATM   24  H           1     -25.432  -3.350 -10.742  0.00  0.00     0.275 HD
HETATM   25  H           1     -26.210  -4.261  -9.526  0.00  0.00     0.275 HD
ENDBRANCH  21  22
BRANCH  21  26
HETATM   26  C           1     -23.650  -4.908 -11.156  0.00  0.00     0.052 C 
BRANCH  26  27
HETATM   27  C           1     -23.922  -3.666 -11.996  0.00  0.00     0.105 C 
BRANCH  27  28
HETATM   28  C           1     -22.627  -3.163 -12.583  0.00  0.00     0.215 C 
HETATM   29  N           1     -22.458  -3.131 -13.941  0.00  0.00    -0.370 N 
HETATM   30  H           1     -21.589  -2.794 -14.336  0.00  0.00     0.159 HD
HETATM   31  H           1     -23.202  -3.445 -14.552  0.00  0.00     0.159 HD
HETATM   32  O           1     -21.739  -2.789 -11.855  0.00  0.00    -0.274 OA
ENDBRANCH  27  28
ENDBRANCH  26  27
ENDBRANCH  21  26
ENDBRANCH   2  21
TORSDOF 11
ENDMDL
MODEL 7
REMARK VINA RESULT:      -6.6     13.209     15.153
REMARK  11 active torsions:
REMARK  status: ('A' for Active; 'I' for Inactive)
REMARK       I    between atoms: N_2  and  C_27 
REMARK       I    between atoms: N_6  and  C_27 
REMARK    1  A    between atoms: N_6  and  C_9 
REMARK    2  A    between atoms: C_9  and  C_23 
REMARK    3  A    between atoms: C_10  and  C_26 
REMARK       I    between atoms: C_10  and  N_11 
REMARK    4  A    between atoms: N_13  and  C_24 
REMARK    5  A    between atoms: C_16  and  C_21 
REMARK       I    between atoms: C_17  and  N_18 
REMARK    6  A    between atoms: C_17  and  C_24 
REMARK    7  A    between atoms: N_18  and  C_21 
REMARK    8  A    between atoms: C_21  and  C_22 
REMARK    9  A    between atoms: C_22  and  C_23 
REMARK   10  A    between atoms: C_24  and  C_25 
REMARK   11  A    between atoms: C_25  and  C_26 
ROOT
HETATM    1  H           1     -22.255  -4.862  -5.428  0.00  0.00     0.163 HD
HETATM    2  C           1     -21.552  -6.797  -5.646  0.00  0.00     0.249 C 
HETATM    3  N           1     -21.788  -5.510  -6.050  0.00  0.00    -0.345 N 
HETATM    4  O           1     -20.995  -7.570  -6.388  0.00  0.00    -0.271 OA
ENDROOT
BRANCH   3   5
HETATM    5  C           1     -21.368  -5.076  -7.368  0.00  0.00     0.185 C 
BRANCH   5   6
HETATM    6  C           1     -20.005  -4.437  -7.277  0.00  0.00     0.196 C 
HETATM    7  O           1     -19.558  -3.777  -8.240  0.00  0.00    -0.646 OA
HETATM    8  O           1     -19.321  -4.568  -6.239  0.00  0.00    -0.646 OA
ENDBRANCH   5   6
BRANCH   5   9
HETATM    9  C           1     -22.369  -4.063  -7.911  0.00  0.00     0.038 C 
BRANCH   9  10
HETATM   10  C           1     -22.902  -4.544  -9.253  0.00  0.00     0.023 C 
BRANCH  10  11
HETATM   11  C           1     -22.193  -3.801 -10.377  0.00  0.00     0.138 C 
BRANCH  11  12
HETATM   12  N           1     -23.179  -3.052 -11.169  0.00  0.00    -0.227 N 
HETATM   13  C           1     -23.021  -2.924 -12.419  0.00  0.00     0.665 C 
HETATM   14  N           1     -22.014  -3.440 -12.986  0.00  0.00    -0.235 N 
HETATM   15  N           1     -23.894  -2.262 -13.120  0.00  0.00    -0.235 N 
HETATM   16  H           1     -21.310  -3.974 -12.420  0.00  0.00     0.174 HD
HETATM   17  H           1     -21.884  -3.333 -14.022  0.00  0.00     0.174 HD
HETATM   18  H           1     -24.726  -1.836 -12.652  0.00  0.00     0.174 HD
HETATM   19  H           1     -23.764  -2.155 -14.152  0.00  0.00     0.174 HD
HETATM   20  H           1     -24.015  -2.624 -10.699  0.00  0.00     0.177 HD
ENDBRANCH  11  12
ENDBRANCH  10  11
ENDBRANCH   9  10
ENDBRANCH   5   9
ENDBRANCH   3   5
BRANCH   2  21
HETATM   21  C           1     -21.988  -7.249  -4.274  0.00  0.00     0.275 C 
BRANCH  21  22
HETATM   22  N           1     -21.636  -8.695  -4.090  0.00  0.00    -0.066 N 
HETATM   23  H           1     -22.343  -9.292  -4.576  0.00  0.00     0.275 HD
HETATM   24  H           1     -20.690  -8.877  -4.496  0.00  0.00     0.275 HD
HETATM   25  H           1     -21.628  -8.925  -3.071  0.00  0.00     0.275 HD
ENDBRANCH  21  22
BRANCH  21  26
HETATM   26  C           1     -21.279  -6.415  -3.214  0.00  0.00     0.052 C 
BRANCH  26  27
HETATM   27  C           1     -22.204  -6.218  -2.019  0.00  0.00     0.105 C 
BRANCH  27  28
HETATM   28  C           1     -21.947  -7.301  -1.001  0.00  0.00     0.215 C 
HETATM   29  N           1     -22.873  -7.556  -0.026  0.00  0.00    -0.370 N 
HETATM   30  H           1     -22.702  -8.282   0.658  0.00  0.00     0.159 HD
HETATM   31  H           1     -23.730  -7.018   0.013  0.00  0.00     0.159 HD
HETATM   32  O           1     -20.924  -7.943  -1.046  0.00  0.00    -0.274 OA
ENDBRANCH  27  28
ENDBRANCH  26  27
ENDBRANCH  21  26
ENDBRANCH   2  21
TORSDOF 11
ENDMDL
MODEL 8
REMARK VINA RESULT:      -6.5     10.587     12.533
REMARK  11 active torsions:
REMARK  status: ('A' for Active; 'I' for Inactive)
REMARK       I    between atoms: N_2  and  C_27 
REMARK       I    between atoms: N_6  and  C_27 
REMARK    1  A    between atoms: N_6  and  C_9 
REMARK    2  A    between atoms: C_9  and  C_23 
REMARK    3  A    between atoms: C_10  and  C_26 
REMARK       I    between atoms: C_10  and  N_11 
REMARK    4  A    between atoms: N_13  and  C_24 
REMARK    5  A    between atoms: C_16  and  C_21 
REMARK       I    between atoms: C_17  and  N_18 
REMARK    6  A    between atoms: C_17  and  C_24 
REMARK    7  A    between atoms: N_18  and  C_21 
REMARK    8  A    between atoms: C_21  and  C_22 
REMARK    9  A    between atoms: C_22  and  C_23 
REMARK   10  A    between atoms: C_24  and  C_25 
REMARK   11  A    between atoms: C_25  and  C_26 
ROOT
HETATM    1  H           1     -27.441  -8.200 -18.554  0.00  0.00     0.163 HD
HETATM    2  C           1     -28.589  -6.487 -18.372  0.00  0.00     0.249 C 
HETATM    3  N           1     -27.747  -7.353 -19.017  0.00  0.00    -0.345 N 
HETATM    4  O           1     -28.955  -5.477 -18.924  0.00  0.00    -0.271 OA
ENDROOT
BRANCH   3   5
HETATM    5  C           1     -27.296  -7.058 -20.362  0.00  0.00     0.185 C 
BRANCH   5   6
HETATM    6  C           1     -27.296  -8.324 -21.182  0.00  0.00     0.196 C 
HETATM    7  O           1     -26.282  -8.644 -21.839  0.00  0.00    -0.646 OA
HETATM    8  O           1     -28.311  -9.053 -21.207  0.00  0.00    -0.646 OA
ENDBRANCH   5   6
BRANCH   5   9
HETATM    9  C           1     -25.885  -6.487 -20.309  0.00  0.00     0.038 C 
BRANCH   9  10
HETATM   10  C           1     -25.204  -6.931 -19.022  0.00  0.00     0.023 C 
BRANCH  10  11
HETATM   11  C           1     -23.802  -7.435 -19.337  0.00  0.00     0.138 C 
BRANCH  11  12
HETATM   12  N           1     -23.802  -8.096 -20.650  0.00  0.00    -0.227 N 
HETATM   13  C           1     -22.718  -8.531 -21.140  0.00  0.00     0.665 C 
HETATM   14  N           1     -21.635  -8.398 -20.498  0.00  0.00    -0.235 N 
HETATM   15  N           1     -22.718  -9.115 -22.301  0.00  0.00    -0.235 N 
HETATM   16  H           1     -21.635  -7.927 -19.560  0.00  0.00     0.174 HD
HETATM   17  H           1     -20.737  -8.760 -20.904  0.00  0.00     0.174 HD
HETATM   18  H           1     -23.612  -9.225 -22.831  0.00  0.00     0.174 HD
HETATM   19  H           1     -21.824  -9.475 -22.706  0.00  0.00     0.174 HD
HETATM   20  H           1     -24.700  -8.206 -21.182  0.00  0.00     0.177 HD
ENDBRANCH  11  12
ENDBRANCH  10  11
ENDBRANCH   9  10
ENDBRANCH   5   9
ENDBRANCH   3   5
BRANCH   2  21
HETATM   21  C           1     -29.060  -6.795 -16.971  0.00  0.00     0.275 C 
BRANCH  21  22
HETATM   22  N           1     -27.871  -7.014 -16.082  0.00  0.00    -0.066 N 
HETATM   23  H           1     -27.368  -7.881 -16.380  0.00  0.00     0.275 HD
HETATM   24  H           1     -27.226  -6.195 -16.156  0.00  0.00     0.275 HD
HETATM   25  H           1     -28.191  -7.120 -15.094  0.00  0.00     0.275 HD
ENDBRANCH  21  22
BRANCH  21  26
HETATM   26  C           1     -29.879  -5.625 -16.442  0.00  0.00     0.052 C 
BRANCH  26  27
HETATM   27  C           1     -31.321  -5.759 -16.916  0.00  0.00     0.105 C 
BRANCH  27  28
HETATM   28  C           1     -31.996  -4.410 -16.861  0.00  0.00     0.215 C 
HETATM   29  N           1     -33.257  -4.297 -16.342  0.00  0.00    -0.370 N 
HETATM   30  H           1     -33.710  -3.393 -16.306  0.00  0.00     0.159 HD
HETATM   31  H           1     -33.737  -5.117 -15.994  0.00  0.00     0.159 HD
HETATM   32  O           1     -31.423  -3.432 -17.277  0.00  0.00    -0.274 OA
ENDBRANCH  27  28
ENDBRANCH  26  27
ENDBRANCH  21  26
ENDBRANCH   2  21
TORSDOF 11
ENDMDL
MODEL 9
REMARK VINA RESULT:      -6.4     12.861     14.619
REMARK  11 active torsions:
REMARK  status: ('A' for Active; 'I' for Inactive)
REMARK       I    between atoms: N_2  and  C_27 
REMARK       I    between atoms: N_6  and  C_27 
REMARK    1  A    between atoms: N_6  and  C_9 
REMARK    2  A    between atoms: C_9  and  C_23 
REMARK    3  A    between atoms: C_10  and  C_26 
REMARK       I    between atoms: C_10  and  N_11 
REMARK    4  A    between atoms: N_13  and  C_24 
REMARK    5  A    between atoms: C_16  and  C_21 
REMARK       I    between atoms: C_17  and  N_18 
REMARK    6  A    between atoms: C_17  and  C_24 
REMARK    7  A    between atoms: N_18  and  C_21 
REMARK    8  A    between atoms: C_21  and  C_22 
REMARK    9  A    between atoms: C_22  and  C_23 
REMARK   10  A    between atoms: C_24  and  C_25 
REMARK   11  A    between atoms: C_25  and  C_26 
ROOT
HETATM    1  H           1     -22.330  -4.098  -6.722  0.00  0.00     0.163 HD
HETATM    2  C           1     -21.390  -5.927  -6.487  0.00  0.00     0.249 C 
HETATM    3  N           1     -21.874  -4.864  -7.202  0.00  0.00    -0.345 N 
HETATM    4  O           1     -20.847  -6.842  -7.059  0.00  0.00    -0.271 OA
ENDROOT
BRANCH   3   5
HETATM    5  C           1     -21.734  -4.836  -8.644  0.00  0.00     0.185 C 
BRANCH   5   6
HETATM    6  C           1     -20.349  -4.361  -9.006  0.00  0.00     0.196 C 
HETATM    7  O           1     -19.770  -3.519  -8.286  0.00  0.00    -0.646 OA
HETATM    8  O           1     -19.781  -4.807 -10.026  0.00  0.00    -0.646 OA
ENDBRANCH   5   6
BRANCH   5   9
HETATM    9  C           1     -22.768  -3.887  -9.236  0.00  0.00     0.038 C 
BRANCH   9  10
HETATM   10  C           1     -23.180  -4.379 -10.617  0.00  0.00     0.023 C 
BRANCH  10  11
HETATM   11  C           1     -23.376  -3.186 -11.543  0.00  0.00     0.138 C 
BRANCH  11  12
HETATM   12  N           1     -22.764  -3.473 -12.848  0.00  0.00    -0.227 N 
HETATM   13  C           1     -23.038  -2.747 -13.849  0.00  0.00     0.665 C 
HETATM   14  N           1     -23.839  -1.775 -13.725  0.00  0.00    -0.235 N 
HETATM   15  N           1     -22.497  -3.001 -15.004  0.00  0.00    -0.235 N 
HETATM   16  H           1     -24.276  -1.570 -12.793  0.00  0.00     0.174 HD
HETATM   17  H           1     -24.066  -1.173 -14.555  0.00  0.00     0.174 HD
HETATM   18  H           1     -21.836  -3.804 -15.106  0.00  0.00     0.174 HD
HETATM   19  H           1     -22.723  -2.402 -15.830  0.00  0.00     0.174 HD
HETATM   20  H           1     -22.100  -4.280 -12.951  0.00  0.00     0.177 HD
ENDBRANCH  11  12
ENDBRANCH  10  11
ENDBRANCH   9  10
ENDBRANCH   5   9
ENDBRANCH   3   5
BRANCH   2  21
HETATM   21  C           1     -21.535  -5.956  -4.985  0.00  0.00     0.275 C 
BRANCH  21  22
HETATM   22  N           1     -22.972  -6.200  -4.627  0.00  0.00    -0.066 N 
HETATM   23  H           1     -23.393  -6.868  -5.312  0.00  0.00     0.275 HD
HETATM   24  H           1     -23.026  -6.606  -3.666  0.00  0.00     0.275 HD
HETATM   25  H           1     -23.496  -5.296  -4.655  0.00  0.00     0.275 HD
ENDBRANCH  21  22
BRANCH  21  26
HETATM   26  C           1     -20.674  -7.074  -4.413  0.00  0.00     0.052 C 
BRANCH  26  27
HETATM   27  C           1     -21.518  -7.945  -3.491  0.00  0.00     0.105 C 
BRANCH  27  28
HETATM   28  C           1     -21.388  -7.450  -2.072  0.00  0.00     0.215 C 
HETATM   29  N           1     -20.514  -8.059  -1.213  0.00  0.00    -0.370 N 
HETATM   30  H           1     -20.426  -7.728  -0.260  0.00  0.00     0.159 HD
HETATM   31  H           1     -19.954  -8.841  -1.529  0.00  0.00     0.159 HD
HETATM   32  O           1     -22.056  -6.518  -1.694  0.00  0.00    -0.274 OA
ENDBRANCH  27  28
ENDBRANCH  26  27
ENDBRANCH  21  26
ENDBRANCH   2  21
TORSDOF 11
ENDMDL
