MODEL 1
REMARK VINA RESULT:      -6.2      0.000      0.000
REMARK  5 active torsions:
REMARK  status: ('A' for Active; 'I' for Inactive)
REMARK    1  A    between atoms: C_2  and  C_17 
REMARK       I    between atoms: N_3  and  C_4 
REMARK    2  A    between atoms: C_4  and  C_11 
REMARK       I    between atoms: N_8  and  C_9 
REMARK    3  A    between atoms: C_9  and  C_10 
REMARK    4  A    between atoms: C_10  and  C_11 
REMARK    5  A    between atoms: C_11  and  N_12 
ROOT
HETATM    1  C           1     -21.506  -4.167  -7.043  0.00  0.00     0.283 C 
ENDROOT
BRANCH   1   2
HETATM    2  C           1     -21.278  -4.561  -8.482  0.00  0.00     0.251 C 
HETATM    3  N           1     -22.194  -4.215  -9.439  0.00  0.00    -0.336 N 
HETATM    4  C           1     -22.140  -4.509 -10.868  0.00  0.00     0.188 C 
HETATM    5  C           1     -23.438  -3.473  -9.252  0.00  0.00     0.127 C 
HETATM    6  C           1     -23.572  -4.874 -11.217  0.00  0.00     0.038 C 
HETATM    7  C           1     -24.426  -4.189 -10.157  0.00  0.00     0.022 C 
HETATM    8  O           1     -20.288  -5.182  -8.789  0.00  0.00    -0.271 OA
BRANCH   4   9
HETATM    9  C           1     -21.690  -3.298 -11.648  0.00  0.00     0.196 C 
HETATM   10  O           1     -20.629  -2.714 -11.338  0.00  0.00    -0.646 OA
HETATM   11  O           1     -22.378  -2.877 -12.603  0.00  0.00    -0.646 OA
ENDBRANCH   4   9
ENDBRANCH   1   2
BRANCH   1  12
HETATM   12  C           1     -20.278  -4.529  -6.216  0.00  0.00     0.145 C 
BRANCH  12  13
HETATM   13  C           1     -20.493  -5.867  -5.555  0.00  0.00     0.217 C 
HETATM   14  O           1     -21.043  -5.930  -4.480  0.00  0.00    -0.274 OA
HETATM   15  N           1     -20.064  -7.012  -6.171  0.00  0.00    -0.370 N 
HETATM   16  H           1     -20.208  -7.910  -5.728  0.00  0.00     0.159 HD
HETATM   17  H           1     -19.604  -6.960  -7.071  0.00  0.00     0.159 HD
ENDBRANCH  12  13
ENDBRANCH   1  12
BRANCH   1  18
HETATM   18  N           1     -22.701  -4.901  -6.508  0.00  0.00    -0.066 N 
HETATM   19  H           1     -23.326  -5.172  -7.300  0.00  0.00     0.275 HD
HETATM   20  H           1     -22.384  -5.760  -6.005  0.00  0.00     0.275 HD
HETATM   21  H           1     -23.223  -4.282  -5.848  0.00  0.00     0.275 HD
ENDBRANCH   1  18
TORSDOF 5
ENDMDL
MODEL 2
REMARK VINA RESULT:      -5.9      1.813      2.555
REMARK  5 active torsions:
REMARK  status: ('A' for Active; 'I' for Inactive)
REMARK    1  A    between atoms: C_2  and  C_17 
REMARK       I    between atoms: N_3  and  C_4 
REMARK    2  A    between atoms: C_4  and  C_11 
REMARK       I    between atoms: N_8  and  C_9 
REMARK    3  A    between atoms: C_9  and  C_10 
REMARK    4  A    between atoms: C_10  and  C_11 
REMARK    5  A    between atoms: C_11  and  N_12 
ROOT
HETATM    1  C           1     -20.585  -5.247  -7.261  0.00  0.00     0.283 C 
ENDROOT
BRANCH   1   2
HETATM    2  C           1     -21.666  -4.492  -7.994  0.00  0.00     0.251 C 
HETATM    3  N           1     -21.595  -4.343  -9.353  0.00  0.00    -0.336 N 
HETATM    4  C           1     -22.542  -3.650 -10.222  0.00  0.00     0.188 C 
HETATM    5  C           1     -20.556  -4.844 -10.249  0.00  0.00     0.127 C 
HETATM    6  C           1     -21.654  -2.918 -11.214  0.00  0.00     0.038 C 
HETATM    7  C           1     -20.349  -3.706 -11.235  0.00  0.00     0.022 C 
HETATM    8  O           1     -22.594  -4.018  -7.382  0.00  0.00    -0.271 OA
BRANCH   4   9
HETATM    9  C           1     -23.440  -4.634 -10.930  0.00  0.00     0.196 C 
HETATM   10  O           1     -24.077  -5.484 -10.272  0.00  0.00    -0.646 OA
HETATM   11  O           1     -23.546  -4.600 -12.176  0.00  0.00    -0.646 OA
ENDBRANCH   4   9
ENDBRANCH   1   2
BRANCH   1  12
HETATM   12  C           1     -21.132  -6.589  -6.789  0.00  0.00     0.145 C 
BRANCH  12  13
HETATM   13  C           1     -21.580  -6.473  -5.353  0.00  0.00     0.217 C 
HETATM   14  O           1     -20.794  -6.669  -4.457  0.00  0.00    -0.274 OA
HETATM   15  N           1     -22.878  -6.147  -5.066  0.00  0.00    -0.370 N 
HETATM   16  H           1     -23.179  -6.069  -4.103  0.00  0.00     0.159 HD
HETATM   17  H           1     -23.537  -5.983  -5.816  0.00  0.00     0.159 HD
ENDBRANCH  12  13
ENDBRANCH   1  12
BRANCH   1  18
HETATM   18  N           1     -20.135  -4.447  -6.074  0.00  0.00    -0.066 N 
HETATM   19  H           1     -20.956  -3.955  -5.654  0.00  0.00     0.275 HD
HETATM   20  H           1     -19.714  -5.087  -5.363  0.00  0.00     0.275 HD
HETATM   21  H           1     -19.424  -3.744  -6.376  0.00  0.00     0.275 HD
ENDBRANCH   1  18
TORSDOF 5
ENDMDL
MODEL 3
REMARK VINA RESULT:      -5.3      1.857      2.373
REMARK  5 active torsions:
REMARK  status: ('A' for Active; 'I' for Inactive)
REMARK    1  A    between atoms: C_2  and  C_17 
REMARK       I    between atoms: N_3  and  C_4 
REMARK    2  A    between atoms: C_4  and  C_11 
REMARK       I    between atoms: N_8  and  C_9 
REMARK    3  A    between atoms: C_9  and  C_10 
REMARK    4  A    between atoms: C_10  and  C_11 
REMARK    5  A    between atoms: C_11  and  N_12 
ROOT
HETATM    1  C           1     -21.853  -5.561  -5.360  0.00  0.00     0.283 C 
ENDROOT
BRANCH   1   2
HETATM    2  C           1     -21.389  -5.809  -6.775  0.00  0.00     0.251 C 
HETATM    3  N           1     -21.816  -4.993  -7.788  0.00  0.00    -0.336 N 
HETATM    4  C           1     -21.474  -5.081  -9.204  0.00  0.00     0.188 C 
HETATM    5  C           1     -22.713  -3.845  -7.686  0.00  0.00     0.127 C 
HETATM    6  C           1     -22.784  -4.783  -9.913  0.00  0.00     0.038 C 
HETATM    7  C           1     -23.598  -3.967  -8.916  0.00  0.00     0.022 C 
HETATM    8  O           1     -20.641  -6.727  -7.013  0.00  0.00    -0.271 OA
BRANCH   4   9
HETATM    9  C           1     -20.424  -4.059  -9.567  0.00  0.00     0.196 C 
HETATM   10  O           1     -19.534  -3.759  -8.742  0.00  0.00    -0.646 OA
HETATM   11  O           1     -20.444  -3.513 -10.692  0.00  0.00    -0.646 OA
ENDBRANCH   4   9
ENDBRANCH   1   2
BRANCH   1  12
HETATM   12  C           1     -20.822  -6.112  -4.383  0.00  0.00     0.145 C 
BRANCH  12  13
HETATM   13  C           1     -21.521  -6.619  -3.146  0.00  0.00     0.217 C 
HETATM   14  O           1     -22.232  -5.880  -2.508  0.00  0.00    -0.274 OA
HETATM   15  N           1     -21.350  -7.917  -2.747  0.00  0.00    -0.370 N 
HETATM   16  H           1     -21.818  -8.258  -1.917  0.00  0.00     0.159 HD
HETATM   17  H           1     -20.754  -8.537  -3.282  0.00  0.00     0.159 HD
ENDBRANCH  12  13
ENDBRANCH   1  12
BRANCH   1  18
HETATM   18  N           1     -23.167  -6.250  -5.139  0.00  0.00    -0.066 N 
HETATM   19  H           1     -23.031  -7.062  -4.495  0.00  0.00     0.275 HD
HETATM   20  H           1     -23.844  -5.578  -4.712  0.00  0.00     0.275 HD
HETATM   21  H           1     -23.541  -6.590  -6.053  0.00  0.00     0.275 HD
ENDBRANCH   1  18
TORSDOF 5
ENDMDL
MODEL 4
REMARK VINA RESULT:      -5.2     17.977     19.439
REMARK  5 active torsions:
REMARK  status: ('A' for Active; 'I' for Inactive)
REMARK    1  A    between atoms: C_2  and  C_17 
REMARK       I    between atoms: N_3  and  C_4 
REMARK    2  A    between atoms: C_4  and  C_11 
REMARK       I    between atoms: N_8  and  C_9 
REMARK    3  A    between atoms: C_9  and  C_10 
REMARK    4  A    between atoms: C_10  and  C_11 
REMARK    5  A    between atoms: C_11  and  N_12 
ROOT
HETATM    1  C           1     -10.453   6.949 -20.506  0.00  0.00     0.283 C 
ENDROOT
BRANCH   1   2
HETATM    2  C           1     -11.229   6.524 -21.729  0.00  0.00     0.251 C 
HETATM    3  N           1     -12.120   5.487 -21.648  0.00  0.00    -0.336 N 
HETATM    4  C           1     -12.951   4.944 -22.718  0.00  0.00     0.188 C 
HETATM    5  C           1     -12.445   4.684 -20.472  0.00  0.00     0.127 C 
HETATM    6  C           1     -12.890   3.442 -22.497  0.00  0.00     0.038 C 
HETATM    7  C           1     -12.561   3.271 -21.019  0.00  0.00     0.022 C 
HETATM    8  O           1     -11.064   7.098 -22.779  0.00  0.00    -0.271 OA
BRANCH   4   9
HETATM    9  C           1     -14.369   5.445 -22.603  0.00  0.00     0.196 C 
HETATM   10  O           1     -14.594   6.672 -22.524  0.00  0.00    -0.646 OA
HETATM   11  O           1     -15.321   4.634 -22.585  0.00  0.00    -0.646 OA
ENDBRANCH   4   9
ENDBRANCH   1   2
BRANCH   1  12
HETATM   12  C           1     -10.448   8.469 -20.410  0.00  0.00     0.145 C 
BRANCH  12  13
HETATM   13  C           1     -10.882   8.888 -19.028  0.00  0.00     0.217 C 
HETATM   14  O           1     -12.054   9.067 -18.791  0.00  0.00    -0.274 OA
HETATM   15  N           1      -9.950   9.067 -18.042  0.00  0.00    -0.370 N 
HETATM   16  H           1     -10.242   9.349 -17.115  0.00  0.00     0.159 HD
HETATM   17  H           1      -8.969   8.918 -18.240  0.00  0.00     0.159 HD
ENDBRANCH  12  13
ENDBRANCH   1  12
BRANCH   1  18
HETATM   18  N           1      -9.042   6.451 -20.614  0.00  0.00    -0.066 N 
HETATM   19  H           1      -8.534   6.648 -19.721  0.00  0.00     0.275 HD
HETATM   20  H           1      -9.049   5.421 -20.790  0.00  0.00     0.275 HD
HETATM   21  H           1      -8.560   6.937 -21.403  0.00  0.00     0.275 HD
ENDBRANCH   1  18
TORSDOF 5
ENDMDL
MODEL 5
REMARK VINA RESULT:      -5.1      3.026      7.182
REMARK  5 active torsions:
REMARK  status: ('A' for Active; 'I' for Inactive)
REMARK    1  A    between atoms: C_2  and  C_17 
REMARK       I    between atoms: N_3  and  C_4 
REMARK    2  A    between atoms: C_4  and  C_11 
REMARK       I    between atoms: N_8  and  C_9 
REMARK    3  A    between atoms: C_9  and  C_10 
REMARK    4  A    between atoms: C_10  and  C_11 
REMARK    5  A    between atoms: C_11  and  N_12 
ROOT
HETATM    1  C           1     -21.060  -5.686  -5.816  0.00  0.00     0.283 C 
ENDROOT
BRANCH   1   2
HETATM    2  C           1     -20.524  -6.962  -5.214  0.00  0.00     0.251 C 
HETATM    3  N           1     -20.965  -7.377  -3.987  0.00  0.00    -0.336 N 
HETATM    4  C           1     -20.561  -8.575  -3.256  0.00  0.00     0.188 C 
HETATM    5  C           1     -21.943  -6.720  -3.124  0.00  0.00     0.127 C 
HETATM    6  C           1     -20.451  -8.101  -1.817  0.00  0.00     0.038 C 
HETATM    7  C           1     -21.363  -6.883  -1.729  0.00  0.00     0.022 C 
HETATM    8  O           1     -19.705  -7.616  -5.815  0.00  0.00    -0.271 OA
BRANCH   4   9
HETATM    9  C           1     -21.603  -9.659  -3.384  0.00  0.00     0.196 C 
HETATM   10  O           1     -22.158 -10.117  -2.362  0.00  0.00    -0.646 OA
HETATM   11  O           1     -21.911 -10.100  -4.513  0.00  0.00    -0.646 OA
ENDBRANCH   4   9
ENDBRANCH   1   2
BRANCH   1  12
HETATM   12  C           1     -21.207  -5.857  -7.323  0.00  0.00     0.145 C 
BRANCH  12  13
HETATM   13  C           1     -21.450  -4.512  -7.961  0.00  0.00     0.217 C 
HETATM   14  O           1     -20.561  -3.959  -8.564  0.00  0.00    -0.274 OA
HETATM   15  N           1     -22.679  -3.918  -7.857  0.00  0.00    -0.370 N 
HETATM   16  H           1     -22.842  -3.015  -8.285  0.00  0.00     0.159 HD
HETATM   17  H           1     -23.424  -4.380  -7.352  0.00  0.00     0.159 HD
ENDBRANCH  12  13
ENDBRANCH   1  12
BRANCH   1  18
HETATM   18  N           1     -20.107  -4.562  -5.533  0.00  0.00    -0.066 N 
HETATM   19  H           1     -19.496  -4.819  -4.725  0.00  0.00     0.275 HD
HETATM   20  H           1     -19.514  -4.388  -6.375  0.00  0.00     0.275 HD
HETATM   21  H           1     -20.646  -3.698  -5.301  0.00  0.00     0.275 HD
ENDBRANCH   1  18
TORSDOF 5
ENDMDL
MODEL 6
REMARK VINA RESULT:      -5.0      5.240      9.500
REMARK  5 active torsions:
REMARK  status: ('A' for Active; 'I' for Inactive)
REMARK    1  A    between atoms: C_2  and  C_17 
REMARK       I    between atoms: N_3  and  C_4 
REMARK    2  A    between atoms: C_4  and  C_11 
REMARK       I    between atoms: N_8  and  C_9 
REMARK    3  A    between atoms: C_9  and  C_10 
REMARK    4  A    between atoms: C_10  and  C_11 
REMARK    5  A    between atoms: C_11  and  N_12 
ROOT
HETATM    1  C           1     -21.692  -7.215  -3.097  0.00  0.00     0.283 C 
ENDROOT
BRANCH   1   2
HETATM    2  C           1     -20.870  -8.138  -2.232  0.00  0.00     0.251 C 
HETATM    3  N           1     -21.367  -8.578  -1.035  0.00  0.00    -0.336 N 
HETATM    4  C           1     -20.718  -9.467  -0.075  0.00  0.00     0.188 C 
HETATM    5  C           1     -22.662  -8.260  -0.439  0.00  0.00     0.127 C 
HETATM    6  C           1     -21.064  -8.859   1.273  0.00  0.00     0.038 C 
HETATM    7  C           1     -22.345  -8.068   1.035  0.00  0.00     0.022 C 
HETATM    8  O           1     -19.773  -8.489  -2.596  0.00  0.00    -0.271 OA
BRANCH   4   9
HETATM    9  C           1     -21.265 -10.869  -0.188  0.00  0.00     0.196 C 
HETATM   10  O           1     -21.394 -11.400  -1.312  0.00  0.00    -0.646 OA
HETATM   11  O           1     -21.590 -11.499   0.842  0.00  0.00    -0.646 OA
ENDBRANCH   4   9
ENDBRANCH   1   2
BRANCH   1  12
HETATM   12  C           1     -21.030  -7.072  -4.461  0.00  0.00     0.145 C 
BRANCH  12  13
HETATM   13  C           1     -21.774  -6.044  -5.277  0.00  0.00     0.217 C 
HETATM   14  O           1     -22.982  -6.012  -5.253  0.00  0.00    -0.274 OA
HETATM   15  N           1     -21.081  -5.147  -6.044  0.00  0.00    -0.370 N 
HETATM   16  H           1     -21.580  -4.457  -6.592  0.00  0.00     0.159 HD
HETATM   17  H           1     -20.070  -5.173  -6.064  0.00  0.00     0.159 HD
ENDBRANCH  12  13
ENDBRANCH   1  12
BRANCH   1  18
HETATM   18  N           1     -21.783  -5.868  -2.443  0.00  0.00    -0.066 N 
HETATM   19  H           1     -22.785  -5.573  -2.391  0.00  0.00     0.275 HD
HETATM   20  H           1     -21.387  -5.922  -1.478  0.00  0.00     0.275 HD
HETATM   21  H           1     -21.244  -5.171  -3.004  0.00  0.00     0.275 HD
ENDBRANCH   1  18
TORSDOF 5
ENDMDL
MODEL 7
REMARK VINA RESULT:      -4.9     12.300     13.664
REMARK  5 active torsions:
REMARK  status: ('A' for Active; 'I' for Inactive)
REMARK    1  A    between atoms: C_2  and  C_17 
REMARK       I    between atoms: N_3  and  C_4 
REMARK    2  A    between atoms: C_4  and  C_11 
REMARK       I    between atoms: N_8  and  C_9 
REMARK    3  A    between atoms: C_9  and  C_10 
REMARK    4  A    between atoms: C_10  and  C_11 
REMARK    5  A    between atoms: C_11  and  N_12 
ROOT
HETATM    1  C           1     -26.051   7.116 -10.627  0.00  0.00     0.283 C 
ENDROOT
BRANCH   1   2
HETATM    2  C           1     -25.025   7.749 -11.534  0.00  0.00     0.251 C 
HETATM    3  N           1     -24.803   9.099 -11.479  0.00  0.00    -0.336 N 
HETATM    4  C           1     -23.858   9.878 -12.275  0.00  0.00     0.188 C 
HETATM    5  C           1     -25.459  10.073 -10.611  0.00  0.00     0.127 C 
HETATM    6  C           1     -24.626  11.144 -12.612  0.00  0.00     0.038 C 
HETATM    7  C           1     -25.677  11.275 -11.516  0.00  0.00     0.022 C 
HETATM    8  O           1     -24.400   7.066 -12.310  0.00  0.00    -0.271 OA
BRANCH   4   9
HETATM    9  C           1     -22.619  10.199 -11.474  0.00  0.00     0.196 C 
HETATM   10  O           1     -22.296  11.390 -11.274  0.00  0.00    -0.646 OA
HETATM   11  O           1     -21.916   9.274 -11.011  0.00  0.00    -0.646 OA
ENDBRANCH   4   9
ENDBRANCH   1   2
BRANCH   1  12
HETATM   12  C           1     -25.672   5.663 -10.367  0.00  0.00     0.145 C 
BRANCH  12  13
HETATM   13  C           1     -25.377   5.475  -8.900  0.00  0.00     0.217 C 
HETATM   14  O           1     -25.957   6.143  -8.076  0.00  0.00    -0.274 OA
HETATM   15  N           1     -24.453   4.547  -8.501  0.00  0.00    -0.370 N 
HETATM   16  H           1     -24.255   4.421  -7.516  0.00  0.00     0.159 HD
HETATM   17  H           1     -23.968   3.987  -9.190  0.00  0.00     0.159 HD
ENDBRANCH  12  13
ENDBRANCH   1  12
BRANCH   1  18
HETATM   18  N           1     -27.398   7.169 -11.284  0.00  0.00    -0.066 N 
HETATM   19  H           1     -27.358   6.669 -12.202  0.00  0.00     0.275 HD
HETATM   20  H           1     -28.104   6.707 -10.668  0.00  0.00     0.275 HD
HETATM   21  H           1     -27.670   8.165 -11.442  0.00  0.00     0.275 HD
ENDBRANCH   1  18
TORSDOF 5
ENDMDL
MODEL 8
REMARK VINA RESULT:      -4.9      5.047      9.260
REMARK  5 active torsions:
REMARK  status: ('A' for Active; 'I' for Inactive)
REMARK    1  A    between atoms: C_2  and  C_17 
REMARK       I    between atoms: N_3  and  C_4 
REMARK    2  A    between atoms: C_4  and  C_11 
REMARK       I    between atoms: N_8  and  C_9 
REMARK    3  A    between atoms: C_9  and  C_10 
REMARK    4  A    between atoms: C_10  and  C_11 
REMARK    5  A    between atoms: C_11  and  N_12 
ROOT
HETATM    1  C           1     -20.317  -8.513  -3.878  0.00  0.00     0.283 C 
ENDROOT
BRANCH   1   2
HETATM    2  C           1     -20.642  -9.591  -2.873  0.00  0.00     0.251 C 
HETATM    3  N           1     -21.388  -9.291  -1.765  0.00  0.00    -0.336 N 
HETATM    4  C           1     -21.796 -10.198  -0.696  0.00  0.00     0.188 C 
HETATM    5  C           1     -21.950  -7.995  -1.396  0.00  0.00     0.127 C 
HETATM    6  C           1     -21.627  -9.370   0.566  0.00  0.00     0.038 C 
HETATM    7  C           1     -21.732  -7.920   0.106  0.00  0.00     0.022 C 
HETATM    8  O           1     -20.243 -10.718  -3.046  0.00  0.00    -0.271 OA
BRANCH   4   9
HETATM    9  C           1     -23.234 -10.621  -0.871  0.00  0.00     0.196 C 
HETATM   10  O           1     -23.612 -11.115  -1.955  0.00  0.00    -0.646 OA
HETATM   11  O           1     -24.047 -10.477   0.068  0.00  0.00    -0.646 OA
ENDBRANCH   4   9
ENDBRANCH   1   2
BRANCH   1  12
HETATM   12  C           1     -21.435  -8.426  -4.910  0.00  0.00     0.145 C 
BRANCH  12  13
HETATM   13  C           1     -21.404  -7.071  -5.573  0.00  0.00     0.217 C 
HETATM   14  O           1     -20.628  -6.857  -6.474  0.00  0.00    -0.274 OA
HETATM   15  N           1     -22.254  -6.084  -5.153  0.00  0.00    -0.370 N 
HETATM   16  H           1     -22.233  -5.175  -5.597  0.00  0.00     0.159 HD
HETATM   17  H           1     -22.904  -6.263  -4.398  0.00  0.00     0.159 HD
ENDBRANCH  12  13
ENDBRANCH   1  12
BRANCH   1  18
HETATM   18  N           1     -19.027  -8.847  -4.568  0.00  0.00    -0.066 N 
HETATM   19  H           1     -18.390  -8.019  -4.533  0.00  0.00     0.275 HD
HETATM   20  H           1     -18.574  -9.655  -4.086  0.00  0.00     0.275 HD
HETATM   21  H           1     -19.219  -9.097  -5.564  0.00  0.00     0.275 HD
ENDBRANCH   1  18
TORSDOF 5
ENDMDL
MODEL 9
REMARK VINA RESULT:      -4.9      5.709      9.710
REMARK  5 active torsions:
REMARK  status: ('A' for Active; 'I' for Inactive)
REMARK    1  A    between atoms: C_2  and  C_17 
REMARK       I    between atoms: N_3  and  C_4 
REMARK    2  A    between atoms: C_4  and  C_11 
REMARK       I    between atoms: N_8  and  C_9 
REMARK    3  A    between atoms: C_9  and  C_10 
REMARK    4  A    between atoms: C_10  and  C_11 
REMARK    5  A    between atoms: C_11  and  N_12 
ROOT
HETATM    1  C           1     -22.123  -7.456  -2.323  0.00  0.00     0.283 C 
ENDROOT
BRANCH   1   2
HETATM    2  C           1     -21.775  -8.302  -1.123  0.00  0.00     0.251 C 
HETATM    3  N           1     -22.121  -9.627  -1.097  0.00  0.00    -0.336 N 
HETATM    4  C           1     -21.868 -10.590  -0.029  0.00  0.00     0.188 C 
HETATM    5  C           1     -22.821 -10.384  -2.131  0.00  0.00     0.127 C 
HETATM    6  C           1     -23.150 -11.403   0.036  0.00  0.00     0.038 C 
HETATM    7  C           1     -23.775 -11.270  -1.347  0.00  0.00     0.022 C 
HETATM    8  O           1     -21.193  -7.811  -0.185  0.00  0.00    -0.271 OA
BRANCH   4   9
HETATM    9  C           1     -20.692 -11.472  -0.370  0.00  0.00     0.196 C 
HETATM   10  O           1     -19.635 -10.964  -0.804  0.00  0.00    -0.646 OA
HETATM   11  O           1     -20.773 -12.711  -0.218  0.00  0.00    -0.646 OA
ENDBRANCH   4   9
ENDBRANCH   1   2
BRANCH   1  12
HETATM   12  C           1     -20.979  -7.503  -3.328  0.00  0.00     0.145 C 
BRANCH  12  13
HETATM   13  C           1     -21.490  -7.106  -4.691  0.00  0.00     0.217 C 
HETATM   14  O           1     -22.128  -6.089  -4.825  0.00  0.00    -0.274 OA
HETATM   15  N           1     -21.230  -7.899  -5.776  0.00  0.00    -0.370 N 
HETATM   16  H           1     -21.572  -7.633  -6.691  0.00  0.00     0.159 HD
HETATM   17  H           1     -20.695  -8.751  -5.665  0.00  0.00     0.159 HD
ENDBRANCH  12  13
ENDBRANCH   1  12
BRANCH   1  18
HETATM   18  N           1     -22.344  -6.038  -1.886  0.00  0.00    -0.066 N 
HETATM   19  H           1     -22.525  -6.015  -0.857  0.00  0.00     0.275 HD
HETATM   20  H           1     -21.493  -5.471  -2.101  0.00  0.00     0.275 HD
HETATM   21  H           1     -23.166  -5.640  -2.393  0.00  0.00     0.275 HD
ENDBRANCH   1  18
TORSDOF 5
ENDMDL
