MODEL 1
REMARK VINA RESULT:      -7.2      0.000      0.000
REMARK  10 active torsions:
REMARK  status: ('A' for Active; 'I' for Inactive)
REMARK    1  A    between atoms: O_1  and  C_15 
REMARK    2  A    between atoms: C_7  and  C_12 
REMARK    3  A    between atoms: C_7  and  C_8 
REMARK    4  A    between atoms: C_8  and  C_24 
REMARK    5  A    between atoms: C_8  and  N_10 
REMARK       I    between atoms: C_9  and  N_10 
REMARK    6  A    between atoms: C_9  and  C_14 
REMARK    7  A    between atoms: C_12  and  C_20 
REMARK    8  A    between atoms: C_14  and  C_15 
REMARK    9  A    between atoms: C_14  and  N_19 
REMARK       I    between atoms: N_18  and  C_25 
REMARK   10  A    between atoms: C_20  and  N_28 
REMARK       I    between atoms: N_23  and  C_25 
ROOT
HETATM    1  C           1     -34.905  -2.516 -12.162  0.00  0.00     0.185 C 
ENDROOT
BRANCH   1   2
HETATM    2  C           1     -34.000  -3.719 -12.392  0.00  0.00     0.038 C 
BRANCH   2   3
HETATM    3  C           1     -34.775  -4.999 -12.106  0.00  0.00     0.023 C 
BRANCH   3   4
HETATM    4  C           1     -34.415  -5.512 -10.717  0.00  0.00     0.138 C 
BRANCH   4   5
HETATM    5  N           1     -33.725  -6.805 -10.837  0.00  0.00    -0.227 N 
HETATM    6  H           1     -32.871  -6.891 -11.441  0.00  0.00     0.177 HD
HETATM    7  C           1     -34.162  -7.815 -10.211  0.00  0.00     0.665 C 
HETATM    8  N           1     -35.192  -7.712  -9.482  0.00  0.00    -0.235 N 
HETATM    9  N           1     -33.552  -8.959 -10.316  0.00  0.00    -0.235 N 
HETATM   10  H           1     -35.554  -8.550  -8.963  0.00  0.00     0.174 HD
HETATM   11  H           1     -35.685  -6.789  -9.397  0.00  0.00     0.174 HD
HETATM   12  H           1     -33.912  -9.792  -9.800  0.00  0.00     0.174 HD
HETATM   13  H           1     -32.702  -9.043 -10.918  0.00  0.00     0.174 HD
ENDBRANCH   4   5
ENDBRANCH   3   4
ENDBRANCH   2   3
ENDBRANCH   1   2
BRANCH   1  14
HETATM   14  C           1     -34.491  -1.810 -10.894  0.00  0.00     0.196 C 
HETATM   15  O           1     -35.349  -1.239 -10.188  0.00  0.00    -0.646 OA
HETATM   16  O           1     -33.289  -1.796 -10.552  0.00  0.00    -0.646 OA
ENDBRANCH   1  14
BRANCH   1  17
HETATM   17  N           1     -34.786  -1.602 -13.283  0.00  0.00    -0.345 N 
HETATM   18  C           1     -35.876  -0.885 -13.699  0.00  0.00     0.251 C 
HETATM   19  O           1     -36.935  -1.012 -13.133  0.00  0.00    -0.271 OA
HETATM   20  H           1     -33.899  -1.496 -13.757  0.00  0.00     0.163 HD
BRANCH  18  21
HETATM   21  C           1     -35.753   0.065 -14.865  0.00  0.00     0.297 C 
BRANCH  21  22
HETATM   22  C           1     -35.955  -0.700 -16.167  0.00  0.00     0.206 C 
BRANCH  22  23
HETATM   23  O           1     -34.848  -1.527 -16.400  0.00  0.00    -0.398 OA
HETATM   24  H           1     -34.182  -0.990 -16.794  0.00  0.00     0.209 HD
ENDBRANCH  22  23
ENDBRANCH  21  22
BRANCH  21  25
HETATM   25  N           1     -34.389   0.689 -14.859  0.00  0.00    -0.064 N 
HETATM   26  H           1     -34.330   1.392 -14.089  0.00  0.00     0.275 HD
HETATM   27  H           1     -33.667  -0.052 -14.710  0.00  0.00     0.275 HD
HETATM   28  H           1     -34.219   1.162 -15.776  0.00  0.00     0.275 HD
ENDBRANCH  21  25
ENDBRANCH  18  21
ENDBRANCH   1  17
TORSDOF 10
ENDMDL
MODEL 2
REMARK VINA RESULT:      -6.8      1.957      2.794
REMARK  10 active torsions:
REMARK  status: ('A' for Active; 'I' for Inactive)
REMARK    1  A    between atoms: O_1  and  C_15 
REMARK    2  A    between atoms: C_7  and  C_12 
REMARK    3  A    between atoms: C_7  and  C_8 
REMARK    4  A    between atoms: C_8  and  C_24 
REMARK    5  A    between atoms: C_8  and  N_10 
REMARK       I    between atoms: C_9  and  N_10 
REMARK    6  A    between atoms: C_9  and  C_14 
REMARK    7  A    between atoms: C_12  and  C_20 
REMARK    8  A    between atoms: C_14  and  C_15 
REMARK    9  A    between atoms: C_14  and  N_19 
REMARK       I    between atoms: N_18  and  C_25 
REMARK   10  A    between atoms: C_20  and  N_28 
REMARK       I    between atoms: N_23  and  C_25 
ROOT
HETATM    1  C           1     -36.744  -0.784 -11.255  0.00  0.00     0.185 C 
ENDROOT
BRANCH   1   2
HETATM    2  C           1     -35.758  -1.824 -10.739  0.00  0.00     0.038 C 
BRANCH   2   3
HETATM    3  C           1     -34.471  -1.750 -11.551  0.00  0.00     0.023 C 
BRANCH   3   4
HETATM    4  C           1     -33.385  -2.564 -10.859  0.00  0.00     0.138 C 
BRANCH   4   5
HETATM    5  N           1     -33.833  -3.956 -10.714  0.00  0.00    -0.227 N 
HETATM    6  H           1     -34.601  -4.193 -10.039  0.00  0.00     0.177 HD
HETATM    7  C           1     -33.294  -4.870 -11.405  0.00  0.00     0.665 C 
HETATM    8  N           1     -32.368  -4.584 -12.220  0.00  0.00    -0.235 N 
HETATM    9  N           1     -33.690  -6.101 -11.277  0.00  0.00    -0.235 N 
HETATM   10  H           1     -31.921  -5.342 -12.793  0.00  0.00     0.174 HD
HETATM   11  H           1     -32.048  -3.589 -12.324  0.00  0.00     0.174 HD
HETATM   12  H           1     -33.245  -6.855 -11.847  0.00  0.00     0.174 HD
HETATM   13  H           1     -34.454  -6.337 -10.604  0.00  0.00     0.174 HD
ENDBRANCH   4   5
ENDBRANCH   3   4
ENDBRANCH   2   3
ENDBRANCH   1   2
BRANCH   1  14
HETATM   14  C           1     -36.996   0.247 -10.181  0.00  0.00     0.196 C 
HETATM   15  O           1     -38.004   0.981 -10.244  0.00  0.00    -0.646 OA
HETATM   16  O           1     -36.193   0.366  -9.230  0.00  0.00    -0.646 OA
ENDBRANCH   1  14
BRANCH   1  17
HETATM   17  N           1     -36.190  -0.134 -12.427  0.00  0.00    -0.345 N 
HETATM   18  C           1     -36.866  -0.178 -13.617  0.00  0.00     0.251 C 
HETATM   19  O           1     -37.924  -0.757 -13.691  0.00  0.00    -0.271 OA
HETATM   20  H           1     -35.305   0.352 -12.365  0.00  0.00     0.163 HD
BRANCH  18  21
HETATM   21  C           1     -36.290   0.498 -14.837  0.00  0.00     0.297 C 
BRANCH  21  22
HETATM   22  C           1     -35.712  -0.553 -15.775  0.00  0.00     0.206 C 
BRANCH  22  23
HETATM   23  O           1     -35.261  -1.649 -15.028  0.00  0.00    -0.398 OA
HETATM   24  H           1     -34.743  -1.304 -14.320  0.00  0.00     0.209 HD
ENDBRANCH  22  23
ENDBRANCH  21  22
BRANCH  21  25
HETATM   25  N           1     -35.205   1.445 -14.418  0.00  0.00    -0.064 N 
HETATM   26  H           1     -35.495   2.425 -14.630  0.00  0.00     0.275 HD
HETATM   27  H           1     -35.034   1.347 -13.391  0.00  0.00     0.275 HD
HETATM   28  H           1     -34.327   1.221 -14.940  0.00  0.00     0.275 HD
ENDBRANCH  21  25
ENDBRANCH  18  21
ENDBRANCH   1  17
TORSDOF 10
ENDMDL
MODEL 3
REMARK VINA RESULT:      -6.6      8.407      9.831
REMARK  10 active torsions:
REMARK  status: ('A' for Active; 'I' for Inactive)
REMARK    1  A    between atoms: O_1  and  C_15 
REMARK    2  A    between atoms: C_7  and  C_12 
REMARK    3  A    between atoms: C_7  and  C_8 
REMARK    4  A    between atoms: C_8  and  C_24 
REMARK    5  A    between atoms: C_8  and  N_10 
REMARK       I    between atoms: C_9  and  N_10 
REMARK    6  A    between atoms: C_9  and  C_14 
REMARK    7  A    between atoms: C_12  and  C_20 
REMARK    8  A    between atoms: C_14  and  C_15 
REMARK    9  A    between atoms: C_14  and  N_19 
REMARK       I    between atoms: N_18  and  C_25 
REMARK   10  A    between atoms: C_20  and  N_28 
REMARK       I    between atoms: N_23  and  C_25 
ROOT
HETATM    1  C           1     -28.653  -6.586 -17.037  0.00  0.00     0.185 C 
ENDROOT
BRANCH   1   2
HETATM    2  C           1     -29.669  -7.691 -17.296  0.00  0.00     0.038 C 
BRANCH   2   3
HETATM    3  C           1     -31.016  -7.070 -17.645  0.00  0.00     0.023 C 
BRANCH   3   4
HETATM    4  C           1     -31.008  -5.594 -17.269  0.00  0.00     0.138 C 
BRANCH   4   5
HETATM    5  N           1     -32.322  -5.218 -16.728  0.00  0.00    -0.227 N 
HETATM    6  H           1     -32.896  -5.925 -16.206  0.00  0.00     0.177 HD
HETATM    7  C           1     -32.762  -4.043 -16.892  0.00  0.00     0.665 C 
HETATM    8  N           1     -32.069  -3.190 -17.522  0.00  0.00    -0.235 N 
HETATM    9  N           1     -33.924  -3.711 -16.414  0.00  0.00    -0.235 N 
HETATM   10  H           1     -32.434  -2.215 -17.658  0.00  0.00     0.174 HD
HETATM   11  H           1     -31.130  -3.458 -17.908  0.00  0.00     0.174 HD
HETATM   12  H           1     -34.286  -2.741 -16.549  0.00  0.00     0.174 HD
HETATM   13  H           1     -34.495  -4.415 -15.894  0.00  0.00     0.174 HD
ENDBRANCH   4   5
ENDBRANCH   3   4
ENDBRANCH   2   3
ENDBRANCH   1   2
BRANCH   1  14
HETATM   14  C           1     -28.319  -6.545 -15.565  0.00  0.00     0.196 C 
HETATM   15  O           1     -27.829  -7.550 -15.007  0.00  0.00    -0.646 OA
HETATM   16  O           1     -28.534  -5.506 -14.905  0.00  0.00    -0.646 OA
ENDBRANCH   1  14
BRANCH   1  17
HETATM   17  N           1     -27.447  -6.852 -17.798  0.00  0.00    -0.345 N 
HETATM   18  C           1     -27.290  -6.304 -19.043  0.00  0.00     0.251 C 
HETATM   19  O           1     -28.154  -5.599 -19.507  0.00  0.00    -0.271 OA
HETATM   20  H           1     -26.723  -7.442 -17.409  0.00  0.00     0.163 HD
BRANCH  18  21
HETATM   21  C           1     -26.036  -6.580 -19.835  0.00  0.00     0.297 C 
BRANCH  21  22
HETATM   22  C           1     -26.307  -7.686 -20.847  0.00  0.00     0.206 C 
BRANCH  22  23
HETATM   23  O           1     -27.528  -8.305 -20.548  0.00  0.00    -0.398 OA
HETATM   24  H           1     -27.552  -8.426 -19.613  0.00  0.00     0.209 HD
ENDBRANCH  22  23
ENDBRANCH  21  22
BRANCH  21  25
HETATM   25  N           1     -24.942  -7.012 -18.905  0.00  0.00    -0.064 N 
HETATM   26  H           1     -24.030  -6.625 -19.234  0.00  0.00     0.275 HD
HETATM   27  H           1     -25.143  -6.658 -17.942  0.00  0.00     0.275 HD
HETATM   28  H           1     -24.891  -8.057 -18.888  0.00  0.00     0.275 HD
ENDBRANCH  21  25
ENDBRANCH  18  21
ENDBRANCH   1  17
TORSDOF 10
ENDMDL
MODEL 4
REMARK VINA RESULT:      -6.4     12.168     13.208
REMARK  10 active torsions:
REMARK  status: ('A' for Active; 'I' for Inactive)
REMARK    1  A    between atoms: O_1  and  C_15 
REMARK    2  A    between atoms: C_7  and  C_12 
REMARK    3  A    between atoms: C_7  and  C_8 
REMARK    4  A    between atoms: C_8  and  C_24 
REMARK    5  A    between atoms: C_8  and  N_10 
REMARK       I    between atoms: C_9  and  N_10 
REMARK    6  A    between atoms: C_9  and  C_14 
REMARK    7  A    between atoms: C_12  and  C_20 
REMARK    8  A    between atoms: C_14  and  C_15 
REMARK    9  A    between atoms: C_14  and  N_19 
REMARK       I    between atoms: N_18  and  C_25 
REMARK   10  A    between atoms: C_20  and  N_28 
REMARK       I    between atoms: N_23  and  C_25 
ROOT
HETATM    1  C           1     -22.223  -4.191  -9.299  0.00  0.00     0.185 C 
ENDROOT
BRANCH   1   2
HETATM    2  C           1     -20.989  -3.819  -8.486  0.00  0.00     0.038 C 
BRANCH   2   3
HETATM    3  C           1     -20.063  -5.025  -8.388  0.00  0.00     0.023 C 
BRANCH   3   4
HETATM    4  C           1     -19.647  -5.230  -6.937  0.00  0.00     0.138 C 
BRANCH   4   5
HETATM    5  N           1     -20.838  -5.198  -6.076  0.00  0.00    -0.227 N 
HETATM    6  H           1     -21.301  -4.282  -5.854  0.00  0.00     0.177 HD
HETATM    7  C           1     -21.307  -6.274  -5.603  0.00  0.00     0.665 C 
HETATM    8  N           1     -20.749  -7.380  -5.871  0.00  0.00    -0.235 N 
HETATM    9  N           1     -22.360  -6.246  -4.842  0.00  0.00    -0.235 N 
HETATM   10  H           1     -21.138  -8.272  -5.478  0.00  0.00     0.174 HD
HETATM   11  H           1     -19.899  -7.403  -6.486  0.00  0.00     0.174 HD
HETATM   12  H           1     -22.746  -7.134  -4.451  0.00  0.00     0.174 HD
HETATM   13  H           1     -22.820  -5.334  -4.621  0.00  0.00     0.174 HD
ENDBRANCH   4   5
ENDBRANCH   3   4
ENDBRANCH   2   3
ENDBRANCH   1   2
BRANCH   1  14
HETATM   14  C           1     -23.446  -4.115  -8.419  0.00  0.00     0.196 C 
HETATM   15  O           1     -23.374  -4.448  -7.217  0.00  0.00    -0.646 OA
HETATM   16  O           1     -24.533  -3.720  -8.894  0.00  0.00    -0.646 OA
ENDBRANCH   1  14
BRANCH   1  17
HETATM   17  N           1     -22.367  -3.265 -10.406  0.00  0.00    -0.345 N 
HETATM   18  C           1     -22.682  -3.735 -11.653  0.00  0.00     0.251 C 
HETATM   19  O           1     -22.841  -4.919 -11.831  0.00  0.00    -0.271 OA
HETATM   20  H           1     -22.235  -2.273 -10.257  0.00  0.00     0.163 HD
BRANCH  18  21
HETATM   21  C           1     -22.832  -2.772 -12.806  0.00  0.00     0.297 C 
BRANCH  21  22
HETATM   22  C           1     -24.311  -2.507 -13.057  0.00  0.00     0.206 C 
BRANCH  22  23
HETATM   23  O           1     -25.067  -3.032 -12.001  0.00  0.00    -0.398 OA
HETATM   24  H           1     -25.860  -2.527 -11.953  0.00  0.00     0.209 HD
ENDBRANCH  22  23
ENDBRANCH  21  22
BRANCH  21  25
HETATM   25  N           1     -22.215  -3.367 -14.036  0.00  0.00    -0.064 N 
HETATM   26  H           1     -21.194  -3.148 -14.056  0.00  0.00     0.275 HD
HETATM   27  H           1     -22.348  -4.404 -14.027  0.00  0.00     0.275 HD
HETATM   28  H           1     -22.674  -2.964 -14.885  0.00  0.00     0.275 HD
ENDBRANCH  21  25
ENDBRANCH  18  21
ENDBRANCH   1  17
TORSDOF 10
ENDMDL
MODEL 5
REMARK VINA RESULT:      -6.2     11.724     14.115
REMARK  10 active torsions:
REMARK  status: ('A' for Active; 'I' for Inactive)
REMARK    1  A    between atoms: O_1  and  C_15 
REMARK    2  A    between atoms: C_7  and  C_12 
REMARK    3  A    between atoms: C_7  and  C_8 
REMARK    4  A    between atoms: C_8  and  C_24 
REMARK    5  A    between atoms: C_8  and  N_10 
REMARK       I    between atoms: C_9  and  N_10 
REMARK    6  A    between atoms: C_9  and  C_14 
REMARK    7  A    between atoms: C_12  and  C_20 
REMARK    8  A    between atoms: C_14  and  C_15 
REMARK    9  A    between atoms: C_14  and  N_19 
REMARK       I    between atoms: N_18  and  C_25 
REMARK   10  A    between atoms: C_20  and  N_28 
REMARK       I    between atoms: N_23  and  C_25 
ROOT
HETATM    1  C           1     -22.847  -3.623  -9.488  0.00  0.00     0.185 C 
ENDROOT
BRANCH   1   2
HETATM    2  C           1     -22.152  -3.717 -10.841  0.00  0.00     0.038 C 
BRANCH   2   3
HETATM    3  C           1     -23.199  -3.835 -11.942  0.00  0.00     0.023 C 
BRANCH   3   4
HETATM    4  C           1     -22.756  -3.025 -13.153  0.00  0.00     0.138 C 
BRANCH   4   5
HETATM    5  N           1     -23.717  -1.939 -13.395  0.00  0.00    -0.227 N 
HETATM    6  H           1     -24.373  -1.640 -12.632  0.00  0.00     0.177 HD
HETATM    7  C           1     -23.753  -1.365 -14.522  0.00  0.00     0.665 C 
HETATM    8  N           1     -22.962  -1.726 -15.443  0.00  0.00    -0.235 N 
HETATM    9  N           1     -24.603  -0.405 -14.735  0.00  0.00    -0.235 N 
HETATM   10  H           1     -22.992  -1.250 -16.378  0.00  0.00     0.174 HD
HETATM   11  H           1     -22.276  -2.502 -15.270  0.00  0.00     0.174 HD
HETATM   12  H           1     -24.633   0.069 -15.666  0.00  0.00     0.174 HD
HETATM   13  H           1     -25.256  -0.107 -13.976  0.00  0.00     0.174 HD
ENDBRANCH   4   5
ENDBRANCH   3   4
ENDBRANCH   2   3
ENDBRANCH   1   2
BRANCH   1  14
HETATM   14  C           1     -24.335  -3.797  -9.674  0.00  0.00     0.196 C 
HETATM   15  O           1     -25.083  -2.797  -9.701  0.00  0.00    -0.646 OA
HETATM   16  O           1     -24.817  -4.943  -9.799  0.00  0.00    -0.646 OA
ENDBRANCH   1  14
BRANCH   1  17
HETATM   17  N           1     -22.345  -4.666  -8.614  0.00  0.00    -0.345 N 
HETATM   18  C           1     -21.617  -4.335  -7.503  0.00  0.00     0.251 C 
HETATM   19  O           1     -21.393  -3.176  -7.250  0.00  0.00    -0.271 OA
HETATM   20  H           1     -22.532  -5.637  -8.827  0.00  0.00     0.163 HD
BRANCH  18  21
HETATM   21  C           1     -21.094  -5.420  -6.594  0.00  0.00     0.297 C 
BRANCH  21  22
HETATM   22  C           1     -22.222  -5.928  -5.707  0.00  0.00     0.206 C 
BRANCH  22  23
HETATM   23  O           1     -21.803  -5.926  -4.370  0.00  0.00    -0.398 OA
HETATM   24  H           1     -20.990  -5.451  -4.338  0.00  0.00     0.209 HD
ENDBRANCH  22  23
ENDBRANCH  21  22
BRANCH  21  25
HETATM   25  N           1     -19.995  -4.866  -5.737  0.00  0.00    -0.064 N 
HETATM   26  H           1     -20.344  -4.738  -4.761  0.00  0.00     0.275 HD
HETATM   27  H           1     -19.188  -5.531  -5.733  0.00  0.00     0.275 HD
HETATM   28  H           1     -19.685  -3.944  -6.120  0.00  0.00     0.275 HD
ENDBRANCH  21  25
ENDBRANCH  18  21
ENDBRANCH   1  17
TORSDOF 10
ENDMDL
MODEL 6
REMARK VINA RESULT:      -6.0      2.700      3.281
REMARK  10 active torsions:
REMARK  status: ('A' for Active; 'I' for Inactive)
REMARK    1  A    between atoms: O_1  and  C_15 
REMARK    2  A    between atoms: C_7  and  C_12 
REMARK    3  A    between atoms: C_7  and  C_8 
REMARK    4  A    between atoms: C_8  and  C_24 
REMARK    5  A    between atoms: C_8  and  N_10 
REMARK       I    between atoms: C_9  and  N_10 
REMARK    6  A    between atoms: C_9  and  C_14 
REMARK    7  A    between atoms: C_12  and  C_20 
REMARK    8  A    between atoms: C_14  and  C_15 
REMARK    9  A    between atoms: C_14  and  N_19 
REMARK       I    between atoms: N_18  and  C_25 
REMARK   10  A    between atoms: C_20  and  N_28 
REMARK       I    between atoms: N_23  and  C_25 
ROOT
HETATM    1  C           1     -34.844  -2.123 -11.786  0.00  0.00     0.185 C 
ENDROOT
BRANCH   1   2
HETATM    2  C           1     -33.676  -3.081 -11.982  0.00  0.00     0.038 C 
BRANCH   2   3
HETATM    3  C           1     -34.169  -4.516 -11.844  0.00  0.00     0.023 C 
BRANCH   3   4
HETATM    4  C           1     -34.589  -5.043 -13.210  0.00  0.00     0.138 C 
BRANCH   4   5
HETATM    5  N           1     -33.956  -4.235 -14.263  0.00  0.00    -0.227 N 
HETATM    6  H           1     -33.375  -3.399 -14.005  0.00  0.00     0.177 HD
HETATM    7  C           1     -34.112  -4.546 -15.480  0.00  0.00     0.665 C 
HETATM    8  N           1     -34.812  -5.554 -15.791  0.00  0.00    -0.235 N 
HETATM    9  N           1     -33.552  -3.831 -16.410  0.00  0.00    -0.235 N 
HETATM   10  H           1     -34.942  -5.812 -16.800  0.00  0.00     0.174 HD
HETATM   11  H           1     -35.264  -6.131 -15.039  0.00  0.00     0.174 HD
HETATM   12  H           1     -33.681  -4.089 -17.415  0.00  0.00     0.174 HD
HETATM   13  H           1     -32.974  -3.000 -16.153  0.00  0.00     0.174 HD
ENDBRANCH   4   5
ENDBRANCH   3   4
ENDBRANCH   2   3
ENDBRANCH   1   2
BRANCH   1  14
HETATM   14  C           1     -34.795  -1.549 -10.391  0.00  0.00     0.196 C 
HETATM   15  O           1     -35.806  -0.999  -9.905  0.00  0.00    -0.646 OA
HETATM   16  O           1     -33.741  -1.623  -9.723  0.00  0.00    -0.646 OA
ENDBRANCH   1  14
BRANCH   1  17
HETATM   17  N           1     -34.752  -1.047 -12.754  0.00  0.00    -0.345 N 
HETATM   18  C           1     -35.885  -0.568 -13.355  0.00  0.00     0.251 C 
HETATM   19  O           1     -36.962  -1.041 -13.078  0.00  0.00    -0.271 OA
HETATM   20  H           1     -33.850  -0.650 -12.985  0.00  0.00     0.163 HD
BRANCH  18  21
HETATM   21  C           1     -35.790   0.551 -14.362  0.00  0.00     0.297 C 
BRANCH  21  22
HETATM   22  C           1     -36.865   0.371 -15.426  0.00  0.00     0.206 C 
BRANCH  22  23
HETATM   23  O           1     -37.142   1.607 -16.024  0.00  0.00    -0.398 OA
HETATM   24  H           1     -37.128   1.470 -16.956  0.00  0.00     0.209 HD
ENDBRANCH  22  23
ENDBRANCH  21  22
BRANCH  21  25
HETATM   25  N           1     -34.437   0.526 -15.010  0.00  0.00    -0.064 N 
HETATM   26  H           1     -34.278  -0.407 -15.451  0.00  0.00     0.275 HD
HETATM   27  H           1     -34.388   1.270 -15.742  0.00  0.00     0.275 HD
HETATM   28  H           1     -33.702   0.699 -14.287  0.00  0.00     0.275 HD
ENDBRANCH  21  25
ENDBRANCH  18  21
ENDBRANCH   1  17
TORSDOF 10
ENDMDL
MODEL 7
REMARK VINA RESULT:      -6.0     11.667     13.098
REMARK  10 active torsions:
REMARK  status: ('A' for Active; 'I' for Inactive)
REMARK    1  A    between atoms: O_1  and  C_15 
REMARK    2  A    between atoms: C_7  and  C_12 
REMARK    3  A    between atoms: C_7  and  C_8 
REMARK    4  A    between atoms: C_8  and  C_24 
REMARK    5  A    between atoms: C_8  and  N_10 
REMARK       I    between atoms: C_9  and  N_10 
REMARK    6  A    between atoms: C_9  and  C_14 
REMARK    7  A    between atoms: C_12  and  C_20 
REMARK    8  A    between atoms: C_14  and  C_15 
REMARK    9  A    between atoms: C_14  and  N_19 
REMARK       I    between atoms: N_18  and  C_25 
REMARK   10  A    between atoms: C_20  and  N_28 
REMARK       I    between atoms: N_23  and  C_25 
ROOT
HETATM    1  C           1     -27.030  -6.953 -20.257  0.00  0.00     0.185 C 
ENDROOT
BRANCH   1   2
HETATM    2  C           1     -25.580  -6.494 -20.326  0.00  0.00     0.038 C 
BRANCH   2   3
HETATM    3  C           1     -24.852  -6.915 -19.056  0.00  0.00     0.023 C 
BRANCH   3   4
HETATM    4  C           1     -23.532  -7.582 -19.423  0.00  0.00     0.138 C 
BRANCH   4   5
HETATM    5  N           1     -23.666  -8.248 -20.727  0.00  0.00    -0.227 N 
HETATM    6  H           1     -24.613  -8.361 -21.164  0.00  0.00     0.177 HD
HETATM    7  C           1     -22.638  -8.686 -21.322  0.00  0.00     0.665 C 
HETATM    8  N           1     -21.495  -8.550 -20.795  0.00  0.00    -0.235 N 
HETATM    9  N           1     -22.756  -9.275 -22.475  0.00  0.00    -0.235 N 
HETATM   10  H           1     -20.642  -8.913 -21.289  0.00  0.00     0.174 HD
HETATM   11  H           1     -21.399  -8.074 -19.864  0.00  0.00     0.174 HD
HETATM   12  H           1     -21.908  -9.636 -22.966  0.00  0.00     0.174 HD
HETATM   13  H           1     -23.699  -9.387 -22.910  0.00  0.00     0.174 HD
ENDBRANCH   4   5
ENDBRANCH   3   4
ENDBRANCH   2   3
ENDBRANCH   1   2
BRANCH   1  14
HETATM   14  C           1     -27.195  -8.222 -21.057  0.00  0.00     0.196 C 
HETATM   15  O           1     -26.244  -8.660 -21.737  0.00  0.00    -0.646 OA
HETATM   16  O           1     -28.286  -8.833 -21.040  0.00  0.00    -0.646 OA
ENDBRANCH   1  14
BRANCH   1  17
HETATM   17  N           1     -27.390  -7.204 -18.874  0.00  0.00    -0.345 N 
HETATM   18  C           1     -28.345  -6.435 -18.265  0.00  0.00     0.251 C 
HETATM   19  O           1     -28.887  -5.546 -18.878  0.00  0.00    -0.271 OA
HETATM   20  H           1     -26.936  -7.949 -18.361  0.00  0.00     0.163 HD
BRANCH  18  21
HETATM   21  C           1     -28.719  -6.696 -16.827  0.00  0.00     0.297 C 
BRANCH  21  22
HETATM   22  C           1     -27.516  -6.429 -15.931  0.00  0.00     0.206 C 
BRANCH  22  23
HETATM   23  O           1     -26.805  -7.620 -15.736  0.00  0.00    -0.398 OA
HETATM   24  H           1     -26.728  -7.744 -14.805  0.00  0.00     0.209 HD
ENDBRANCH  22  23
ENDBRANCH  21  22
BRANCH  21  25
HETATM   25  N           1     -29.148  -8.125 -16.674  0.00  0.00    -0.064 N 
HETATM   26  H           1     -29.318  -8.541 -17.616  0.00  0.00     0.275 HD
HETATM   27  H           1     -28.398  -8.664 -16.185  0.00  0.00     0.275 HD
HETATM   28  H           1     -30.029  -8.165 -16.111  0.00  0.00     0.275 HD
ENDBRANCH  21  25
ENDBRANCH  18  21
ENDBRANCH   1  17
TORSDOF 10
ENDMDL
MODEL 8
REMARK VINA RESULT:      -6.0     12.953     15.281
REMARK  10 active torsions:
REMARK  status: ('A' for Active; 'I' for Inactive)
REMARK    1  A    between atoms: O_1  and  C_15 
REMARK    2  A    between atoms: C_7  and  C_12 
REMARK    3  A    between atoms: C_7  and  C_8 
REMARK    4  A    between atoms: C_8  and  C_24 
REMARK    5  A    between atoms: C_8  and  N_10 
REMARK       I    between atoms: C_9  and  N_10 
REMARK    6  A    between atoms: C_9  and  C_14 
REMARK    7  A    between atoms: C_12  and  C_20 
REMARK    8  A    between atoms: C_14  and  C_15 
REMARK    9  A    between atoms: C_14  and  N_19 
REMARK       I    between atoms: N_18  and  C_25 
REMARK   10  A    between atoms: C_20  and  N_28 
REMARK       I    between atoms: N_23  and  C_25 
ROOT
HETATM    1  C           1     -21.630  -4.812  -8.081  0.00  0.00     0.185 C 
ENDROOT
BRANCH   1   2
HETATM    2  C           1     -22.641  -3.704  -8.347  0.00  0.00     0.038 C 
BRANCH   2   3
HETATM    3  C           1     -23.815  -4.269  -9.137  0.00  0.00     0.023 C 
BRANCH   3   4
HETATM    4  C           1     -24.020  -3.446 -10.402  0.00  0.00     0.138 C 
BRANCH   4   5
HETATM    5  N           1     -22.950  -3.749 -11.363  0.00  0.00    -0.227 N 
HETATM    6  H           1     -22.214  -4.458 -11.122  0.00  0.00     0.177 HD
HETATM    7  C           1     -22.916  -3.156 -12.481  0.00  0.00     0.665 C 
HETATM    8  N           1     -23.804  -2.301 -12.771  0.00  0.00    -0.235 N 
HETATM    9  N           1     -21.970  -3.425 -13.331  0.00  0.00    -0.235 N 
HETATM   10  H           1     -23.776  -1.810 -13.698  0.00  0.00     0.174 HD
HETATM   11  H           1     -24.569  -2.085 -12.085  0.00  0.00     0.174 HD
HETATM   12  H           1     -21.942  -2.935 -14.253  0.00  0.00     0.174 HD
HETATM   13  H           1     -21.238  -4.130 -13.091  0.00  0.00     0.174 HD
ENDBRANCH   4   5
ENDBRANCH   3   4
ENDBRANCH   2   3
ENDBRANCH   1   2
BRANCH   1  14
HETATM   14  C           1     -20.317  -4.463  -8.738  0.00  0.00     0.196 C 
HETATM   15  O           1     -20.196  -4.550  -9.978  0.00  0.00    -0.646 OA
HETATM   16  O           1     -19.350  -4.089  -8.039  0.00  0.00    -0.646 OA
ENDBRANCH   1  14
BRANCH   1  17
HETATM   17  N           1     -21.432  -4.949  -6.650  0.00  0.00    -0.345 N 
HETATM   18  C           1     -21.235  -6.189  -6.103  0.00  0.00     0.251 C 
HETATM   19  O           1     -21.226  -7.168  -6.811  0.00  0.00    -0.271 OA
HETATM   20  H           1     -21.439  -4.129  -6.057  0.00  0.00     0.163 HD
BRANCH  18  21
HETATM   21  C           1     -21.029  -6.332  -4.615  0.00  0.00     0.297 C 
BRANCH  21  22
HETATM   22  C           1     -20.483  -7.721  -4.309  0.00  0.00     0.206 C 
BRANCH  22  23
HETATM   23  O           1     -21.530  -8.652  -4.338  0.00  0.00    -0.398 OA
HETATM   24  H           1     -22.250  -8.270  -3.864  0.00  0.00     0.209 HD
ENDBRANCH  22  23
ENDBRANCH  21  22
BRANCH  21  25
HETATM   25  N           1     -22.339  -6.144  -3.909  0.00  0.00    -0.064 N 
HETATM   26  H           1     -23.112  -6.111  -4.610  0.00  0.00     0.275 HD
HETATM   27  H           1     -22.498  -6.940  -3.252  0.00  0.00     0.275 HD
HETATM   28  H           1     -22.319  -5.247  -3.371  0.00  0.00     0.275 HD
ENDBRANCH  21  25
ENDBRANCH  18  21
ENDBRANCH   1  17
TORSDOF 10
ENDMDL
MODEL 9
REMARK VINA RESULT:      -5.8     10.428     11.908
REMARK  10 active torsions:
REMARK  status: ('A' for Active; 'I' for Inactive)
REMARK    1  A    between atoms: O_1  and  C_15 
REMARK    2  A    between atoms: C_7  and  C_12 
REMARK    3  A    between atoms: C_7  and  C_8 
REMARK    4  A    between atoms: C_8  and  C_24 
REMARK    5  A    between atoms: C_8  and  N_10 
REMARK       I    between atoms: C_9  and  N_10 
REMARK    6  A    between atoms: C_9  and  C_14 
REMARK    7  A    between atoms: C_12  and  C_20 
REMARK    8  A    between atoms: C_14  and  C_15 
REMARK    9  A    between atoms: C_14  and  N_19 
REMARK       I    between atoms: N_18  and  C_25 
REMARK   10  A    between atoms: C_20  and  N_28 
REMARK       I    between atoms: N_23  and  C_25 
ROOT
HETATM    1  C           1     -27.200  -7.031 -20.430  0.00  0.00     0.185 C 
ENDROOT
BRANCH   1   2
HETATM    2  C           1     -25.845  -6.431 -20.078  0.00  0.00     0.038 C 
BRANCH   2   3
HETATM    3  C           1     -24.821  -7.548 -19.920  0.00  0.00     0.023 C 
BRANCH   3   4
HETATM    4  C           1     -23.884  -7.219 -18.764  0.00  0.00     0.138 C 
BRANCH   4   5
HETATM    5  N           1     -24.676  -6.851 -17.581  0.00  0.00    -0.227 N 
HETATM    6  H           1     -25.415  -6.109 -17.654  0.00  0.00     0.177 HD
HETATM    7  C           1     -24.466  -7.428 -16.474  0.00  0.00     0.665 C 
HETATM    8  N           1     -23.574  -8.323 -16.386  0.00  0.00    -0.235 N 
HETATM    9  N           1     -25.165  -7.102 -15.428  0.00  0.00    -0.235 N 
HETATM   10  H           1     -23.399  -8.801 -15.468  0.00  0.00     0.174 HD
HETATM   11  H           1     -23.008  -8.585 -17.231  0.00  0.00     0.174 HD
HETATM   12  H           1     -24.992  -7.579 -14.515  0.00  0.00     0.174 HD
HETATM   13  H           1     -25.901  -6.364 -15.501  0.00  0.00     0.174 HD
ENDBRANCH   4   5
ENDBRANCH   3   4
ENDBRANCH   2   3
ENDBRANCH   1   2
BRANCH   1  14
HETATM   14  C           1     -27.000  -8.260 -21.282  0.00  0.00     0.196 C 
HETATM   15  O           1     -27.921  -9.095 -21.401  0.00  0.00    -0.646 OA
HETATM   16  O           1     -25.911  -8.443 -21.868  0.00  0.00    -0.646 OA
ENDBRANCH   1  14
BRANCH   1  17
HETATM   17  N           1     -27.896  -7.397 -19.211  0.00  0.00    -0.345 N 
HETATM   18  C           1     -28.688  -6.480 -18.573  0.00  0.00     0.251 C 
HETATM   19  O           1     -28.808  -5.367 -19.026  0.00  0.00    -0.271 OA
HETATM   20  H           1     -27.796  -8.330 -18.832  0.00  0.00     0.163 HD
BRANCH  18  21
HETATM   21  C           1     -29.411  -6.861 -17.305  0.00  0.00     0.297 C 
BRANCH  21  22
HETATM   22  C           1     -28.627  -6.356 -16.101  0.00  0.00     0.206 C 
BRANCH  22  23
HETATM   23  O           1     -27.401  -5.829 -16.529  0.00  0.00    -0.398 OA
HETATM   24  H           1     -26.778  -5.991 -15.841  0.00  0.00     0.209 HD
ENDBRANCH  22  23
ENDBRANCH  21  22
BRANCH  21  25
HETATM   25  N           1     -29.537  -8.353 -17.230  0.00  0.00    -0.064 N 
HETATM   26  H           1     -28.606  -8.792 -17.408  0.00  0.00     0.275 HD
HETATM   27  H           1     -29.874  -8.627 -16.280  0.00  0.00     0.275 HD
HETATM   28  H           1     -30.220  -8.682 -17.951  0.00  0.00     0.275 HD
ENDBRANCH  21  25
ENDBRANCH  18  21
ENDBRANCH   1  17
TORSDOF 10
ENDMDL
