MODEL 1
REMARK VINA RESULT:      -5.8      0.000      0.000
REMARK  11 active torsions:
REMARK  status: ('A' for Active; 'I' for Inactive)
REMARK    1  A    between atoms: N_6  and  C_9 
REMARK    2  A    between atoms: Se_7  and  C_8 
REMARK    3  A    between atoms: C_8  and  C_9 
REMARK    4  A    between atoms: C_9  and  C_10 
REMARK       I    between atoms: C_10  and  N_11 
REMARK    5  A    between atoms: N_11  and  C_15 
REMARK    6  A    between atoms: C_14  and  C_15 
REMARK    7  A    between atoms: C_15  and  C_16 
REMARK    8  A    between atoms: C_16  and  C_17 
REMARK    9  A    between atoms: C_17  and  C_18 
REMARK   10  A    between atoms: C_18  and  C_19 
REMARK   11  A    between atoms: C_19  and  N_20 
ROOT
HETATM    1  H           1     -33.982  -1.188 -13.622  0.00  0.00     0.163 HD
HETATM    2  O           1     -37.028  -0.916 -12.922  0.00  0.00    -0.271 OA
HETATM    3  C           1     -35.983  -0.678 -13.480  0.00  0.00     0.249 C 
HETATM    4  N           1     -34.857  -1.387 -13.155  0.00  0.00    -0.345 N 
ENDROOT
BRANCH   4   5
HETATM    5  C           1     -34.919  -2.424 -12.144  0.00  0.00     0.185 C 
BRANCH   5   6
HETATM    6  C           1     -34.463  -1.861 -10.820  0.00  0.00     0.196 C 
HETATM    7  O           1     -33.255  -1.903 -10.505  0.00  0.00    -0.646 OA
HETATM    8  O           1     -35.296  -1.354 -10.037  0.00  0.00    -0.646 OA
ENDBRANCH   5   6
BRANCH   5   9
HETATM    9  C           1     -34.011  -3.579 -12.544  0.00  0.00     0.036 C 
BRANCH   9  10
HETATM   10  C           1     -34.657  -4.898 -12.142  0.00  0.00     0.004 C 
BRANCH  10  11
HETATM   11  C           1     -33.767  -5.614 -11.135  0.00  0.00     0.027 C 
BRANCH  11  12
HETATM   12  C           1     -34.626  -6.476 -10.220  0.00  0.00     0.229 C 
BRANCH  12  13
HETATM   13  N           1     -34.522  -7.912 -10.641  0.00  0.00    -0.079 N 
HETATM   14  H           1     -34.520  -8.524  -9.794  0.00  0.00     0.274 HD
HETATM   15  H           1     -33.636  -8.053 -11.177  0.00  0.00     0.274 HD
HETATM   16  H           1     -35.338  -8.158 -11.246  0.00  0.00     0.274 HD
ENDBRANCH  12  13
ENDBRANCH  11  12
ENDBRANCH  10  11
ENDBRANCH   9  10
ENDBRANCH   5   9
ENDBRANCH   4   5
BRANCH   3  17
HETATM   17  C           1     -35.918   0.401 -14.533  0.00  0.00     0.274 C 
BRANCH  17  18
HETATM   18  N           1     -34.490   0.623 -14.932  0.00  0.00    -0.067 N 
HETATM   19  H           1     -34.112   1.456 -14.427  0.00  0.00     0.275 HD
HETATM   20  H           1     -33.924  -0.221 -14.687  0.00  0.00     0.275 HD
HETATM   21  H           1     -34.439   0.789 -15.963  0.00  0.00     0.275 HD
ENDBRANCH  17  18
BRANCH  17  22
HETATM   22  C           1     -36.726  -0.028 -15.750  0.00  0.00     0.045 C 
BRANCH  22  23
HETATM   23 Se           1     -35.712  -1.343 -16.771  0.00  0.00     0.000 Se
HETATM   24  H           1     -34.422  -1.005 -16.147  0.00  0.00     0.000 HD
ENDBRANCH  22  23
ENDBRANCH  17  22
ENDBRANCH   3  17
TORSDOF 11
ENDMDL
MODEL 2
REMARK VINA RESULT:      -5.8      1.812      2.143
REMARK  11 active torsions:
REMARK  status: ('A' for Active; 'I' for Inactive)
REMARK    1  A    between atoms: N_6  and  C_9 
REMARK    2  A    between atoms: Se_7  and  C_8 
REMARK    3  A    between atoms: C_8  and  C_9 
REMARK    4  A    between atoms: C_9  and  C_10 
REMARK       I    between atoms: C_10  and  N_11 
REMARK    5  A    between atoms: N_11  and  C_15 
REMARK    6  A    between atoms: C_14  and  C_15 
REMARK    7  A    between atoms: C_15  and  C_16 
REMARK    8  A    between atoms: C_16  and  C_17 
REMARK    9  A    between atoms: C_17  and  C_18 
REMARK   10  A    between atoms: C_18  and  C_19 
REMARK   11  A    between atoms: C_19  and  N_20 
ROOT
HETATM    1  H           1     -35.300   0.209 -12.411  0.00  0.00     0.163 HD
HETATM    2  O           1     -34.957  -2.403 -14.113  0.00  0.00    -0.271 OA
HETATM    3  C           1     -35.065  -1.222 -13.888  0.00  0.00     0.249 C 
HETATM    4  N           1     -35.209  -0.781 -12.599  0.00  0.00    -0.345 N 
ENDROOT
BRANCH   4   5
HETATM    5  C           1     -35.230  -1.733 -11.506  0.00  0.00     0.185 C 
BRANCH   5   6
HETATM    6  C           1     -36.243  -1.293 -10.477  0.00  0.00     0.196 C 
HETATM    7  O           1     -35.864  -0.737  -9.424  0.00  0.00    -0.646 OA
HETATM    8  O           1     -37.461  -1.486 -10.678  0.00  0.00    -0.646 OA
ENDBRANCH   5   6
BRANCH   5   9
HETATM    9  C           1     -33.850  -1.798 -10.864  0.00  0.00     0.036 C 
BRANCH   9  10
HETATM   10  C           1     -33.191  -3.127 -11.209  0.00  0.00     0.004 C 
BRANCH  10  11
HETATM   11  C           1     -33.945  -4.261 -10.527  0.00  0.00     0.027 C 
BRANCH  11  12
HETATM   12  C           1     -33.954  -5.483 -11.435  0.00  0.00     0.229 C 
BRANCH  12  13
HETATM   13  N           1     -34.664  -5.153 -12.714  0.00  0.00    -0.079 N 
HETATM   14  H           1     -35.259  -5.962 -13.000  0.00  0.00     0.274 HD
HETATM   15  H           1     -33.960  -4.955 -13.461  0.00  0.00     0.274 HD
HETATM   16  H           1     -35.266  -4.311 -12.571  0.00  0.00     0.274 HD
ENDBRANCH  12  13
ENDBRANCH  11  12
ENDBRANCH  10  11
ENDBRANCH   9  10
ENDBRANCH   5   9
ENDBRANCH   4   5
BRANCH   3  17
HETATM   17  C           1     -35.043  -0.231 -15.026  0.00  0.00     0.274 C 
BRANCH  17  18
HETATM   18  N           1     -35.122  -0.968 -16.330  0.00  0.00    -0.067 N 
HETATM   19  H           1     -36.109  -0.961 -16.675  0.00  0.00     0.275 HD
HETATM   20  H           1     -34.504  -0.501 -17.032  0.00  0.00     0.275 HD
HETATM   21  H           1     -34.809  -1.956 -16.191  0.00  0.00     0.275 HD
ENDBRANCH  17  18
BRANCH  17  22
HETATM   22  C           1     -36.232   0.712 -14.902  0.00  0.00     0.045 C 
BRANCH  22  23
HETATM   23 Se           1     -37.839  -0.180 -15.551  0.00  0.00     0.000 Se
HETATM   24  H           1     -38.564  -0.054 -14.276  0.00  0.00     0.000 HD
ENDBRANCH  22  23
ENDBRANCH  17  22
ENDBRANCH   3  17
TORSDOF 11
ENDMDL
MODEL 3
REMARK VINA RESULT:      -5.7     12.405     14.412
REMARK  11 active torsions:
REMARK  status: ('A' for Active; 'I' for Inactive)
REMARK    1  A    between atoms: N_6  and  C_9 
REMARK    2  A    between atoms: Se_7  and  C_8 
REMARK    3  A    between atoms: C_8  and  C_9 
REMARK    4  A    between atoms: C_9  and  C_10 
REMARK       I    between atoms: C_10  and  N_11 
REMARK    5  A    between atoms: N_11  and  C_15 
REMARK    6  A    between atoms: C_14  and  C_15 
REMARK    7  A    between atoms: C_15  and  C_16 
REMARK    8  A    between atoms: C_16  and  C_17 
REMARK    9  A    between atoms: C_17  and  C_18 
REMARK   10  A    between atoms: C_18  and  C_19 
REMARK   11  A    between atoms: C_19  and  N_20 
ROOT
HETATM    1  H           1     -21.978  -5.691  -9.441  0.00  0.00     0.163 HD
HETATM    2  O           1     -21.752  -3.394  -7.317  0.00  0.00    -0.271 OA
HETATM    3  C           1     -21.639  -4.504  -7.780  0.00  0.00     0.249 C 
HETATM    4  N           1     -22.072  -4.761  -9.054  0.00  0.00    -0.345 N 
ENDROOT
BRANCH   4   5
HETATM    5  C           1     -22.664  -3.701  -9.847  0.00  0.00     0.185 C 
BRANCH   5   6
HETATM    6  C           1     -24.168  -3.810  -9.787  0.00  0.00     0.196 C 
HETATM    7  O           1     -24.728  -4.893 -10.062  0.00  0.00    -0.646 OA
HETATM    8  O           1     -24.853  -2.816  -9.463  0.00  0.00    -0.646 OA
ENDBRANCH   5   6
BRANCH   5   9
HETATM    9  C           1     -22.203  -3.831 -11.292  0.00  0.00     0.036 C 
BRANCH   9  10
HETATM   10  C           1     -22.733  -2.657 -12.103  0.00  0.00     0.004 C 
BRANCH  10  11
HETATM   11  C           1     -23.478  -3.177 -13.325  0.00  0.00     0.027 C 
BRANCH  11  12
HETATM   12  C           1     -23.237  -2.242 -14.503  0.00  0.00     0.229 C 
BRANCH  12  13
HETATM   13  N           1     -24.073  -1.007 -14.341  0.00  0.00    -0.079 N 
HETATM   14  H           1     -23.526  -0.282 -13.825  0.00  0.00     0.274 HD
HETATM   15  H           1     -24.938  -1.241 -13.803  0.00  0.00     0.274 HD
HETATM   16  H           1     -24.337  -0.640 -15.282  0.00  0.00     0.274 HD
ENDBRANCH  12  13
ENDBRANCH  11  12
ENDBRANCH  10  11
ENDBRANCH   9  10
ENDBRANCH   5   9
ENDBRANCH   4   5
BRANCH   3  17
HETATM   17  C           1     -21.023  -5.607  -6.955  0.00  0.00     0.274 C 
BRANCH  17  18
HETATM   18  N           1     -19.794  -6.119  -7.645  0.00  0.00    -0.067 N 
HETATM   19  H           1     -19.165  -6.573  -6.945  0.00  0.00     0.275 HD
HETATM   20  H           1     -20.068  -6.818  -8.372  0.00  0.00     0.275 HD
HETATM   21  H           1     -19.292  -5.322  -8.098  0.00  0.00     0.275 HD
ENDBRANCH  17  18
BRANCH  17  22
HETATM   22  C           1     -20.647  -5.065  -5.583  0.00  0.00     0.045 C 
BRANCH  22  23
HETATM   23 Se           1     -21.364  -6.240  -4.202  0.00  0.00     0.000 Se
HETATM   24  H           1     -22.771  -5.985  -4.552  0.00  0.00     0.000 HD
ENDBRANCH  22  23
ENDBRANCH  17  22
ENDBRANCH   3  17
TORSDOF 11
ENDMDL
MODEL 4
REMARK VINA RESULT:      -5.7      2.743      5.708
REMARK  11 active torsions:
REMARK  status: ('A' for Active; 'I' for Inactive)
REMARK    1  A    between atoms: N_6  and  C_9 
REMARK    2  A    between atoms: Se_7  and  C_8 
REMARK    3  A    between atoms: C_8  and  C_9 
REMARK    4  A    between atoms: C_9  and  C_10 
REMARK       I    between atoms: C_10  and  N_11 
REMARK    5  A    between atoms: N_11  and  C_15 
REMARK    6  A    between atoms: C_14  and  C_15 
REMARK    7  A    between atoms: C_15  and  C_16 
REMARK    8  A    between atoms: C_16  and  C_17 
REMARK    9  A    between atoms: C_17  and  C_18 
REMARK   10  A    between atoms: C_18  and  C_19 
REMARK   11  A    between atoms: C_19  and  N_20 
ROOT
HETATM    1  H           1     -36.053  -2.428 -13.051  0.00  0.00     0.163 HD
HETATM    2  O           1     -33.555  -2.286 -11.159  0.00  0.00    -0.271 OA
HETATM    3  C           1     -34.337  -2.766 -11.945  0.00  0.00     0.249 C 
HETATM    4  N           1     -35.398  -2.026 -12.394  0.00  0.00    -0.345 N 
ENDROOT
BRANCH   4   5
HETATM    5  C           1     -35.582  -0.665 -11.928  0.00  0.00     0.185 C 
BRANCH   5   6
HETATM    6  C           1     -36.572  -0.654 -10.789  0.00  0.00     0.196 C 
HETATM    7  O           1     -37.729  -1.093 -10.962  0.00  0.00    -0.646 OA
HETATM    8  O           1     -36.234  -0.206  -9.672  0.00  0.00    -0.646 OA
ENDBRANCH   5   6
BRANCH   5   9
HETATM    9  C           1     -36.110   0.195 -13.068  0.00  0.00     0.036 C 
BRANCH   9  10
HETATM   10  C           1     -34.941   0.808 -13.827  0.00  0.00     0.004 C 
BRANCH  10  11
HETATM   11  C           1     -35.266   0.853 -15.314  0.00  0.00     0.027 C 
BRANCH  11  12
HETATM   12  C           1     -36.416  -0.100 -15.611  0.00  0.00     0.229 C 
BRANCH  12  13
HETATM   13  N           1     -36.336  -0.553 -17.039  0.00  0.00    -0.079 N 
HETATM   14  H           1     -36.385   0.277 -17.671  0.00  0.00     0.274 HD
HETATM   15  H           1     -37.132  -1.197 -17.244  0.00  0.00     0.274 HD
HETATM   16  H           1     -35.433  -1.055 -17.194  0.00  0.00     0.274 HD
ENDBRANCH  12  13
ENDBRANCH  11  12
ENDBRANCH  10  11
ENDBRANCH   9  10
ENDBRANCH   5   9
ENDBRANCH   4   5
BRANCH   3  17
HETATM   17  C           1     -34.145  -4.182 -12.430  0.00  0.00     0.274 C 
BRANCH  17  18
HETATM   18  N           1     -33.473  -4.163 -13.771  0.00  0.00    -0.067 N 
HETATM   19  H           1     -32.861  -3.319 -13.842  0.00  0.00     0.275 HD
HETATM   20  H           1     -32.892  -5.025 -13.881  0.00  0.00     0.275 HD
HETATM   21  H           1     -34.198  -4.133 -14.523  0.00  0.00     0.275 HD
ENDBRANCH  17  18
BRANCH  17  22
HETATM   22  C           1     -33.280  -4.947 -11.438  0.00  0.00     0.045 C 
BRANCH  22  23
HETATM   23 Se           1     -34.334  -6.366 -10.617  0.00  0.00     0.000 Se
HETATM   24  H           1     -33.737  -6.195  -9.282  0.00  0.00     0.000 HD
ENDBRANCH  22  23
ENDBRANCH  17  22
ENDBRANCH   3  17
TORSDOF 11
ENDMDL
MODEL 5
REMARK VINA RESULT:      -5.4      2.174      3.077
REMARK  11 active torsions:
REMARK  status: ('A' for Active; 'I' for Inactive)
REMARK    1  A    between atoms: N_6  and  C_9 
REMARK    2  A    between atoms: Se_7  and  C_8 
REMARK    3  A    between atoms: C_8  and  C_9 
REMARK    4  A    between atoms: C_9  and  C_10 
REMARK       I    between atoms: C_10  and  N_11 
REMARK    5  A    between atoms: N_11  and  C_15 
REMARK    6  A    between atoms: C_14  and  C_15 
REMARK    7  A    between atoms: C_15  and  C_16 
REMARK    8  A    between atoms: C_16  and  C_17 
REMARK    9  A    between atoms: C_17  and  C_18 
REMARK   10  A    between atoms: C_18  and  C_19 
REMARK   11  A    between atoms: C_19  and  N_20 
ROOT
HETATM    1  H           1     -36.000  -3.117 -12.377  0.00  0.00     0.163 HD
HETATM    2  O           1     -34.104  -1.403 -10.560  0.00  0.00    -0.271 OA
HETATM    3  C           1     -35.039  -1.646 -11.284  0.00  0.00     0.249 C 
HETATM    4  N           1     -35.217  -2.914 -11.770  0.00  0.00    -0.345 N 
ENDROOT
BRANCH   4   5
HETATM    5  C           1     -34.283  -3.964 -11.415  0.00  0.00     0.185 C 
BRANCH   5   6
HETATM    6  C           1     -33.236  -4.092 -12.496  0.00  0.00     0.196 C 
HETATM    7  O           1     -33.547  -3.905 -13.691  0.00  0.00    -0.646 OA
HETATM    8  O           1     -32.060  -4.387 -12.194  0.00  0.00    -0.646 OA
ENDBRANCH   5   6
BRANCH   5   9
HETATM    9  C           1     -35.031  -5.283 -11.275  0.00  0.00     0.036 C 
BRANCH   9  10
HETATM   10  C           1     -34.159  -6.287 -10.533  0.00  0.00     0.004 C 
BRANCH  10  11
HETATM   11  C           1     -35.043  -7.324  -9.853  0.00  0.00     0.027 C 
BRANCH  11  12
HETATM   12  C           1     -34.177  -8.453  -9.312  0.00  0.00     0.229 C 
BRANCH  12  13
HETATM   13  N           1     -33.432  -9.100 -10.442  0.00  0.00    -0.079 N 
HETATM   14  H           1     -33.307 -10.117 -10.240  0.00  0.00     0.274 HD
HETATM   15  H           1     -32.496  -8.646 -10.545  0.00  0.00     0.274 HD
HETATM   16  H           1     -33.974  -8.985 -11.327  0.00  0.00     0.274 HD
ENDBRANCH  12  13
ENDBRANCH  11  12
ENDBRANCH  10  11
ENDBRANCH   9  10
ENDBRANCH   5   9
ENDBRANCH   4   5
BRANCH   3  17
HETATM   17  C           1     -36.012  -0.553 -11.653  0.00  0.00     0.274 C 
BRANCH  17  18
HETATM   18  N           1     -36.224   0.347 -10.472  0.00  0.00    -0.067 N 
HETATM   19  H           1     -36.397  -0.233  -9.620  0.00  0.00     0.275 HD
HETATM   20  H           1     -35.374   0.937 -10.327  0.00  0.00     0.275 HD
HETATM   21  H           1     -37.051   0.962 -10.648  0.00  0.00     0.275 HD
ENDBRANCH  17  18
BRANCH  17  22
HETATM   22  C           1     -35.449   0.256 -12.814  0.00  0.00     0.045 C 
BRANCH  22  23
HETATM   23 Se           1     -36.580   0.014 -14.383  0.00  0.00     0.000 Se
HETATM   24  H           1     -35.487  -0.479 -15.237  0.00  0.00     0.000 HD
ENDBRANCH  22  23
ENDBRANCH  17  22
ENDBRANCH   3  17
TORSDOF 11
ENDMDL
MODEL 6
REMARK VINA RESULT:      -5.3     11.353     12.326
REMARK  11 active torsions:
REMARK  status: ('A' for Active; 'I' for Inactive)
REMARK    1  A    between atoms: N_6  and  C_9 
REMARK    2  A    between atoms: Se_7  and  C_8 
REMARK    3  A    between atoms: C_8  and  C_9 
REMARK    4  A    between atoms: C_9  and  C_10 
REMARK       I    between atoms: C_10  and  N_11 
REMARK    5  A    between atoms: N_11  and  C_15 
REMARK    6  A    between atoms: C_14  and  C_15 
REMARK    7  A    between atoms: C_15  and  C_16 
REMARK    8  A    between atoms: C_16  and  C_17 
REMARK    9  A    between atoms: C_17  and  C_18 
REMARK   10  A    between atoms: C_18  and  C_19 
REMARK   11  A    between atoms: C_19  and  N_20 
ROOT
HETATM    1  H           1     -22.615  -2.456 -11.403  0.00  0.00     0.163 HD
HETATM    2  O           1     -24.336  -4.132 -13.420  0.00  0.00    -0.271 OA
HETATM    3  C           1     -23.611  -3.245 -13.036  0.00  0.00     0.249 C 
HETATM    4  N           1     -23.221  -3.200 -11.724  0.00  0.00    -0.345 N 
ENDROOT
BRANCH   4   5
HETATM    5  C           1     -23.675  -4.217 -10.797  0.00  0.00     0.185 C 
BRANCH   5   6
HETATM    6  C           1     -24.597  -3.593  -9.778  0.00  0.00     0.196 C 
HETATM    7  O           1     -25.729  -3.190 -10.123  0.00  0.00    -0.646 OA
HETATM    8  O           1     -24.228  -3.477  -8.590  0.00  0.00    -0.646 OA
ENDBRANCH   5   6
BRANCH   5   9
HETATM    9  C           1     -22.475  -4.829 -10.087  0.00  0.00     0.036 C 
BRANCH   9  10
HETATM   10  C           1     -21.262  -3.926 -10.267  0.00  0.00     0.004 C 
BRANCH  10  11
HETATM   11  C           1     -20.284  -4.153  -9.122  0.00  0.00     0.027 C 
BRANCH  11  12
HETATM   12  C           1     -21.054  -4.527  -7.863  0.00  0.00     0.229 C 
BRANCH  12  13
HETATM   13  N           1     -21.549  -3.282  -7.189  0.00  0.00    -0.079 N 
HETATM   14  H           1     -21.226  -3.273  -6.195  0.00  0.00     0.274 HD
HETATM   15  H           1     -22.593  -3.263  -7.217  0.00  0.00     0.274 HD
HETATM   16  H           1     -21.171  -2.444  -7.685  0.00  0.00     0.274 HD
ENDBRANCH  12  13
ENDBRANCH  11  12
ENDBRANCH  10  11
ENDBRANCH   9  10
ENDBRANCH   5   9
ENDBRANCH   4   5
BRANCH   3  17
HETATM   17  C           1     -23.138  -2.186 -14.002  0.00  0.00     0.274 C 
BRANCH  17  18
HETATM   18  N           1     -22.453  -2.840 -15.164  0.00  0.00    -0.067 N 
HETATM   19  H           1     -22.248  -3.838 -14.931  0.00  0.00     0.275 HD
HETATM   20  H           1     -23.073  -2.798 -16.003  0.00  0.00     0.275 HD
HETATM   21  H           1     -21.557  -2.340 -15.366  0.00  0.00     0.275 HD
ENDBRANCH  17  18
BRANCH  17  22
HETATM   22  C           1     -24.332  -1.384 -14.501  0.00  0.00     0.045 C 
BRANCH  22  23
HETATM   23 Se           1     -23.725  -0.045 -15.781  0.00  0.00     0.000 Se
HETATM   24  H           1     -22.439   0.187 -15.105  0.00  0.00     0.000 HD
ENDBRANCH  22  23
ENDBRANCH  17  22
ENDBRANCH   3  17
TORSDOF 11
ENDMDL
MODEL 7
REMARK VINA RESULT:      -5.2      3.570      4.467
REMARK  11 active torsions:
REMARK  status: ('A' for Active; 'I' for Inactive)
REMARK    1  A    between atoms: N_6  and  C_9 
REMARK    2  A    between atoms: Se_7  and  C_8 
REMARK    3  A    between atoms: C_8  and  C_9 
REMARK    4  A    between atoms: C_9  and  C_10 
REMARK       I    between atoms: C_10  and  N_11 
REMARK    5  A    between atoms: N_11  and  C_15 
REMARK    6  A    between atoms: C_14  and  C_15 
REMARK    7  A    between atoms: C_15  and  C_16 
REMARK    8  A    between atoms: C_16  and  C_17 
REMARK    9  A    between atoms: C_17  and  C_18 
REMARK   10  A    between atoms: C_18  and  C_19 
REMARK   11  A    between atoms: C_19  and  N_20 
ROOT
HETATM    1  H           1     -36.822  -1.934 -11.450  0.00  0.00     0.163 HD
HETATM    2  O           1     -35.847   1.012 -10.986  0.00  0.00    -0.271 OA
HETATM    3  C           1     -36.531   0.026 -10.849  0.00  0.00     0.249 C 
HETATM    4  N           1     -36.249  -1.108 -11.564  0.00  0.00    -0.345 N 
ENDROOT
BRANCH   4   5
HETATM    5  C           1     -35.128  -1.125 -12.484  0.00  0.00     0.185 C 
BRANCH   5   6
HETATM    6  C           1     -35.584  -0.642 -13.840  0.00  0.00     0.196 C 
HETATM    7  O           1     -36.765  -0.830 -14.205  0.00  0.00    -0.646 OA
HETATM    8  O           1     -34.781  -0.057 -14.597  0.00  0.00    -0.646 OA
ENDBRANCH   5   6
BRANCH   5   9
HETATM    9  C           1     -34.592  -2.545 -12.604  0.00  0.00     0.036 C 
BRANCH   9  10
HETATM   10  C           1     -33.628  -2.823 -11.459  0.00  0.00     0.004 C 
BRANCH  10  11
HETATM   11  C           1     -32.919  -4.149 -11.702  0.00  0.00     0.027 C 
BRANCH  11  12
HETATM   12  C           1     -33.659  -5.262 -10.973  0.00  0.00     0.229 C 
BRANCH  12  13
HETATM   13  N           1     -34.508  -6.022 -11.948  0.00  0.00    -0.079 N 
HETATM   14  H           1     -33.894  -6.572 -12.589  0.00  0.00     0.274 HD
HETATM   15  H           1     -35.083  -5.350 -12.505  0.00  0.00     0.274 HD
HETATM   16  H           1     -35.139  -6.672 -11.428  0.00  0.00     0.274 HD
ENDBRANCH  12  13
ENDBRANCH  11  12
ENDBRANCH  10  11
ENDBRANCH   9  10
ENDBRANCH   5   9
ENDBRANCH   4   5
BRANCH   3  17
HETATM   17  C           1     -37.698   0.043  -9.891  0.00  0.00     0.274 C 
BRANCH  17  18
HETATM   18  N           1     -37.457  -0.950  -8.794  0.00  0.00    -0.067 N 
HETATM   19  H           1     -37.329  -1.902  -9.206  0.00  0.00     0.275 HD
HETATM   20  H           1     -36.597  -0.682  -8.264  0.00  0.00     0.275 HD
HETATM   21  H           1     -38.278  -0.959  -8.146  0.00  0.00     0.275 HD
ENDBRANCH  17  18
BRANCH  17  22
HETATM   22  C           1     -37.844   1.435  -9.294  0.00  0.00     0.045 C 
BRANCH  22  23
HETATM   23 Se           1     -37.231   1.416  -7.444  0.00  0.00     0.000 Se
HETATM   24  H           1     -38.367   2.204  -6.938  0.00  0.00     0.000 HD
ENDBRANCH  22  23
ENDBRANCH  17  22
ENDBRANCH   3  17
TORSDOF 11
ENDMDL
MODEL 8
REMARK VINA RESULT:      -5.1     12.848     14.346
REMARK  11 active torsions:
REMARK  status: ('A' for Active; 'I' for Inactive)
REMARK    1  A    between atoms: N_6  and  C_9 
REMARK    2  A    between atoms: Se_7  and  C_8 
REMARK    3  A    between atoms: C_8  and  C_9 
REMARK    4  A    between atoms: C_9  and  C_10 
REMARK       I    between atoms: C_10  and  N_11 
REMARK    5  A    between atoms: N_11  and  C_15 
REMARK    6  A    between atoms: C_14  and  C_15 
REMARK    7  A    between atoms: C_15  and  C_16 
REMARK    8  A    between atoms: C_16  and  C_17 
REMARK    9  A    between atoms: C_17  and  C_18 
REMARK   10  A    between atoms: C_18  and  C_19 
REMARK   11  A    between atoms: C_19  and  N_20 
ROOT
HETATM    1  H           1     -22.193  -5.958  -8.274  0.00  0.00     0.163 HD
HETATM    2  O           1     -22.841  -2.962  -8.940  0.00  0.00    -0.271 OA
HETATM    3  C           1     -22.954  -4.164  -8.972  0.00  0.00     0.249 C 
HETATM    4  N           1     -22.099  -4.951  -8.246  0.00  0.00    -0.345 N 
ENDROOT
BRANCH   4   5
HETATM    5  C           1     -21.061  -4.341  -7.438  0.00  0.00     0.185 C 
BRANCH   5   6
HETATM    6  C           1     -19.723  -4.542  -8.105  0.00  0.00     0.196 C 
HETATM    7  O           1     -18.672  -4.472  -7.433  0.00  0.00    -0.646 OA
HETATM    8  O           1     -19.666  -4.778  -9.332  0.00  0.00    -0.646 OA
ENDBRANCH   5   6
BRANCH   5   9
HETATM    9  C           1     -21.044  -4.990  -6.060  0.00  0.00     0.036 C 
BRANCH   9  10
HETATM   10  C           1     -21.427  -6.459  -6.185  0.00  0.00     0.004 C 
BRANCH  10  11
HETATM   11  C           1     -22.023  -6.942  -4.869  0.00  0.00     0.027 C 
BRANCH  11  12
HETATM   12  C           1     -21.365  -6.204  -3.711  0.00  0.00     0.229 C 
BRANCH  12  13
HETATM   13  N           1     -22.350  -6.049  -2.591  0.00  0.00    -0.079 N 
HETATM   14  H           1     -23.224  -6.573  -2.821  0.00  0.00     0.274 HD
HETATM   15  H           1     -22.573  -5.036  -2.463  0.00  0.00     0.274 HD
HETATM   16  H           1     -21.938  -6.429  -1.710  0.00  0.00     0.274 HD
ENDBRANCH  12  13
ENDBRANCH  11  12
ENDBRANCH  10  11
ENDBRANCH   9  10
ENDBRANCH   5   9
ENDBRANCH   4   5
BRANCH   3  17
HETATM   17  C           1     -24.034  -4.799  -9.813  0.00  0.00     0.274 C 
BRANCH  17  18
HETATM   18  N           1     -25.293  -3.991  -9.700  0.00  0.00    -0.067 N 
HETATM   19  H           1     -26.094  -4.624  -9.475  0.00  0.00     0.275 HD
HETATM   20  H           1     -25.185  -3.282  -8.940  0.00  0.00     0.275 HD
HETATM   21  H           1     -25.477  -3.506 -10.607  0.00  0.00     0.275 HD
ENDBRANCH  17  18
BRANCH  17  22
HETATM   22  C           1     -23.587  -4.841 -11.267  0.00  0.00     0.045 C 
BRANCH  22  23
HETATM   23 Se           1     -24.229  -3.250 -12.191  0.00  0.00     0.000 Se
HETATM   24  H           1     -22.918  -2.916 -12.771  0.00  0.00     0.000 HD
ENDBRANCH  22  23
ENDBRANCH  17  22
ENDBRANCH   3  17
TORSDOF 11
ENDMDL
MODEL 9
REMARK VINA RESULT:      -5.0     14.874     16.386
REMARK  11 active torsions:
REMARK  status: ('A' for Active; 'I' for Inactive)
REMARK    1  A    between atoms: N_6  and  C_9 
REMARK    2  A    between atoms: Se_7  and  C_8 
REMARK    3  A    between atoms: C_8  and  C_9 
REMARK    4  A    between atoms: C_9  and  C_10 
REMARK       I    between atoms: C_10  and  N_11 
REMARK    5  A    between atoms: N_11  and  C_15 
REMARK    6  A    between atoms: C_14  and  C_15 
REMARK    7  A    between atoms: C_15  and  C_16 
REMARK    8  A    between atoms: C_16  and  C_17 
REMARK    9  A    between atoms: C_17  and  C_18 
REMARK   10  A    between atoms: C_18  and  C_19 
REMARK   11  A    between atoms: C_19  and  N_20 
ROOT
HETATM    1  H           1     -21.647  -7.104  -6.942  0.00  0.00     0.163 HD
HETATM    2  O           1     -20.503  -4.321  -6.055  0.00  0.00    -0.271 OA
HETATM    3  C           1     -21.024  -5.137  -6.778  0.00  0.00     0.249 C 
HETATM    4  N           1     -21.212  -6.420  -6.337  0.00  0.00    -0.345 N 
ENDROOT
BRANCH   4   5
HETATM    5  C           1     -20.786  -6.799  -5.004  0.00  0.00     0.185 C 
BRANCH   5   6
HETATM    6  C           1     -20.309  -8.231  -5.016  0.00  0.00     0.196 C 
HETATM    7  O           1     -19.304  -8.549  -5.686  0.00  0.00    -0.646 OA
HETATM    8  O           1     -20.922  -9.099  -4.358  0.00  0.00    -0.646 OA
ENDBRANCH   5   6
BRANCH   5   9
HETATM    9  C           1     -21.957  -6.662  -4.040  0.00  0.00     0.036 C 
BRANCH   9  10
HETATM   10  C           1     -21.473  -6.047  -2.734  0.00  0.00     0.004 C 
BRANCH  10  11
HETATM   11  C           1     -22.188  -6.708  -1.563  0.00  0.00     0.027 C 
BRANCH  11  12
HETATM   12  C           1     -21.346  -7.865  -1.042  0.00  0.00     0.229 C 
BRANCH  12  13
HETATM   13  N           1     -21.959  -9.165  -1.471  0.00  0.00    -0.079 N 
HETATM   14  H           1     -21.683  -9.370  -2.457  0.00  0.00     0.274 HD
HETATM   15  H           1     -22.999  -9.096  -1.405  0.00  0.00     0.274 HD
HETATM   16  H           1     -21.620  -9.932  -0.848  0.00  0.00     0.274 HD
ENDBRANCH  12  13
ENDBRANCH  11  12
ENDBRANCH  10  11
ENDBRANCH   9  10
ENDBRANCH   5   9
ENDBRANCH   4   5
BRANCH   3  17
HETATM   17  C           1     -21.467  -4.743  -8.165  0.00  0.00     0.274 C 
BRANCH  17  18
HETATM   18  N           1     -22.356  -3.539  -8.082  0.00  0.00    -0.067 N 
HETATM   19  H           1     -22.560  -3.189  -9.046  0.00  0.00     0.275 HD
HETATM   20  H           1     -23.251  -3.798  -7.608  0.00  0.00     0.275 HD
HETATM   21  H           1     -21.876  -2.789  -7.534  0.00  0.00     0.275 HD
ENDBRANCH  17  18
BRANCH  17  22
HETATM   22  C           1     -20.246  -4.416  -9.014  0.00  0.00     0.045 C 
BRANCH  22  23
HETATM   23 Se           1     -20.795  -4.149 -10.865  0.00  0.00     0.000 Se
HETATM   24  H           1     -20.359  -2.744 -10.914  0.00  0.00     0.000 HD
ENDBRANCH  22  23
ENDBRANCH  17  22
ENDBRANCH   3  17
TORSDOF 11
ENDMDL
