MODEL 1
REMARK VINA RESULT:      -7.3      0.000      0.000
REMARK  7 active torsions:
REMARK  status: ('A' for Active; 'I' for Inactive)
REMARK    1  A    between atoms: P_1  and  O_2 
REMARK    2  A    between atoms: P_1  and  O_9 
REMARK    3  A    between atoms: O_2  and  C_7 
REMARK    4  A    between atoms: N_3  and  C_16 
REMARK       I    between atoms: N_3  and  C_5 
REMARK    5  A    between atoms: C_5  and  C_19 
REMARK    6  A    between atoms: C_7  and  C_16 
REMARK    7  A    between atoms: C_15  and  C_16 
ROOT
HETATM    1  C           1     -22.742  -3.672 -10.284  0.00  0.00     0.210 C 
ENDROOT
BRANCH   1   2
HETATM    2  N           1     -22.079  -4.721  -9.534  0.00  0.00    -0.343 N 
HETATM    3  C           1     -21.984  -4.633  -8.172  0.00  0.00     0.251 C 
HETATM    4  O           1     -22.453  -3.682  -7.594  0.00  0.00    -0.271 OA
HETATM    5  H           1     -21.685  -5.517 -10.019  0.00  0.00     0.163 HD
BRANCH   3   6
HETATM    6  C           1     -21.293  -5.724  -7.392  0.00  0.00     0.311 C 
HETATM    7  C           1     -21.206  -5.365  -5.919  0.00  0.00     0.047 C 
HETATM    8  C           1     -19.836  -4.721  -5.747  0.00  0.00     0.033 C 
HETATM    9  C           1     -19.205  -4.753  -7.128  0.00  0.00     0.271 C 
HETATM   10  N           1     -19.897  -5.850  -7.802  0.00  0.00     0.097 N 
HETATM   11  H           1     -19.507  -6.740  -7.490  0.00  0.00     0.317 HD
ENDBRANCH   3   6
ENDBRANCH   1   2
BRANCH   1  12
HETATM   12  C           1     -22.353  -3.775 -11.753  0.00  0.00     0.217 C 
BRANCH  12  13
HETATM   13  O           1     -22.683  -2.581 -12.410  0.00  0.00    -0.287 OA
BRANCH  13  14
HETATM   14  P           1     -23.541  -2.735 -13.770  0.00  0.00     0.406 P 
HETATM   15  O           1     -24.384  -3.948 -13.687  0.00  0.00    -0.624 OA
HETATM   16  O           1     -22.620  -2.851 -14.922  0.00  0.00    -0.624 OA
BRANCH  14  17
HETATM   17  O           1     -24.483  -1.438 -13.960  0.00  0.00    -0.300 OA
HETATM   18  H           1     -24.219  -1.063 -14.783  0.00  0.00     0.223 HD
ENDBRANCH  14  17
ENDBRANCH  13  14
ENDBRANCH  12  13
ENDBRANCH   1  12
BRANCH   1  19
HETATM   19  C           1     -24.237  -3.824 -10.149  0.00  0.00     0.198 C 
HETATM   20  O           1     -24.958  -2.812 -10.010  0.00  0.00    -0.646 OA
HETATM   21  O           1     -24.755  -4.961 -10.174  0.00  0.00    -0.646 OA
ENDBRANCH   1  19
TORSDOF 7
ENDMDL
MODEL 2
REMARK VINA RESULT:      -6.6      9.390     11.203
REMARK  7 active torsions:
REMARK  status: ('A' for Active; 'I' for Inactive)
REMARK    1  A    between atoms: P_1  and  O_2 
REMARK    2  A    between atoms: P_1  and  O_9 
REMARK    3  A    between atoms: O_2  and  C_7 
REMARK    4  A    between atoms: N_3  and  C_16 
REMARK       I    between atoms: N_3  and  C_5 
REMARK    5  A    between atoms: C_5  and  C_19 
REMARK    6  A    between atoms: C_7  and  C_16 
REMARK    7  A    between atoms: C_15  and  C_16 
ROOT
HETATM    1  C           1     -26.254  -6.813 -19.848  0.00  0.00     0.210 C 
ENDROOT
BRANCH   1   2
HETATM    2  N           1     -27.523  -7.307 -19.351  0.00  0.00    -0.343 N 
HETATM    3  C           1     -28.516  -6.427 -19.016  0.00  0.00     0.251 C 
HETATM    4  O           1     -28.335  -5.239 -19.133  0.00  0.00    -0.271 OA
HETATM    5  H           1     -27.673  -8.303 -19.251  0.00  0.00     0.163 HD
BRANCH   3   6
HETATM    6  C           1     -29.836  -6.942 -18.497  0.00  0.00     0.311 C 
HETATM    7  C           1     -30.600  -5.844 -17.778  0.00  0.00     0.047 C 
HETATM    8  C           1     -30.244  -6.010 -16.305  0.00  0.00     0.033 C 
HETATM    9  C           1     -29.302  -7.201 -16.257  0.00  0.00     0.271 C 
HETATM   10  N           1     -29.630  -7.954 -17.465  0.00  0.00     0.097 N 
HETATM   11  H           1     -30.482  -8.492 -17.309  0.00  0.00     0.317 HD
ENDBRANCH   3   6
ENDBRANCH   1   2
BRANCH   1  12
HETATM   12  C           1     -25.245  -6.770 -18.708  0.00  0.00     0.217 C 
BRANCH  12  13
HETATM   13  O           1     -25.867  -6.280 -17.551  0.00  0.00    -0.287 OA
BRANCH  13  14
HETATM   14  P           1     -25.288  -6.830 -16.147  0.00  0.00     0.406 P 
HETATM   15  O           1     -24.276  -7.878 -16.407  0.00  0.00    -0.624 OA
HETATM   16  O           1     -26.395  -7.400 -15.347  0.00  0.00    -0.624 OA
BRANCH  14  17
HETATM   17  O           1     -24.604  -5.614 -15.334  0.00  0.00    -0.300 OA
HETATM   18  H           1     -24.936  -5.690 -14.456  0.00  0.00     0.223 HD
ENDBRANCH  14  17
ENDBRANCH  13  14
ENDBRANCH  12  13
ENDBRANCH   1  12
BRANCH   1  19
HETATM   19  C           1     -25.746  -7.730 -20.933  0.00  0.00     0.198 C 
HETATM   20  O           1     -24.574  -7.614 -21.352  0.00  0.00    -0.646 OA
HETATM   21  O           1     -26.497  -8.605 -21.415  0.00  0.00    -0.646 OA
ENDBRANCH   1  19
TORSDOF 7
ENDMDL
MODEL 3
REMARK VINA RESULT:      -5.7      1.369      2.093
REMARK  7 active torsions:
REMARK  status: ('A' for Active; 'I' for Inactive)
REMARK    1  A    between atoms: P_1  and  O_2 
REMARK    2  A    between atoms: P_1  and  O_9 
REMARK    3  A    between atoms: O_2  and  C_7 
REMARK    4  A    between atoms: N_3  and  C_16 
REMARK       I    between atoms: N_3  and  C_5 
REMARK    5  A    between atoms: C_5  and  C_19 
REMARK    6  A    between atoms: C_7  and  C_16 
REMARK    7  A    between atoms: C_15  and  C_16 
ROOT
HETATM    1  C           1     -22.316  -3.619  -9.704  0.00  0.00     0.210 C 
ENDROOT
BRANCH   1   2
HETATM    2  N           1     -21.371  -4.372  -8.901  0.00  0.00    -0.343 N 
HETATM    3  C           1     -20.958  -3.882  -7.692  0.00  0.00     0.251 C 
HETATM    4  O           1     -21.378  -2.823  -7.294  0.00  0.00    -0.271 OA
HETATM    5  H           1     -21.019  -5.259  -9.236  0.00  0.00     0.163 HD
BRANCH   3   6
HETATM    6  C           1     -19.974  -4.666  -6.858  0.00  0.00     0.311 C 
HETATM    7  C           1     -20.010  -6.140  -7.222  0.00  0.00     0.047 C 
HETATM    8  C           1     -20.974  -6.773  -6.226  0.00  0.00     0.033 C 
HETATM    9  C           1     -21.433  -5.630  -5.337  0.00  0.00     0.271 C 
HETATM   10  N           1     -20.357  -4.647  -5.449  0.00  0.00     0.097 N 
HETATM   11  H           1     -19.575  -4.930  -4.858  0.00  0.00     0.317 HD
ENDBRANCH   3   6
ENDBRANCH   1   2
BRANCH   1  12
HETATM   12  C           1     -22.291  -4.137 -11.135  0.00  0.00     0.217 C 
BRANCH  12  13
HETATM   13  O           1     -23.604  -4.272 -11.608  0.00  0.00    -0.287 OA
BRANCH  13  14
HETATM   14  P           1     -23.947  -3.490 -12.978  0.00  0.00     0.406 P 
HETATM   15  O           1     -22.791  -2.656 -13.375  0.00  0.00    -0.624 OA
HETATM   16  O           1     -25.131  -2.625 -12.769  0.00  0.00    -0.624 OA
BRANCH  14  17
HETATM   17  O           1     -24.262  -4.561 -14.145  0.00  0.00    -0.300 OA
HETATM   18  H           1     -23.454  -5.027 -14.273  0.00  0.00     0.223 HD
ENDBRANCH  14  17
ENDBRANCH  13  14
ENDBRANCH  12  13
ENDBRANCH   1  12
BRANCH   1  19
HETATM   19  C           1     -23.703  -3.782  -9.135  0.00  0.00     0.198 C 
HETATM   20  O           1     -23.968  -4.762  -8.405  0.00  0.00    -0.646 OA
HETATM   21  O           1     -24.589  -2.939  -9.393  0.00  0.00    -0.646 OA
ENDBRANCH   1  19
TORSDOF 7
ENDMDL
MODEL 4
REMARK VINA RESULT:      -5.6      5.221      7.841
REMARK  7 active torsions:
REMARK  status: ('A' for Active; 'I' for Inactive)
REMARK    1  A    between atoms: P_1  and  O_2 
REMARK    2  A    between atoms: P_1  and  O_9 
REMARK    3  A    between atoms: O_2  and  C_7 
REMARK    4  A    between atoms: N_3  and  C_16 
REMARK       I    between atoms: N_3  and  C_5 
REMARK    5  A    between atoms: C_5  and  C_19 
REMARK    6  A    between atoms: C_7  and  C_16 
REMARK    7  A    between atoms: C_15  and  C_16 
ROOT
HETATM    1  C           1     -21.871  -6.908  -4.455  0.00  0.00     0.210 C 
ENDROOT
BRANCH   1   2
HETATM    2  N           1     -21.101  -5.908  -5.168  0.00  0.00    -0.343 N 
HETATM    3  C           1     -21.722  -5.070  -6.054  0.00  0.00     0.251 C 
HETATM    4  O           1     -22.911  -5.163  -6.242  0.00  0.00    -0.271 OA
HETATM    5  H           1     -20.104  -5.832  -5.011  0.00  0.00     0.163 HD
BRANCH   3   6
HETATM    6  C           1     -20.919  -4.030  -6.797  0.00  0.00     0.311 C 
HETATM    7  C           1     -21.654  -3.568  -8.043  0.00  0.00     0.047 C 
HETATM    8  C           1     -21.106  -4.433  -9.172  0.00  0.00     0.033 C 
HETATM    9  C           1     -20.080  -5.339  -8.515  0.00  0.00     0.271 C 
HETATM   10  N           1     -19.681  -4.604  -7.317  0.00  0.00     0.097 N 
HETATM   11  H           1     -19.021  -3.870  -7.573  0.00  0.00     0.317 HD
ENDBRANCH   3   6
ENDBRANCH   1   2
BRANCH   1  12
HETATM   12  C           1     -21.429  -8.297  -4.894  0.00  0.00     0.217 C 
BRANCH  12  13
HETATM   13  O           1     -20.204  -8.207  -5.570  0.00  0.00    -0.287 OA
BRANCH  13  14
HETATM   14  P           1     -19.108  -9.336  -5.207  0.00  0.00     0.406 P 
HETATM   15  O           1     -18.024  -9.314  -6.214  0.00  0.00    -0.624 OA
HETATM   16  O           1     -19.755 -10.667  -5.206  0.00  0.00    -0.624 OA
BRANCH  14  17
HETATM   17  O           1     -18.490  -9.035  -3.746  0.00  0.00    -0.300 OA
HETATM   18  H           1     -18.516  -9.861  -3.295  0.00  0.00     0.223 HD
ENDBRANCH  14  17
ENDBRANCH  13  14
ENDBRANCH  12  13
ENDBRANCH   1  12
BRANCH   1  19
HETATM   19  C           1     -21.645  -6.755  -2.971  0.00  0.00     0.198 C 
HETATM   20  O           1     -22.311  -5.921  -2.321  0.00  0.00    -0.646 OA
HETATM   21  O           1     -20.791  -7.461  -2.392  0.00  0.00    -0.646 OA
ENDBRANCH   1  19
TORSDOF 7
ENDMDL
MODEL 5
REMARK VINA RESULT:      -5.5      7.193      9.319
REMARK  7 active torsions:
REMARK  status: ('A' for Active; 'I' for Inactive)
REMARK    1  A    between atoms: P_1  and  O_2 
REMARK    2  A    between atoms: P_1  and  O_9 
REMARK    3  A    between atoms: O_2  and  C_7 
REMARK    4  A    between atoms: N_3  and  C_16 
REMARK       I    between atoms: N_3  and  C_5 
REMARK    5  A    between atoms: C_5  and  C_19 
REMARK    6  A    between atoms: C_7  and  C_16 
REMARK    7  A    between atoms: C_15  and  C_16 
ROOT
HETATM    1  C           1     -21.132  -7.704  -3.817  0.00  0.00     0.210 C 
ENDROOT
BRANCH   1   2
HETATM    2  N           1     -21.642  -8.547  -2.752  0.00  0.00    -0.343 N 
HETATM    3  C           1     -20.822  -8.920  -1.723  0.00  0.00     0.251 C 
HETATM    4  O           1     -19.673  -8.548  -1.700  0.00  0.00    -0.271 OA
HETATM    5  H           1     -22.604  -8.858  -2.773  0.00  0.00     0.163 HD
BRANCH   3   6
HETATM    6  C           1     -21.353  -9.797  -0.616  0.00  0.00     0.311 C 
HETATM    7  C           1     -22.872  -9.776  -0.590  0.00  0.00     0.047 C 
HETATM    8  C           1     -23.237  -8.703   0.428  0.00  0.00     0.033 C 
HETATM    9  C           1     -21.909  -8.172   0.939  0.00  0.00     0.271 C 
HETATM   10  N           1     -20.976  -9.269   0.692  0.00  0.00     0.097 N 
HETATM   11  H           1     -21.088  -9.979   1.416  0.00  0.00     0.317 HD
ENDBRANCH   3   6
ENDBRANCH   1   2
BRANCH   1  12
HETATM   12  C           1     -21.216  -8.453  -5.140  0.00  0.00     0.217 C 
BRANCH  12  13
HETATM   13  O           1     -19.931  -8.585  -5.685  0.00  0.00    -0.287 OA
BRANCH  13  14
HETATM   14  P           1     -19.072  -9.855  -5.176  0.00  0.00     0.406 P 
HETATM   15  O           1     -18.377 -10.474  -6.326  0.00  0.00    -0.624 OA
HETATM   16  O           1     -19.979 -10.846  -4.556  0.00  0.00    -0.624 OA
BRANCH  14  17
HETATM   17  O           1     -17.983  -9.366  -4.090  0.00  0.00    -0.300 OA
HETATM   18  H           1     -17.585  -8.601  -4.469  0.00  0.00     0.223 HD
ENDBRANCH  14  17
ENDBRANCH  13  14
ENDBRANCH  12  13
ENDBRANCH   1  12
BRANCH   1  19
HETATM   19  C           1     -21.955  -6.443  -3.900  0.00  0.00     0.198 C 
HETATM   20  O           1     -22.401  -5.917  -2.857  0.00  0.00    -0.646 OA
HETATM   21  O           1     -22.194  -5.924  -5.012  0.00  0.00    -0.646 OA
ENDBRANCH   1  19
TORSDOF 7
ENDMDL
MODEL 6
REMARK VINA RESULT:      -5.5      6.034      8.088
REMARK  7 active torsions:
REMARK  status: ('A' for Active; 'I' for Inactive)
REMARK    1  A    between atoms: P_1  and  O_2 
REMARK    2  A    between atoms: P_1  and  O_9 
REMARK    3  A    between atoms: O_2  and  C_7 
REMARK    4  A    between atoms: N_3  and  C_16 
REMARK       I    between atoms: N_3  and  C_5 
REMARK    5  A    between atoms: C_5  and  C_19 
REMARK    6  A    between atoms: C_7  and  C_16 
REMARK    7  A    between atoms: C_15  and  C_16 
ROOT
HETATM    1  C           1     -21.607  -7.625  -3.936  0.00  0.00     0.210 C 
ENDROOT
BRANCH   1   2
HETATM    2  N           1     -21.485  -7.909  -2.520  0.00  0.00    -0.343 N 
HETATM    3  C           1     -22.127  -7.120  -1.606  0.00  0.00     0.251 C 
HETATM    4  O           1     -22.796  -6.186  -1.978  0.00  0.00    -0.271 OA
HETATM    5  H           1     -20.924  -8.692  -2.208  0.00  0.00     0.163 HD
BRANCH   3   6
HETATM    6  C           1     -21.999  -7.416  -0.131  0.00  0.00     0.311 C 
HETATM    7  C           1     -21.104  -8.620   0.102  0.00  0.00     0.047 C 
HETATM    8  C           1     -22.054  -9.807   0.204  0.00  0.00     0.033 C 
HETATM    9  C           1     -23.444  -9.219   0.033  0.00  0.00     0.271 C 
HETATM   10  N           1     -23.284  -7.823   0.431  0.00  0.00     0.097 N 
HETATM   11  H           1     -23.270  -7.759   1.449  0.00  0.00     0.317 HD
ENDBRANCH   3   6
ENDBRANCH   1   2
BRANCH   1  12
HETATM   12  C           1     -20.515  -6.650  -4.354  0.00  0.00     0.217 C 
BRANCH  12  13
HETATM   13  O           1     -21.099  -5.484  -4.868  0.00  0.00    -0.287 OA
BRANCH  13  14
HETATM   14  P           1     -20.711  -5.109  -6.391  0.00  0.00     0.406 P 
HETATM   15  O           1     -19.299  -4.670  -6.447  0.00  0.00    -0.624 OA
HETATM   16  O           1     -21.588  -4.015  -6.867  0.00  0.00    -0.624 OA
BRANCH  14  17
HETATM   17  O           1     -20.908  -6.407  -7.331  0.00  0.00    -0.300 OA
HETATM   18  H           1     -20.363  -6.248  -8.083  0.00  0.00     0.223 HD
ENDBRANCH  14  17
ENDBRANCH  13  14
ENDBRANCH  12  13
ENDBRANCH   1  12
BRANCH   1  19
HETATM   19  C           1     -21.465  -8.905  -4.722  0.00  0.00     0.198 C 
HETATM   20  O           1     -21.084  -8.869  -5.911  0.00  0.00    -0.646 OA
HETATM   21  O           1     -21.729 -10.002  -4.183  0.00  0.00    -0.646 OA
ENDBRANCH   1  19
TORSDOF 7
ENDMDL
MODEL 7
REMARK VINA RESULT:      -5.4      6.015      8.389
REMARK  7 active torsions:
REMARK  status: ('A' for Active; 'I' for Inactive)
REMARK    1  A    between atoms: P_1  and  O_2 
REMARK    2  A    between atoms: P_1  and  O_9 
REMARK    3  A    between atoms: O_2  and  C_7 
REMARK    4  A    between atoms: N_3  and  C_16 
REMARK       I    between atoms: N_3  and  C_5 
REMARK    5  A    between atoms: C_5  and  C_19 
REMARK    6  A    between atoms: C_7  and  C_16 
REMARK    7  A    between atoms: C_15  and  C_16 
ROOT
HETATM    1  C           1     -20.916  -8.188  -3.985  0.00  0.00     0.210 C 
ENDROOT
BRANCH   1   2
HETATM    2  N           1     -20.950  -8.559  -2.583  0.00  0.00    -0.343 N 
HETATM    3  C           1     -21.745  -9.592  -2.169  0.00  0.00     0.251 C 
HETATM    4  O           1     -22.420 -10.194  -2.969  0.00  0.00    -0.271 OA
HETATM    5  H           1     -20.385  -8.054  -1.913  0.00  0.00     0.163 HD
BRANCH   3   6
HETATM    6  C           1     -21.781  -9.978  -0.710  0.00  0.00     0.311 C 
HETATM    7  C           1     -23.203  -9.952  -0.178  0.00  0.00     0.047 C 
HETATM    8  C           1     -23.371  -8.571   0.443  0.00  0.00     0.033 C 
HETATM    9  C           1     -22.033  -7.880   0.242  0.00  0.00     0.271 C 
HETATM   10  N           1     -21.087  -8.985   0.106  0.00  0.00     0.097 N 
HETATM   11  H           1     -20.871  -9.362   1.029  0.00  0.00     0.317 HD
ENDBRANCH   3   6
ENDBRANCH   1   2
BRANCH   1  12
HETATM   12  C           1     -21.111  -6.683  -4.115  0.00  0.00     0.217 C 
BRANCH  12  13
HETATM   13  O           1     -21.941  -6.412  -5.212  0.00  0.00    -0.287 OA
BRANCH  13  14
HETATM   14  P           1     -21.330  -5.427  -6.337  0.00  0.00     0.406 P 
HETATM   15  O           1     -20.399  -4.469  -5.700  0.00  0.00    -0.624 OA
HETATM   16  O           1     -22.431  -4.685  -6.992  0.00  0.00    -0.624 OA
BRANCH  14  17
HETATM   17  O           1     -20.535  -6.298  -7.439  0.00  0.00    -0.300 OA
HETATM   18  H           1     -21.158  -6.934  -7.744  0.00  0.00     0.223 HD
ENDBRANCH  14  17
ENDBRANCH  13  14
ENDBRANCH  12  13
ENDBRANCH   1  12
BRANCH   1  19
HETATM   19  C           1     -19.583  -8.574  -4.577  0.00  0.00     0.198 C 
HETATM   20  O           1     -18.657  -8.962  -3.832  0.00  0.00    -0.646 OA
HETATM   21  O           1     -19.404  -8.506  -5.812  0.00  0.00    -0.646 OA
ENDBRANCH   1  19
TORSDOF 7
ENDMDL
MODEL 8
REMARK VINA RESULT:      -5.4      3.455      6.681
REMARK  7 active torsions:
REMARK  status: ('A' for Active; 'I' for Inactive)
REMARK    1  A    between atoms: P_1  and  O_2 
REMARK    2  A    between atoms: P_1  and  O_9 
REMARK    3  A    between atoms: O_2  and  C_7 
REMARK    4  A    between atoms: N_3  and  C_16 
REMARK       I    between atoms: N_3  and  C_5 
REMARK    5  A    between atoms: C_5  and  C_19 
REMARK    6  A    between atoms: C_7  and  C_16 
REMARK    7  A    between atoms: C_15  and  C_16 
ROOT
HETATM    1  C           1     -21.840  -5.259  -8.200  0.00  0.00     0.210 C 
ENDROOT
BRANCH   1   2
HETATM    2  N           1     -21.550  -4.807  -9.547  0.00  0.00    -0.343 N 
HETATM    3  C           1     -22.522  -4.856 -10.509  0.00  0.00     0.251 C 
HETATM    4  O           1     -23.621  -5.275 -10.237  0.00  0.00    -0.271 OA
HETATM    5  H           1     -20.629  -4.456  -9.775  0.00  0.00     0.163 HD
BRANCH   3   6
HETATM    6  C           1     -22.219  -4.386 -11.911  0.00  0.00     0.311 C 
HETATM    7  C           1     -21.867  -2.908 -11.922  0.00  0.00     0.047 C 
HETATM    8  C           1     -23.175  -2.191 -12.235  0.00  0.00     0.033 C 
HETATM    9  C           1     -24.205  -3.295 -12.396  0.00  0.00     0.271 C 
HETATM   10  N           1     -23.408  -4.466 -12.754  0.00  0.00     0.097 N 
HETATM   11  H           1     -23.157  -4.416 -13.742  0.00  0.00     0.317 HD
ENDBRANCH   3   6
ENDBRANCH   1   2
BRANCH   1  12
HETATM   12  C           1     -20.551  -5.718  -7.532  0.00  0.00     0.217 C 
BRANCH  12  13
HETATM   13  O           1     -20.821  -6.810  -6.695  0.00  0.00    -0.287 OA
BRANCH  13  14
HETATM   14  P           1     -21.076  -6.465  -5.138  0.00  0.00     0.406 P 
HETATM   15  O           1     -20.438  -5.171  -4.808  0.00  0.00    -0.624 OA
HETATM   16  O           1     -20.492  -7.533  -4.295  0.00  0.00    -0.624 OA
BRANCH  14  17
HETATM   17  O           1     -22.663  -6.367  -4.862  0.00  0.00    -0.300 OA
HETATM   18  H           1     -22.975  -5.706  -5.457  0.00  0.00     0.223 HD
ENDBRANCH  14  17
ENDBRANCH  13  14
ENDBRANCH  12  13
ENDBRANCH   1  12
BRANCH   1  19
HETATM   19  C           1     -22.442  -4.126  -7.407  0.00  0.00     0.198 C 
HETATM   20  O           1     -21.815  -3.053  -7.275  0.00  0.00    -0.646 OA
HETATM   21  O           1     -23.568  -4.260  -6.880  0.00  0.00    -0.646 OA
ENDBRANCH   1  19
TORSDOF 7
ENDMDL
MODEL 9
REMARK VINA RESULT:      -5.4      7.482      9.723
REMARK  7 active torsions:
REMARK  status: ('A' for Active; 'I' for Inactive)
REMARK    1  A    between atoms: P_1  and  O_2 
REMARK    2  A    between atoms: P_1  and  O_9 
REMARK    3  A    between atoms: O_2  and  C_7 
REMARK    4  A    between atoms: N_3  and  C_16 
REMARK       I    between atoms: N_3  and  C_5 
REMARK    5  A    between atoms: C_5  and  C_19 
REMARK    6  A    between atoms: C_7  and  C_16 
REMARK    7  A    between atoms: C_15  and  C_16 
ROOT
HETATM    1  C           1     -21.252  -8.102  -1.635  0.00  0.00     0.210 C 
ENDROOT
BRANCH   1   2
HETATM    2  N           1     -22.003  -9.336  -1.763  0.00  0.00    -0.343 N 
HETATM    3  C           1     -21.411 -10.532  -1.459  0.00  0.00     0.251 C 
HETATM    4  O           1     -20.264 -10.560  -1.084  0.00  0.00    -0.271 OA
HETATM    5  H           1     -22.964  -9.312  -2.078  0.00  0.00     0.163 HD
BRANCH   3   6
HETATM    6  C           1     -22.194 -11.816  -1.593  0.00  0.00     0.311 C 
HETATM    7  C           1     -23.653 -11.601  -1.230  0.00  0.00     0.047 C 
HETATM    8  C           1     -23.757 -11.986   0.240  0.00  0.00     0.033 C 
HETATM    9  C           1     -22.355 -12.411   0.641  0.00  0.00     0.271 C 
HETATM   10  N           1     -21.736 -12.806  -0.623  0.00  0.00     0.097 N 
HETATM   11  H           1     -22.057 -13.740  -0.880  0.00  0.00     0.317 HD
ENDBRANCH   3   6
ENDBRANCH   1   2
BRANCH   1  12
HETATM   12  C           1     -20.655  -7.731  -2.985  0.00  0.00     0.217 C 
BRANCH  12  13
HETATM   13  O           1     -21.624  -7.891  -3.986  0.00  0.00    -0.287 OA
BRANCH  13  14
HETATM   14  P           1     -21.739  -6.690  -5.061  0.00  0.00     0.406 P 
HETATM   15  O           1     -23.142  -6.228  -5.136  0.00  0.00    -0.624 OA
HETATM   16  O           1     -21.306  -7.177  -6.390  0.00  0.00    -0.624 OA
BRANCH  14  17
HETATM   17  O           1     -20.794  -5.465  -4.601  0.00  0.00    -0.300 OA
HETATM   18  H           1     -20.639  -5.606  -3.682  0.00  0.00     0.223 HD
ENDBRANCH  14  17
ENDBRANCH  13  14
ENDBRANCH  12  13
ENDBRANCH   1  12
BRANCH   1  19
HETATM   19  C           1     -22.170  -6.999  -1.171  0.00  0.00     0.198 C 
HETATM   20  O           1     -23.057  -7.239  -0.324  0.00  0.00    -0.646 OA
HETATM   21  O           1     -22.045  -5.845  -1.634  0.00  0.00    -0.646 OA
ENDBRANCH   1  19
TORSDOF 7
ENDMDL
