MODEL 1
REMARK VINA RESULT:      -8.0      0.000      0.000
REMARK  10 active torsions:
REMARK  status: ('A' for Active; 'I' for Inactive)
REMARK    1  A    between atoms: C_2  and  C_16 
REMARK    2  A    between atoms: C_2  and  C_9 
REMARK    3  A    between atoms: C_6  and  C_7 
REMARK    4  A    between atoms: C_7  and  C_8 
REMARK    5  A    between atoms: C_8  and  C_10 
REMARK    6  A    between atoms: C_8  and  N_23 
REMARK    7  A    between atoms: C_9  and  C_20 
REMARK       I    between atoms: C_10  and  N_15 
REMARK    8  A    between atoms: N_15  and  C_20 
REMARK    9  A    between atoms: C_16  and  N_17 
REMARK   10  A    between atoms: C_20  and  C_28 
ROOT
HETATM    1  C           1     -21.018  -5.430  -6.595  0.00  0.00     0.278 C 
ENDROOT
BRANCH   1   2
HETATM    2  C           1     -22.127  -5.907  -5.665  0.00  0.00     0.083 C 
BRANCH   2   3
HETATM    3  C           1     -21.610  -7.012  -4.798  0.00  0.00    -0.028 A 
HETATM    4  C           1     -20.953  -8.143  -5.229  0.00  0.00     0.096 A 
HETATM    5  N           1     -20.650  -8.897  -4.127  0.00  0.00    -0.365 N 
HETATM    6  C           1     -21.099  -8.273  -2.985  0.00  0.00     0.042 A 
HETATM    7  H           1     -20.146  -9.817  -4.149  0.00  0.00     0.165 HD
HETATM    8  C           1     -21.014  -8.669  -1.644  0.00  0.00     0.030 A 
HETATM    9  C           1     -21.709  -7.082  -3.381  0.00  0.00    -0.002 A 
HETATM   10  C           1     -21.569  -7.819  -0.683  0.00  0.00     0.002 A 
HETATM   11  C           1     -22.184  -6.623  -1.050  0.00  0.00     0.001 A 
HETATM   12  C           1     -22.261  -6.242  -2.395  0.00  0.00     0.014 A 
ENDBRANCH   2   3
ENDBRANCH   1   2
BRANCH   1  13
HETATM   13  C           1     -21.559  -4.365  -7.517  0.00  0.00     0.249 C 
HETATM   14  N           1     -22.110  -4.716  -8.720  0.00  0.00    -0.345 N 
HETATM   15  H           1     -22.154  -5.691  -8.990  0.00  0.00     0.163 HD
HETATM   16  O           1     -21.506  -3.202  -7.194  0.00  0.00    -0.271 OA
BRANCH  14  17
HETATM   17  C           1     -22.630  -3.694  -9.607  0.00  0.00     0.185 C 
BRANCH  17  18
HETATM   18  C           1     -22.014  -3.860 -10.990  0.00  0.00     0.038 C 
BRANCH  18  19
HETATM   19  C           1     -22.336  -2.637 -11.840  0.00  0.00     0.030 C 
BRANCH  19  20
HETATM   20  C           1     -22.771  -3.085 -13.229  0.00  0.00     0.230 C 
BRANCH  20  21
HETATM   21  N           1     -23.831  -4.139 -13.105  0.00  0.00    -0.079 N 
HETATM   22  H           1     -23.892  -4.456 -12.111  0.00  0.00     0.274 HD
HETATM   23  H           1     -23.588  -4.952 -13.715  0.00  0.00     0.274 HD
HETATM   24  H           1     -24.752  -3.744 -13.402  0.00  0.00     0.274 HD
ENDBRANCH  20  21
ENDBRANCH  19  20
ENDBRANCH  18  19
ENDBRANCH  17  18
BRANCH  17  25
HETATM   25  C           1     -24.129  -3.829  -9.705  0.00  0.00     0.196 C 
HETATM   26  O           1     -24.865  -2.867  -9.396  0.00  0.00    -0.646 OA
HETATM   27  O           1     -24.636  -4.903 -10.095  0.00  0.00    -0.646 OA
ENDBRANCH  17  25
ENDBRANCH  14  17
ENDBRANCH   1  13
BRANCH   1  28
HETATM   28  N           1     -19.894  -4.861  -5.780  0.00  0.00    -0.066 N 
HETATM   29  H           1     -19.222  -4.370  -6.411  0.00  0.00     0.275 HD
HETATM   30  H           1     -19.401  -5.634  -5.280  0.00  0.00     0.275 HD
HETATM   31  H           1     -20.278  -4.183  -5.084  0.00  0.00     0.275 HD
ENDBRANCH   1  28
TORSDOF 10
ENDMDL
MODEL 2
REMARK VINA RESULT:      -7.4      2.808      8.364
REMARK  10 active torsions:
REMARK  status: ('A' for Active; 'I' for Inactive)
REMARK    1  A    between atoms: C_2  and  C_16 
REMARK    2  A    between atoms: C_2  and  C_9 
REMARK    3  A    between atoms: C_6  and  C_7 
REMARK    4  A    between atoms: C_7  and  C_8 
REMARK    5  A    between atoms: C_8  and  C_10 
REMARK    6  A    between atoms: C_8  and  N_23 
REMARK    7  A    between atoms: C_9  and  C_20 
REMARK       I    between atoms: C_10  and  N_15 
REMARK    8  A    between atoms: N_15  and  C_20 
REMARK    9  A    between atoms: C_16  and  N_17 
REMARK   10  A    between atoms: C_20  and  C_28 
ROOT
HETATM    1  C           1     -20.836  -5.512  -6.135  0.00  0.00     0.278 C 
ENDROOT
BRANCH   1   2
HETATM    2  C           1     -20.639  -5.251  -7.624  0.00  0.00     0.083 C 
BRANCH   2   3
HETATM    3  C           1     -21.885  -4.647  -8.193  0.00  0.00    -0.028 A 
HETATM    4  C           1     -23.062  -4.425  -7.516  0.00  0.00     0.096 A 
HETATM    5  N           1     -23.949  -3.859  -8.393  0.00  0.00    -0.365 N 
HETATM    6  C           1     -23.366  -3.710  -9.631  0.00  0.00     0.042 A 
HETATM    7  H           1     -24.932  -3.579  -8.155  0.00  0.00     0.165 HD
HETATM    8  C           1     -23.887  -3.184 -10.820  0.00  0.00     0.030 A 
HETATM    9  C           1     -22.063  -4.199  -9.532  0.00  0.00    -0.002 A 
HETATM   10  C           1     -23.048  -3.160 -11.938  0.00  0.00     0.002 A 
HETATM   11  C           1     -21.742  -3.643 -11.868  0.00  0.00     0.001 A 
HETATM   12  C           1     -21.237  -4.165 -10.672  0.00  0.00     0.014 A 
ENDBRANCH   2   3
ENDBRANCH   1   2
BRANCH   1  13
HETATM   13  C           1     -20.269  -6.865  -5.783  0.00  0.00     0.249 C 
HETATM   14  N           1     -20.694  -7.512  -4.653  0.00  0.00    -0.345 N 
HETATM   15  H           1     -21.388  -7.081  -4.055  0.00  0.00     0.163 HD
HETATM   16  O           1     -19.442  -7.379  -6.497  0.00  0.00    -0.271 OA
BRANCH  14  17
HETATM   17  C           1     -20.151  -8.813  -4.314  0.00  0.00     0.185 C 
BRANCH  17  18
HETATM   18  C           1     -19.966  -8.908  -2.805  0.00  0.00     0.038 C 
BRANCH  18  19
HETATM   19  C           1     -20.647  -7.722  -2.133  0.00  0.00     0.030 C 
BRANCH  19  20
HETATM   20  C           1     -21.313  -8.183  -0.844  0.00  0.00     0.230 C 
BRANCH  20  21
HETATM   21  N           1     -22.250  -9.315  -1.142  0.00  0.00    -0.079 N 
HETATM   22  H           1     -22.156  -9.589  -2.146  0.00  0.00     0.274 HD
HETATM   23  H           1     -23.234  -9.014  -0.955  0.00  0.00     0.274 HD
HETATM   24  H           1     -22.014 -10.132  -0.534  0.00  0.00     0.274 HD
ENDBRANCH  20  21
ENDBRANCH  19  20
ENDBRANCH  18  19
ENDBRANCH  17  18
BRANCH  17  25
HETATM   25  C           1     -21.103  -9.890  -4.771  0.00  0.00     0.196 C 
HETATM   26  O           1     -21.934 -10.371  -3.971  0.00  0.00    -0.646 OA
HETATM   27  O           1     -21.059 -10.304  -5.950  0.00  0.00    -0.646 OA
ENDBRANCH  17  25
ENDBRANCH  14  17
ENDBRANCH   1  13
BRANCH   1  28
HETATM   28  N           1     -20.126  -4.452  -5.345  0.00  0.00    -0.066 N 
HETATM   29  H           1     -19.229  -4.207  -5.820  0.00  0.00     0.275 HD
HETATM   30  H           1     -19.925  -4.810  -4.385  0.00  0.00     0.275 HD
HETATM   31  H           1     -20.731  -3.602  -5.281  0.00  0.00     0.275 HD
ENDBRANCH   1  28
TORSDOF 10
ENDMDL
MODEL 3
REMARK VINA RESULT:      -7.3      2.578      8.380
REMARK  10 active torsions:
REMARK  status: ('A' for Active; 'I' for Inactive)
REMARK    1  A    between atoms: C_2  and  C_16 
REMARK    2  A    between atoms: C_2  and  C_9 
REMARK    3  A    between atoms: C_6  and  C_7 
REMARK    4  A    between atoms: C_7  and  C_8 
REMARK    5  A    between atoms: C_8  and  C_10 
REMARK    6  A    between atoms: C_8  and  N_23 
REMARK    7  A    between atoms: C_9  and  C_20 
REMARK       I    between atoms: C_10  and  N_15 
REMARK    8  A    between atoms: N_15  and  C_20 
REMARK    9  A    between atoms: C_16  and  N_17 
REMARK   10  A    between atoms: C_20  and  C_28 
ROOT
HETATM    1  C           1     -22.170  -5.108  -6.921  0.00  0.00     0.278 C 
ENDROOT
BRANCH   1   2
HETATM    2  C           1     -21.619  -3.785  -7.437  0.00  0.00     0.083 C 
BRANCH   2   3
HETATM    3  C           1     -21.386  -3.883  -8.912  0.00  0.00    -0.028 A 
HETATM    4  C           1     -20.188  -4.163  -9.529  0.00  0.00     0.096 A 
HETATM    5  N           1     -20.402  -4.160 -10.881  0.00  0.00    -0.365 N 
HETATM    6  C           1     -21.723  -3.884 -11.154  0.00  0.00     0.042 A 
HETATM    7  H           1     -19.665  -4.344 -11.606  0.00  0.00     0.165 HD
HETATM    8  C           1     -22.391  -3.779 -12.380  0.00  0.00     0.030 A 
HETATM    9  C           1     -22.365  -3.705  -9.929  0.00  0.00    -0.002 A 
HETATM   10  C           1     -23.757  -3.482 -12.349  0.00  0.00     0.002 A 
HETATM   11  C           1     -24.425  -3.298 -11.139  0.00  0.00     0.001 A 
HETATM   12  C           1     -23.742  -3.406  -9.922  0.00  0.00     0.014 A 
ENDBRANCH   2   3
ENDBRANCH   1   2
BRANCH   1  13
HETATM   13  C           1     -21.290  -5.620  -5.808  0.00  0.00     0.249 C 
HETATM   14  N           1     -21.520  -6.856  -5.266  0.00  0.00    -0.345 N 
HETATM   15  H           1     -22.282  -7.426  -5.613  0.00  0.00     0.163 HD
HETATM   16  O           1     -20.381  -4.940  -5.395  0.00  0.00    -0.271 OA
BRANCH  14  17
HETATM   17  C           1     -20.674  -7.349  -4.197  0.00  0.00     0.185 C 
BRANCH  17  18
HETATM   18  C           1     -21.539  -7.751  -3.009  0.00  0.00     0.038 C 
BRANCH  18  19
HETATM   19  C           1     -21.958  -6.504  -2.241  0.00  0.00     0.030 C 
BRANCH  19  20
HETATM   20  C           1     -22.346  -6.890  -0.820  0.00  0.00     0.230 C 
BRANCH  20  21
HETATM   21  N           1     -21.773  -8.237  -0.493  0.00  0.00    -0.079 N 
HETATM   22  H           1     -22.510  -8.830  -0.048  0.00  0.00     0.274 HD
HETATM   23  H           1     -20.971  -8.126   0.167  0.00  0.00     0.274 HD
HETATM   24  H           1     -21.440  -8.697  -1.371  0.00  0.00     0.274 HD
ENDBRANCH  20  21
ENDBRANCH  19  20
ENDBRANCH  18  19
ENDBRANCH  17  18
BRANCH  17  25
HETATM   25  C           1     -19.898  -8.549  -4.682  0.00  0.00     0.196 C 
HETATM   26  O           1     -19.888  -9.601  -4.007  0.00  0.00    -0.646 OA
HETATM   27  O           1     -19.265  -8.490  -5.758  0.00  0.00    -0.646 OA
ENDBRANCH  17  25
ENDBRANCH  14  17
ENDBRANCH   1  13
BRANCH   1  28
HETATM   28  N           1     -23.562  -4.900  -6.400  0.00  0.00    -0.066 N 
HETATM   29  H           1     -23.573  -4.079  -5.755  0.00  0.00     0.275 HD
HETATM   30  H           1     -23.872  -5.753  -5.884  0.00  0.00     0.275 HD
HETATM   31  H           1     -24.210  -4.722  -7.201  0.00  0.00     0.275 HD
ENDBRANCH   1  28
TORSDOF 10
ENDMDL
MODEL 4
REMARK VINA RESULT:      -7.2      2.936      8.211
REMARK  10 active torsions:
REMARK  status: ('A' for Active; 'I' for Inactive)
REMARK    1  A    between atoms: C_2  and  C_16 
REMARK    2  A    between atoms: C_2  and  C_9 
REMARK    3  A    between atoms: C_6  and  C_7 
REMARK    4  A    between atoms: C_7  and  C_8 
REMARK    5  A    between atoms: C_8  and  C_10 
REMARK    6  A    between atoms: C_8  and  N_23 
REMARK    7  A    between atoms: C_9  and  C_20 
REMARK       I    between atoms: C_10  and  N_15 
REMARK    8  A    between atoms: N_15  and  C_20 
REMARK    9  A    between atoms: C_16  and  N_17 
REMARK   10  A    between atoms: C_20  and  C_28 
ROOT
HETATM    1  C           1     -21.132  -5.495  -5.818  0.00  0.00     0.278 C 
ENDROOT
BRANCH   1   2
HETATM    2  C           1     -20.874  -5.558  -7.318  0.00  0.00     0.083 C 
BRANCH   2   3
HETATM    3  C           1     -21.952  -4.813  -8.042  0.00  0.00    -0.028 A 
HETATM    4  C           1     -23.184  -4.469  -7.532  0.00  0.00     0.096 A 
HETATM    5  N           1     -23.869  -3.799  -8.510  0.00  0.00    -0.365 N 
HETATM    6  C           1     -23.101  -3.701  -9.649  0.00  0.00     0.042 A 
HETATM    7  H           1     -24.840  -3.414  -8.407  0.00  0.00     0.165 HD
HETATM    8  C           1     -23.386  -3.108 -10.885  0.00  0.00     0.030 A 
HETATM    9  C           1     -21.887  -4.333  -9.379  0.00  0.00    -0.002 A 
HETATM   10  C           1     -22.398  -3.164 -11.872  0.00  0.00     0.002 A 
HETATM   11  C           1     -21.175  -3.789 -11.631  0.00  0.00     0.001 A 
HETATM   12  C           1     -20.907  -4.378 -10.389  0.00  0.00     0.014 A 
ENDBRANCH   2   3
ENDBRANCH   1   2
BRANCH   1  13
HETATM   13  C           1     -21.091  -6.888  -5.241  0.00  0.00     0.249 C 
HETATM   14  N           1     -20.951  -7.067  -3.891  0.00  0.00    -0.345 N 
HETATM   15  H           1     -20.873  -6.263  -3.281  0.00  0.00     0.163 HD
HETATM   16  O           1     -21.184  -7.846  -5.971  0.00  0.00    -0.271 OA
BRANCH  14  17
HETATM   17  C           1     -20.912  -8.406  -3.336  0.00  0.00     0.185 C 
BRANCH  17  18
HETATM   18  C           1     -19.464  -8.822  -3.115  0.00  0.00     0.038 C 
BRANCH  18  19
HETATM   19  C           1     -19.144 -10.032  -3.985  0.00  0.00     0.030 C 
BRANCH  19  20
HETATM   20  C           1     -17.958  -9.710  -4.884  0.00  0.00     0.230 C 
BRANCH  20  21
HETATM   21  N           1     -18.456  -9.246  -6.221  0.00  0.00    -0.079 N 
HETATM   22  H           1     -17.939  -8.383  -6.505  0.00  0.00     0.274 HD
HETATM   23  H           1     -19.478  -9.034  -6.160  0.00  0.00     0.274 HD
HETATM   24  H           1     -18.298  -9.996  -6.931  0.00  0.00     0.274 HD
ENDBRANCH  20  21
ENDBRANCH  19  20
ENDBRANCH  18  19
ENDBRANCH  17  18
BRANCH  17  25
HETATM   25  C           1     -21.648  -8.426  -2.020  0.00  0.00     0.196 C 
HETATM   26  O           1     -21.876  -9.514  -1.447  0.00  0.00    -0.646 OA
HETATM   27  O           1     -22.031  -7.355  -1.501  0.00  0.00    -0.646 OA
ENDBRANCH  17  25
ENDBRANCH  14  17
ENDBRANCH   1  13
BRANCH   1  28
HETATM   28  N           1     -20.075  -4.653  -5.165  0.00  0.00    -0.066 N 
HETATM   29  H           1     -19.739  -5.129  -4.298  0.00  0.00     0.275 HD
HETATM   30  H           1     -20.476  -3.721  -4.916  0.00  0.00     0.275 HD
HETATM   31  H           1     -19.276  -4.524  -5.825  0.00  0.00     0.275 HD
ENDBRANCH   1  28
TORSDOF 10
ENDMDL
MODEL 5
REMARK VINA RESULT:      -7.1      1.128      2.100
REMARK  10 active torsions:
REMARK  status: ('A' for Active; 'I' for Inactive)
REMARK    1  A    between atoms: C_2  and  C_16 
REMARK    2  A    between atoms: C_2  and  C_9 
REMARK    3  A    between atoms: C_6  and  C_7 
REMARK    4  A    between atoms: C_7  and  C_8 
REMARK    5  A    between atoms: C_8  and  C_10 
REMARK    6  A    between atoms: C_8  and  N_23 
REMARK    7  A    between atoms: C_9  and  C_20 
REMARK       I    between atoms: C_10  and  N_15 
REMARK    8  A    between atoms: N_15  and  C_20 
REMARK    9  A    between atoms: C_16  and  N_17 
REMARK   10  A    between atoms: C_20  and  C_28 
ROOT
HETATM    1  C           1     -20.996  -5.307  -6.390  0.00  0.00     0.278 C 
ENDROOT
BRANCH   1   2
HETATM    2  C           1     -22.167  -5.952  -5.660  0.00  0.00     0.083 C 
BRANCH   2   3
HETATM    3  C           1     -21.680  -6.579  -4.391  0.00  0.00    -0.028 A 
HETATM    4  C           1     -22.083  -6.252  -3.116  0.00  0.00     0.096 A 
HETATM    5  N           1     -21.401  -7.055  -2.242  0.00  0.00    -0.365 N 
HETATM    6  C           1     -20.560  -7.902  -2.930  0.00  0.00     0.042 A 
HETATM    7  H           1     -21.505  -7.031  -1.198  0.00  0.00     0.165 HD
HETATM    8  C           1     -19.680  -8.884  -2.458  0.00  0.00     0.030 A 
HETATM    9  C           1     -20.717  -7.621  -4.287  0.00  0.00    -0.002 A 
HETATM   10  C           1     -18.941  -9.598  -3.405  0.00  0.00     0.002 A 
HETATM   11  C           1     -19.078  -9.340  -4.768  0.00  0.00     0.001 A 
HETATM   12  C           1     -19.961  -8.354  -5.223  0.00  0.00     0.014 A 
ENDBRANCH   2   3
ENDBRANCH   1   2
BRANCH   1  13
HETATM   13  C           1     -21.517  -4.320  -7.405  0.00  0.00     0.249 C 
HETATM   14  N           1     -22.107  -4.768  -8.557  0.00  0.00    -0.345 N 
HETATM   15  H           1     -22.191  -5.763  -8.727  0.00  0.00     0.163 HD
HETATM   16  O           1     -21.416  -3.134  -7.201  0.00  0.00    -0.271 OA
BRANCH  14  17
HETATM   17  C           1     -22.609  -3.821  -9.532  0.00  0.00     0.185 C 
BRANCH  17  18
HETATM   18  C           1     -21.986  -4.113 -10.892  0.00  0.00     0.038 C 
BRANCH  18  19
HETATM   19  C           1     -21.920  -2.827 -11.707  0.00  0.00     0.030 C 
BRANCH  19  20
HETATM   20  C           1     -22.750  -2.988 -12.974  0.00  0.00     0.230 C 
BRANCH  20  21
HETATM   21  N           1     -24.135  -2.466 -12.734  0.00  0.00    -0.079 N 
HETATM   22  H           1     -24.084  -1.459 -12.456  0.00  0.00     0.274 HD
HETATM   23  H           1     -24.588  -3.015 -11.968  0.00  0.00     0.274 HD
HETATM   24  H           1     -24.699  -2.557 -13.609  0.00  0.00     0.274 HD
ENDBRANCH  20  21
ENDBRANCH  19  20
ENDBRANCH  18  19
ENDBRANCH  17  18
BRANCH  17  25
HETATM   25  C           1     -24.108  -3.947  -9.630  0.00  0.00     0.196 C 
HETATM   26  O           1     -24.631  -5.065  -9.828  0.00  0.00    -0.646 OA
HETATM   27  O           1     -24.830  -2.932  -9.515  0.00  0.00    -0.646 OA
ENDBRANCH  17  25
ENDBRANCH  14  17
ENDBRANCH   1  13
BRANCH   1  28
HETATM   28  N           1     -20.123  -4.592  -5.401  0.00  0.00    -0.066 N 
HETATM   29  H           1     -19.357  -4.095  -5.909  0.00  0.00     0.275 HD
HETATM   30  H           1     -19.709  -5.284  -4.738  0.00  0.00     0.275 HD
HETATM   31  H           1     -20.696  -3.899  -4.869  0.00  0.00     0.275 HD
ENDBRANCH   1  28
TORSDOF 10
ENDMDL
MODEL 6
REMARK VINA RESULT:      -7.1      3.422      8.614
REMARK  10 active torsions:
REMARK  status: ('A' for Active; 'I' for Inactive)
REMARK    1  A    between atoms: C_2  and  C_16 
REMARK    2  A    between atoms: C_2  and  C_9 
REMARK    3  A    between atoms: C_6  and  C_7 
REMARK    4  A    between atoms: C_7  and  C_8 
REMARK    5  A    between atoms: C_8  and  C_10 
REMARK    6  A    between atoms: C_8  and  N_23 
REMARK    7  A    between atoms: C_9  and  C_20 
REMARK       I    between atoms: C_10  and  N_15 
REMARK    8  A    between atoms: N_15  and  C_20 
REMARK    9  A    between atoms: C_16  and  N_17 
REMARK   10  A    between atoms: C_20  and  C_28 
ROOT
HETATM    1  C           1     -21.378  -6.244  -5.603  0.00  0.00     0.278 C 
ENDROOT
BRANCH   1   2
HETATM    2  C           1     -20.912  -4.956  -6.270  0.00  0.00     0.083 C 
BRANCH   2   3
HETATM    3  C           1     -21.886  -4.565  -7.336  0.00  0.00    -0.028 A 
HETATM    4  C           1     -23.246  -4.414  -7.178  0.00  0.00     0.096 A 
HETATM    5  N           1     -23.770  -4.050  -8.390  0.00  0.00    -0.365 N 
HETATM    6  C           1     -22.772  -3.962  -9.334  0.00  0.00     0.042 A 
HETATM    7  H           1     -24.787  -3.865  -8.572  0.00  0.00     0.165 HD
HETATM    8  C           1     -22.838  -3.628 -10.692  0.00  0.00     0.030 A 
HETATM    9  C           1     -21.574  -4.282  -8.695  0.00  0.00    -0.002 A 
HETATM   10  C           1     -21.642  -3.621 -11.415  0.00  0.00     0.002 A 
HETATM   11  C           1     -20.430  -3.936 -10.803  0.00  0.00     0.001 A 
HETATM   12  C           1     -20.381  -4.269  -9.443  0.00  0.00     0.014 A 
ENDBRANCH   2   3
ENDBRANCH   1   2
BRANCH   1  13
HETATM   13  C           1     -20.251  -7.247  -5.603  0.00  0.00     0.249 C 
HETATM   14  N           1     -20.110  -8.120  -4.557  0.00  0.00    -0.345 N 
HETATM   15  H           1     -20.764  -8.091  -3.784  0.00  0.00     0.163 HD
HETATM   16  O           1     -19.472  -7.281  -6.526  0.00  0.00    -0.271 OA
BRANCH  14  17
HETATM   17  C           1     -19.028  -9.084  -4.556  0.00  0.00     0.185 C 
BRANCH  17  18
HETATM   18  C           1     -18.489  -9.242  -3.140  0.00  0.00     0.038 C 
BRANCH  18  19
HETATM   19  C           1     -17.041  -9.711  -3.197  0.00  0.00     0.030 C 
BRANCH  19  20
HETATM   20  C           1     -16.820 -10.803  -2.160  0.00  0.00     0.230 C 
BRANCH  20  21
HETATM   21  N           1     -17.421 -12.087  -2.650  0.00  0.00    -0.079 N 
HETATM   22  H           1     -16.665 -12.798  -2.780  0.00  0.00     0.274 HD
HETATM   23  H           1     -17.904 -11.922  -3.562  0.00  0.00     0.274 HD
HETATM   24  H           1     -18.112 -12.438  -1.949  0.00  0.00     0.274 HD
ENDBRANCH  20  21
ENDBRANCH  19  20
ENDBRANCH  18  19
ENDBRANCH  17  18
BRANCH  17  25
HETATM   25  C           1     -19.540 -10.414  -5.050  0.00  0.00     0.196 C 
HETATM   26  O           1     -19.475 -10.697  -6.266  0.00  0.00    -0.646 OA
HETATM   27  O           1     -20.030 -11.234  -4.244  0.00  0.00    -0.646 OA
ENDBRANCH  17  25
ENDBRANCH  14  17
ENDBRANCH   1  13
BRANCH   1  28
HETATM   28  N           1     -21.789  -5.954  -4.189  0.00  0.00    -0.066 N 
HETATM   29  H           1     -21.104  -6.390  -3.532  0.00  0.00     0.275 HD
HETATM   30  H           1     -22.739  -6.350  -4.014  0.00  0.00     0.275 HD
HETATM   31  H           1     -21.809  -4.920  -4.038  0.00  0.00     0.275 HD
ENDBRANCH   1  28
TORSDOF 10
ENDMDL
MODEL 7
REMARK VINA RESULT:      -7.0      3.012      8.188
REMARK  10 active torsions:
REMARK  status: ('A' for Active; 'I' for Inactive)
REMARK    1  A    between atoms: C_2  and  C_16 
REMARK    2  A    between atoms: C_2  and  C_9 
REMARK    3  A    between atoms: C_6  and  C_7 
REMARK    4  A    between atoms: C_7  and  C_8 
REMARK    5  A    between atoms: C_8  and  C_10 
REMARK    6  A    between atoms: C_8  and  N_23 
REMARK    7  A    between atoms: C_9  and  C_20 
REMARK       I    between atoms: C_10  and  N_15 
REMARK    8  A    between atoms: N_15  and  C_20 
REMARK    9  A    between atoms: C_16  and  N_17 
REMARK   10  A    between atoms: C_20  and  C_28 
ROOT
HETATM    1  C           1     -20.104  -4.719  -6.954  0.00  0.00     0.278 C 
ENDROOT
BRANCH   1   2
HETATM    2  C           1     -20.651  -5.293  -8.255  0.00  0.00     0.083 C 
BRANCH   2   3
HETATM    3  C           1     -21.981  -4.676  -8.554  0.00  0.00    -0.028 A 
HETATM    4  C           1     -22.982  -4.424  -7.643  0.00  0.00     0.096 A 
HETATM    5  N           1     -24.029  -3.855  -8.319  0.00  0.00    -0.365 N 
HETATM    6  C           1     -23.723  -3.732  -9.655  0.00  0.00     0.042 A 
HETATM    7  H           1     -24.934  -3.555  -7.880  0.00  0.00     0.165 HD
HETATM    8  C           1     -24.480  -3.213 -10.713  0.00  0.00     0.030 A 
HETATM    9  C           1     -22.437  -4.242  -9.830  0.00  0.00    -0.002 A 
HETATM   10  C           1     -23.901  -3.218 -11.985  0.00  0.00     0.002 A 
HETATM   11  C           1     -22.618  -3.722 -12.190  0.00  0.00     0.001 A 
HETATM   12  C           1     -21.874  -4.237 -11.121  0.00  0.00     0.014 A 
ENDBRANCH   2   3
ENDBRANCH   1   2
BRANCH   1  13
HETATM   13  C           1     -20.259  -5.736  -5.851  0.00  0.00     0.249 C 
HETATM   14  N           1     -19.911  -7.042  -6.070  0.00  0.00    -0.345 N 
HETATM   15  H           1     -19.551  -7.324  -6.973  0.00  0.00     0.163 HD
HETATM   16  O           1     -20.689  -5.398  -4.774  0.00  0.00    -0.271 OA
BRANCH  14  17
HETATM   17  C           1     -20.059  -8.020  -5.010  0.00  0.00     0.185 C 
BRANCH  17  18
HETATM   18  C           1     -21.365  -8.782  -5.200  0.00  0.00     0.038 C 
BRANCH  18  19
HETATM   19  C           1     -21.778  -9.419  -3.879  0.00  0.00     0.030 C 
BRANCH  19  20
HETATM   20  C           1     -21.825 -10.933  -4.039  0.00  0.00     0.230 C 
BRANCH  20  21
HETATM   21  N           1     -20.555 -11.531  -3.510  0.00  0.00    -0.079 N 
HETATM   22  H           1     -20.629 -12.574  -3.526  0.00  0.00     0.274 HD
HETATM   23  H           1     -20.399 -11.209  -2.528  0.00  0.00     0.274 HD
HETATM   24  H           1     -19.753 -11.229  -4.107  0.00  0.00     0.274 HD
ENDBRANCH  20  21
ENDBRANCH  19  20
ENDBRANCH  18  19
ENDBRANCH  17  18
BRANCH  17  25
HETATM   25  C           1     -18.903  -8.988  -5.054  0.00  0.00     0.196 C 
HETATM   26  O           1     -18.252  -9.232  -4.015  0.00  0.00    -0.646 OA
HETATM   27  O           1     -18.594  -9.545  -6.129  0.00  0.00    -0.646 OA
ENDBRANCH  17  25
ENDBRANCH  14  17
ENDBRANCH   1  13
BRANCH   1  28
HETATM   28  N           1     -18.652  -4.385  -7.126  0.00  0.00    -0.066 N 
HETATM   29  H           1     -18.451  -4.218  -8.137  0.00  0.00     0.275 HD
HETATM   30  H           1     -18.069  -5.181  -6.783  0.00  0.00     0.275 HD
HETATM   31  H           1     -18.425  -3.525  -6.578  0.00  0.00     0.275 HD
ENDBRANCH   1  28
TORSDOF 10
ENDMDL
MODEL 8
REMARK VINA RESULT:      -6.6      3.133      8.689
REMARK  10 active torsions:
REMARK  status: ('A' for Active; 'I' for Inactive)
REMARK    1  A    between atoms: C_2  and  C_16 
REMARK    2  A    between atoms: C_2  and  C_9 
REMARK    3  A    between atoms: C_6  and  C_7 
REMARK    4  A    between atoms: C_7  and  C_8 
REMARK    5  A    between atoms: C_8  and  C_10 
REMARK    6  A    between atoms: C_8  and  N_23 
REMARK    7  A    between atoms: C_9  and  C_20 
REMARK       I    between atoms: C_10  and  N_15 
REMARK    8  A    between atoms: N_15  and  C_20 
REMARK    9  A    between atoms: C_16  and  N_17 
REMARK   10  A    between atoms: C_20  and  C_28 
ROOT
HETATM    1  C           1     -20.426  -6.301  -6.080  0.00  0.00     0.278 C 
ENDROOT
BRANCH   1   2
HETATM    2  C           1     -20.448  -4.812  -6.402  0.00  0.00     0.083 C 
BRANCH   2   3
HETATM    3  C           1     -21.545  -4.529  -7.379  0.00  0.00    -0.028 A 
HETATM    4  C           1     -22.886  -4.422  -7.086  0.00  0.00     0.096 A 
HETATM    5  N           1     -23.550  -4.158  -8.255  0.00  0.00    -0.365 N 
HETATM    6  C           1     -22.661  -4.090  -9.304  0.00  0.00     0.042 A 
HETATM    7  H           1     -24.588  -4.025  -8.338  0.00  0.00     0.165 HD
HETATM    8  C           1     -22.883  -3.845 -10.664  0.00  0.00     0.030 A 
HETATM    9  C           1     -21.389  -4.320  -8.778  0.00  0.00    -0.002 A 
HETATM   10  C           1     -21.770  -3.836 -11.509  0.00  0.00     0.002 A 
HETATM   11  C           1     -20.487  -4.063 -11.013  0.00  0.00     0.001 A 
HETATM   12  C           1     -20.283  -4.307  -9.649  0.00  0.00     0.014 A 
ENDBRANCH   2   3
ENDBRANCH   1   2
BRANCH   1  13
HETATM   13  C           1     -20.555  -6.496  -4.590  0.00  0.00     0.249 C 
HETATM   14  N           1     -20.355  -7.734  -4.041  0.00  0.00    -0.345 N 
HETATM   15  H           1     -20.121  -8.519  -4.636  0.00  0.00     0.163 HD
HETATM   16  O           1     -20.833  -5.559  -3.880  0.00  0.00    -0.271 OA
BRANCH  14  17
HETATM   17  C           1     -20.477  -7.921  -2.609  0.00  0.00     0.185 C 
BRANCH  17  18
HETATM   18  C           1     -21.947  -8.081  -2.241  0.00  0.00     0.038 C 
BRANCH  18  19
HETATM   19  C           1     -22.312  -7.074  -1.157  0.00  0.00     0.030 C 
BRANCH  19  20
HETATM   20  C           1     -22.798  -7.816   0.081  0.00  0.00     0.230 C 
BRANCH  20  21
HETATM   21  N           1     -21.622  -8.376   0.822  0.00  0.00    -0.079 N 
HETATM   22  H           1     -21.929  -9.195   1.395  0.00  0.00     0.274 HD
HETATM   23  H           1     -21.223  -7.642   1.452  0.00  0.00     0.274 HD
HETATM   24  H           1     -20.892  -8.682   0.140  0.00  0.00     0.274 HD
ENDBRANCH  20  21
ENDBRANCH  19  20
ENDBRANCH  18  19
ENDBRANCH  17  18
BRANCH  17  25
HETATM   25  C           1     -19.720  -9.159  -2.197  0.00  0.00     0.196 C 
HETATM   26  O           1     -20.253  -9.992  -1.431  0.00  0.00    -0.646 OA
HETATM   27  O           1     -18.559  -9.352  -2.619  0.00  0.00    -0.646 OA
ENDBRANCH  17  25
ENDBRANCH  14  17
ENDBRANCH   1  13
BRANCH   1  28
HETATM   28  N           1     -21.572  -6.979  -6.773  0.00  0.00    -0.066 N 
HETATM   29  H           1     -21.221  -7.820  -7.283  0.00  0.00     0.275 HD
HETATM   30  H           1     -22.008  -6.317  -7.453  0.00  0.00     0.275 HD
HETATM   31  H           1     -22.283  -7.270  -6.065  0.00  0.00     0.275 HD
ENDBRANCH   1  28
TORSDOF 10
ENDMDL
MODEL 9
REMARK VINA RESULT:      -6.6      2.502      8.265
REMARK  10 active torsions:
REMARK  status: ('A' for Active; 'I' for Inactive)
REMARK    1  A    between atoms: C_2  and  C_16 
REMARK    2  A    between atoms: C_2  and  C_9 
REMARK    3  A    between atoms: C_6  and  C_7 
REMARK    4  A    between atoms: C_7  and  C_8 
REMARK    5  A    between atoms: C_8  and  C_10 
REMARK    6  A    between atoms: C_8  and  N_23 
REMARK    7  A    between atoms: C_9  and  C_20 
REMARK       I    between atoms: C_10  and  N_15 
REMARK    8  A    between atoms: N_15  and  C_20 
REMARK    9  A    between atoms: C_16  and  N_17 
REMARK   10  A    between atoms: C_20  and  C_28 
ROOT
HETATM    1  C           1     -20.804  -5.146  -6.561  0.00  0.00     0.278 C 
ENDROOT
BRANCH   1   2
HETATM    2  C           1     -21.709  -4.077  -7.161  0.00  0.00     0.083 C 
BRANCH   2   3
HETATM    3  C           1     -21.428  -3.952  -8.626  0.00  0.00    -0.028 A 
HETATM    4  C           1     -20.190  -4.018  -9.225  0.00  0.00     0.096 A 
HETATM    5  N           1     -20.368  -3.858 -10.573  0.00  0.00    -0.365 N 
HETATM    6  C           1     -21.704  -3.690 -10.861  0.00  0.00     0.042 A 
HETATM    7  H           1     -19.597  -3.863 -11.285  0.00  0.00     0.165 HD
HETATM    8  C           1     -22.347  -3.494 -12.090  0.00  0.00     0.030 A 
HETATM    9  C           1     -22.394  -3.746  -9.650  0.00  0.00    -0.002 A 
HETATM   10  C           1     -23.738  -3.352 -12.075  0.00  0.00     0.002 A 
HETATM   11  C           1     -24.454  -3.403 -10.880  0.00  0.00     0.001 A 
HETATM   12  C           1     -23.795  -3.599  -9.661  0.00  0.00     0.014 A 
ENDBRANCH   2   3
ENDBRANCH   1   2
BRANCH   1  13
HETATM   13  C           1     -21.579  -5.948  -5.545  0.00  0.00     0.249 C 
HETATM   14  N           1     -20.922  -6.801  -4.699  0.00  0.00    -0.345 N 
HETATM   15  H           1     -19.915  -6.893  -4.756  0.00  0.00     0.163 HD
HETATM   16  O           1     -22.780  -5.838  -5.477  0.00  0.00    -0.271 OA
BRANCH  14  17
HETATM   17  C           1     -21.666  -7.571  -3.722  0.00  0.00     0.185 C 
BRANCH  17  18
HETATM   18  C           1     -21.095  -8.981  -3.645  0.00  0.00     0.038 C 
BRANCH  18  19
HETATM   19  C           1     -19.828  -9.063  -4.488  0.00  0.00     0.030 C 
BRANCH  19  20
HETATM   20  C           1     -18.644  -9.403  -3.593  0.00  0.00     0.230 C 
BRANCH  20  21
HETATM   21  N           1     -19.143  -9.830  -2.244  0.00  0.00    -0.079 N 
HETATM   22  H           1     -18.708 -10.745  -1.986  0.00  0.00     0.274 HD
HETATM   23  H           1     -20.183  -9.934  -2.272  0.00  0.00     0.274 HD
HETATM   24  H           1     -18.884  -9.109  -1.533  0.00  0.00     0.274 HD
ENDBRANCH  20  21
ENDBRANCH  19  20
ENDBRANCH  18  19
ENDBRANCH  17  18
BRANCH  17  25
HETATM   25  C           1     -21.557  -6.910  -2.371  0.00  0.00     0.196 C 
HETATM   26  O           1     -20.827  -7.411  -1.487  0.00  0.00    -0.646 OA
HETATM   27  O           1     -22.197  -5.863  -2.132  0.00  0.00    -0.646 OA
ENDBRANCH  17  25
ENDBRANCH  14  17
ENDBRANCH   1  13
BRANCH   1  28
HETATM   28  N           1     -20.316  -6.057  -7.649  0.00  0.00    -0.066 N 
HETATM   29  H           1     -21.132  -6.516  -8.110  0.00  0.00     0.275 HD
HETATM   30  H           1     -19.692  -6.787  -7.238  0.00  0.00     0.275 HD
HETATM   31  H           1     -19.783  -5.500  -8.355  0.00  0.00     0.275 HD
ENDBRANCH   1  28
TORSDOF 10
ENDMDL
