MODEL 1
REMARK VINA RESULT:      -7.6      0.000      0.000
REMARK  8 active torsions:
REMARK  status: ('A' for Active; 'I' for Inactive)
REMARK    1  A    between atoms: C_4  and  C_10 
REMARK    2  A    between atoms: C_10  and  C_25 
REMARK    3  A    between atoms: C_10  and  N_20 
REMARK    4  A    between atoms: S_12  and  C_25 
REMARK    5  A    between atoms: N_15  and  C_26 
REMARK       I    between atoms: N_20  and  C_21 
REMARK    6  A    between atoms: C_21  and  C_26 
REMARK    7  A    between atoms: C_23  and  C_24 
REMARK    8  A    between atoms: C_24  and  C_26 
ROOT
HETATM    1  C           1     -21.019  -5.417  -6.589  0.00  0.00     0.278 C 
ENDROOT
BRANCH   1   2
HETATM    2  N           1     -19.905  -4.820  -5.780  0.00  0.00    -0.066 N 
HETATM    3  H           1     -19.711  -5.429  -4.953  0.00  0.00     0.275 HD
HETATM    4  H           1     -20.185  -3.866  -5.454  0.00  0.00     0.275 HD
HETATM    5  H           1     -19.046  -4.747  -6.370  0.00  0.00     0.275 HD
ENDBRANCH   1   2
BRANCH   1   6
HETATM    6  C           1     -21.556  -4.381  -7.546  0.00  0.00     0.249 C 
HETATM    7  O           1     -21.462  -3.206  -7.281  0.00  0.00    -0.271 OA
HETATM    8  N           1     -22.150  -4.773  -8.716  0.00  0.00    -0.344 N 
HETATM    9  H           1     -22.227  -5.756  -8.940  0.00  0.00     0.163 HD
BRANCH   8  10
HETATM   10  C           1     -22.666  -3.777  -9.636  0.00  0.00     0.194 C 
BRANCH  10  11
HETATM   11  C           1     -24.173  -3.860  -9.671  0.00  0.00     0.197 C 
HETATM   12  O           1     -24.733  -4.938  -9.963  0.00  0.00    -0.646 OA
HETATM   13  O           1     -24.860  -2.849  -9.410  0.00  0.00    -0.646 OA
ENDBRANCH  10  11
BRANCH  10  14
HETATM   14  C           1     -22.111  -4.037 -11.031  0.00  0.00     0.106 C 
BRANCH  14  15
HETATM   15  S           1     -22.735  -2.775 -12.176  0.00  0.00    -0.180 SA
HETATM   16  H           1     -23.958  -2.679 -11.625  0.00  0.00     0.101 HD
ENDBRANCH  14  15
ENDBRANCH  10  14
ENDBRANCH   8  10
ENDBRANCH   1   6
BRANCH   1  17
HETATM   17  C           1     -22.133  -5.873  -5.658  0.00  0.00     0.083 C 
BRANCH  17  18
HETATM   18  C           1     -21.640  -7.000  -4.803  0.00  0.00    -0.028 A 
HETATM   19  C           1     -21.022  -8.145  -5.249  0.00  0.00     0.096 A 
HETATM   20  N           1     -20.729  -8.916  -4.155  0.00  0.00    -0.365 N 
HETATM   21  H           1     -20.253  -9.851  -4.189  0.00  0.00     0.165 HD
HETATM   22  C           1     -21.149  -8.288  -3.004  0.00  0.00     0.042 A 
HETATM   23  C           1     -21.061  -8.695  -1.668  0.00  0.00     0.030 A 
HETATM   24  C           1     -21.726  -7.077  -3.385  0.00  0.00    -0.002 A 
HETATM   25  C           1     -21.582  -7.836  -0.694  0.00  0.00     0.002 A 
HETATM   26  C           1     -22.165  -6.621  -1.046  0.00  0.00     0.001 A 
HETATM   27  C           1     -22.244  -6.228  -2.388  0.00  0.00     0.014 A 
ENDBRANCH  17  18
ENDBRANCH   1  17
TORSDOF 8
ENDMDL
MODEL 2
REMARK VINA RESULT:      -7.2      3.439      7.765
REMARK  8 active torsions:
REMARK  status: ('A' for Active; 'I' for Inactive)
REMARK    1  A    between atoms: C_4  and  C_10 
REMARK    2  A    between atoms: C_10  and  C_25 
REMARK    3  A    between atoms: C_10  and  N_20 
REMARK    4  A    between atoms: S_12  and  C_25 
REMARK    5  A    between atoms: N_15  and  C_26 
REMARK       I    between atoms: N_20  and  C_21 
REMARK    6  A    between atoms: C_21  and  C_26 
REMARK    7  A    between atoms: C_23  and  C_24 
REMARK    8  A    between atoms: C_24  and  C_26 
ROOT
HETATM    1  C           1     -20.551  -4.844  -6.805  0.00  0.00     0.278 C 
ENDROOT
BRANCH   1   2
HETATM    2  N           1     -19.113  -4.511  -6.534  0.00  0.00    -0.066 N 
HETATM    3  H           1     -18.578  -5.393  -6.365  0.00  0.00     0.275 HD
HETATM    4  H           1     -19.051  -3.897  -5.690  0.00  0.00     0.275 HD
HETATM    5  H           1     -18.710  -4.011  -7.358  0.00  0.00     0.275 HD
ENDBRANCH   1   2
BRANCH   1   6
HETATM    6  C           1     -20.933  -6.084  -6.036  0.00  0.00     0.249 C 
HETATM    7  O           1     -21.234  -7.094  -6.627  0.00  0.00    -0.271 OA
HETATM    8  N           1     -20.938  -6.066  -4.666  0.00  0.00    -0.344 N 
HETATM    9  H           1     -20.685  -5.222  -4.171  0.00  0.00     0.163 HD
BRANCH   8  10
HETATM   10  C           1     -21.305  -7.259  -3.927  0.00  0.00     0.194 C 
BRANCH  10  11
HETATM   11  C           1     -21.662  -6.882  -2.510  0.00  0.00     0.197 C 
HETATM   12  O           1     -21.153  -7.502  -1.552  0.00  0.00    -0.646 OA
HETATM   13  O           1     -22.467  -5.949  -2.295  0.00  0.00    -0.646 OA
ENDBRANCH  10  11
BRANCH  10  14
HETATM   14  C           1     -20.132  -8.230  -3.913  0.00  0.00     0.106 C 
BRANCH  14  15
HETATM   15  S           1     -20.718  -9.896  -4.332  0.00  0.00    -0.180 SA
HETATM   16  H           1     -21.788  -9.493  -5.041  0.00  0.00     0.101 HD
ENDBRANCH  14  15
ENDBRANCH  10  14
ENDBRANCH   8  10
ENDBRANCH   1   6
BRANCH   1  17
HETATM   17  C           1     -20.742  -5.090  -8.295  0.00  0.00     0.083 C 
BRANCH  17  18
HETATM   18  C           1     -22.050  -4.508  -8.734  0.00  0.00    -0.028 A 
HETATM   19  C           1     -23.151  -4.294  -7.937  0.00  0.00     0.096 A 
HETATM   20  N           1     -24.135  -3.748  -8.719  0.00  0.00    -0.365 N 
HETATM   21  H           1     -25.091  -3.478  -8.380  0.00  0.00     0.165 HD
HETATM   22  C           1     -23.689  -3.604 -10.013  0.00  0.00     0.042 A 
HETATM   23  C           1     -24.339  -3.095 -11.143  0.00  0.00     0.030 A 
HETATM   24  C           1     -22.376  -4.075 -10.049  0.00  0.00    -0.002 A 
HETATM   25  C           1     -23.625  -3.071 -12.346  0.00  0.00     0.002 A 
HETATM   26  C           1     -22.313  -3.536 -12.411  0.00  0.00     0.001 A 
HETATM   27  C           1     -21.676  -4.041 -11.271  0.00  0.00     0.014 A 
ENDBRANCH  17  18
ENDBRANCH   1  17
TORSDOF 8
ENDMDL
MODEL 3
REMARK VINA RESULT:      -7.2      4.090      7.798
REMARK  8 active torsions:
REMARK  status: ('A' for Active; 'I' for Inactive)
REMARK    1  A    between atoms: C_4  and  C_10 
REMARK    2  A    between atoms: C_10  and  C_25 
REMARK    3  A    between atoms: C_10  and  N_20 
REMARK    4  A    between atoms: S_12  and  C_25 
REMARK    5  A    between atoms: N_15  and  C_26 
REMARK       I    between atoms: N_20  and  C_21 
REMARK    6  A    between atoms: C_21  and  C_26 
REMARK    7  A    between atoms: C_23  and  C_24 
REMARK    8  A    between atoms: C_24  and  C_26 
ROOT
HETATM    1  C           1     -20.806  -5.411  -6.162  0.00  0.00     0.278 C 
ENDROOT
BRANCH   1   2
HETATM    2  N           1     -20.137  -4.407  -5.270  0.00  0.00    -0.066 N 
HETATM    3  H           1     -20.173  -4.742  -4.281  0.00  0.00     0.275 HD
HETATM    4  H           1     -20.632  -3.489  -5.347  0.00  0.00     0.275 HD
HETATM    5  H           1     -19.140  -4.290  -5.562  0.00  0.00     0.275 HD
ENDBRANCH   1   2
BRANCH   1   6
HETATM    6  C           1     -20.207  -6.775  -5.921  0.00  0.00     0.249 C 
HETATM    7  O           1     -19.370  -7.210  -6.676  0.00  0.00    -0.271 OA
HETATM    8  N           1     -20.613  -7.520  -4.846  0.00  0.00    -0.344 N 
HETATM    9  H           1     -21.313  -7.156  -4.213  0.00  0.00     0.163 HD
BRANCH   8  10
HETATM   10  C           1     -20.038  -8.831  -4.615  0.00  0.00     0.194 C 
BRANCH  10  11
HETATM   11  C           1     -21.043  -9.894  -4.988  0.00  0.00     0.197 C 
HETATM   12  O           1     -21.889 -10.275  -4.151  0.00  0.00    -0.646 OA
HETATM   13  O           1     -21.029 -10.394  -6.134  0.00  0.00    -0.646 OA
ENDBRANCH  10  11
BRANCH  10  14
HETATM   14  C           1     -19.673  -8.974  -3.143  0.00  0.00     0.106 C 
BRANCH  14  15
HETATM   15  S           1     -18.080  -9.832  -2.994  0.00  0.00    -0.180 SA
HETATM   16  H           1     -18.430 -10.596  -1.944  0.00  0.00     0.101 HD
ENDBRANCH  14  15
ENDBRANCH  10  14
ENDBRANCH   8  10
ENDBRANCH   1   6
BRANCH   1  17
HETATM   17  C           1     -20.596  -5.015  -7.617  0.00  0.00     0.083 C 
BRANCH  17  18
HETATM   18  C           1     -21.887  -4.517  -8.190  0.00  0.00    -0.028 A 
HETATM   19  C           1     -23.080  -4.395  -7.515  0.00  0.00     0.096 A 
HETATM   20  N           1     -24.010  -3.905  -8.395  0.00  0.00    -0.365 N 
HETATM   21  H           1     -25.014  -3.709  -8.159  0.00  0.00     0.165 HD
HETATM   22  C           1     -23.438  -3.707  -9.631  0.00  0.00     0.042 A 
HETATM   23  C           1     -23.998  -3.226 -10.820  0.00  0.00     0.030 A 
HETATM   24  C           1     -22.099  -4.085  -9.529  0.00  0.00    -0.002 A 
HETATM   25  C           1     -23.162  -3.131 -11.937  0.00  0.00     0.002 A 
HETATM   26  C           1     -21.821  -3.501 -11.864  0.00  0.00     0.001 A 
HETATM   27  C           1     -21.276  -3.980 -10.666  0.00  0.00     0.014 A 
ENDBRANCH  17  18
ENDBRANCH   1  17
TORSDOF 8
ENDMDL
MODEL 4
REMARK VINA RESULT:      -6.5      4.372      7.542
REMARK  8 active torsions:
REMARK  status: ('A' for Active; 'I' for Inactive)
REMARK    1  A    between atoms: C_4  and  C_10 
REMARK    2  A    between atoms: C_10  and  C_25 
REMARK    3  A    between atoms: C_10  and  N_20 
REMARK    4  A    between atoms: S_12  and  C_25 
REMARK    5  A    between atoms: N_15  and  C_26 
REMARK       I    between atoms: N_20  and  C_21 
REMARK    6  A    between atoms: C_21  and  C_26 
REMARK    7  A    between atoms: C_23  and  C_24 
REMARK    8  A    between atoms: C_24  and  C_26 
ROOT
HETATM    1  C           1     -21.757  -6.755  -5.030  0.00  0.00     0.278 C 
ENDROOT
BRANCH   1   2
HETATM    2  N           1     -22.261  -6.045  -3.808  0.00  0.00    -0.066 N 
HETATM    3  H           1     -23.233  -6.365  -3.596  0.00  0.00     0.275 HD
HETATM    4  H           1     -22.262  -5.014  -3.981  0.00  0.00     0.275 HD
HETATM    5  H           1     -21.638  -6.261  -2.998  0.00  0.00     0.275 HD
ENDBRANCH   1   2
BRANCH   1   6
HETATM    6  C           1     -20.903  -7.927  -4.614  0.00  0.00     0.249 C 
HETATM    7  O           1     -20.539  -8.033  -3.467  0.00  0.00    -0.271 OA
HETATM    8  N           1     -20.539  -8.871  -5.537  0.00  0.00    -0.344 N 
HETATM    9  H           1     -20.844  -8.784  -6.497  0.00  0.00     0.163 HD
BRANCH   8  10
HETATM   10  C           1     -19.718  -9.997  -5.136  0.00  0.00     0.194 C 
BRANCH  10  11
HETATM   11  C           1     -18.270  -9.696  -5.439  0.00  0.00     0.197 C 
HETATM   12  O           1     -17.402  -9.847  -4.553  0.00  0.00    -0.646 OA
HETATM   13  O           1     -17.940  -9.294  -6.576  0.00  0.00    -0.646 OA
ENDBRANCH  10  11
BRANCH  10  14
HETATM   14  C           1     -20.148 -11.240  -5.906  0.00  0.00     0.106 C 
BRANCH  14  15
HETATM   15  S           1     -21.624 -11.953  -5.127  0.00  0.00    -0.180 SA
HETATM   16  H           1     -22.516 -11.292  -5.887  0.00  0.00     0.101 HD
ENDBRANCH  14  15
ENDBRANCH  10  14
ENDBRANCH   8  10
ENDBRANCH   1   6
BRANCH   1  17
HETATM   17  C           1     -20.927  -5.794  -5.868  0.00  0.00     0.083 C 
BRANCH  17  18
HETATM   18  C           1     -21.804  -5.130  -6.884  0.00  0.00    -0.028 A 
HETATM   19  C           1     -23.124  -4.782  -6.712  0.00  0.00     0.096 A 
HETATM   20  N           1     -23.559  -4.201  -7.874  0.00  0.00    -0.365 N 
HETATM   21  H           1     -24.529  -3.834  -8.036  0.00  0.00     0.165 HD
HETATM   22  C           1     -22.541  -4.167  -8.800  0.00  0.00     0.042 A 
HETATM   23  C           1     -22.523  -3.671 -10.108  0.00  0.00     0.030 A 
HETATM   24  C           1     -21.422  -4.746  -8.200  0.00  0.00    -0.002 A 
HETATM   25  C           1     -21.326  -3.774 -10.824  0.00  0.00     0.002 A 
HETATM   26  C           1     -20.194  -4.348 -10.250  0.00  0.00     0.001 A 
HETATM   27  C           1     -20.228  -4.839  -8.939  0.00  0.00     0.014 A 
ENDBRANCH  17  18
ENDBRANCH   1  17
TORSDOF 8
ENDMDL
MODEL 5
REMARK VINA RESULT:      -6.4      3.762      7.779
REMARK  8 active torsions:
REMARK  status: ('A' for Active; 'I' for Inactive)
REMARK    1  A    between atoms: C_4  and  C_10 
REMARK    2  A    between atoms: C_10  and  C_25 
REMARK    3  A    between atoms: C_10  and  N_20 
REMARK    4  A    between atoms: S_12  and  C_25 
REMARK    5  A    between atoms: N_15  and  C_26 
REMARK       I    between atoms: N_20  and  C_21 
REMARK    6  A    between atoms: C_21  and  C_26 
REMARK    7  A    between atoms: C_23  and  C_24 
REMARK    8  A    between atoms: C_24  and  C_26 
ROOT
HETATM    1  C           1     -21.010  -5.900  -5.737  0.00  0.00     0.278 C 
ENDROOT
BRANCH   1   2
HETATM    2  N           1     -20.396  -6.958  -6.607  0.00  0.00    -0.066 N 
HETATM    3  H           1     -21.107  -7.696  -6.811  0.00  0.00     0.275 HD
HETATM    4  H           1     -19.580  -7.385  -6.112  0.00  0.00     0.275 HD
HETATM    5  H           1     -20.073  -6.528  -7.503  0.00  0.00     0.275 HD
ENDBRANCH   1   2
BRANCH   1   6
HETATM    6  C           1     -21.816  -6.556  -4.643  0.00  0.00     0.249 C 
HETATM    7  O           1     -23.023  -6.537  -4.688  0.00  0.00    -0.271 OA
HETATM    8  N           1     -21.179  -7.172  -3.599  0.00  0.00    -0.344 N 
HETATM    9  H           1     -20.168  -7.189  -3.562  0.00  0.00     0.163 HD
BRANCH   8  10
HETATM   10  C           1     -21.954  -7.802  -2.548  0.00  0.00     0.194 C 
BRANCH  10  11
HETATM   11  C           1     -22.124  -6.835  -1.401  0.00  0.00     0.197 C 
HETATM   12  O           1     -22.036  -5.605  -1.602  0.00  0.00    -0.646 OA
HETATM   13  O           1     -22.352  -7.265  -0.249  0.00  0.00    -0.646 OA
ENDBRANCH  10  11
BRANCH  10  14
HETATM   14  C           1     -21.227  -9.048  -2.057  0.00  0.00     0.106 C 
BRANCH  14  15
HETATM   15  S           1     -19.567  -9.107  -2.786  0.00  0.00    -0.180 SA
HETATM   16  H           1     -18.930  -9.462  -1.656  0.00  0.00     0.101 HD
ENDBRANCH  14  15
ENDBRANCH  10  14
ENDBRANCH   8  10
ENDBRANCH   1   6
BRANCH   1  17
HETATM   17  C           1     -21.920  -5.017  -6.579  0.00  0.00     0.083 C 
BRANCH  17  18
HETATM   18  C           1     -21.177  -4.546  -7.791  0.00  0.00    -0.028 A 
HETATM   19  C           1     -19.874  -4.107  -7.824  0.00  0.00     0.096 A 
HETATM   20  N           1     -19.578  -3.770  -9.119  0.00  0.00    -0.365 N 
HETATM   21  H           1     -18.651  -3.402  -9.447  0.00  0.00     0.165 HD
HETATM   22  C           1     -20.671  -3.984  -9.928  0.00  0.00     0.042 A 
HETATM   23  C           1     -20.830  -3.785 -11.304  0.00  0.00     0.030 A 
HETATM   24  C           1     -21.693  -4.475  -9.115  0.00  0.00    -0.002 A 
HETATM   25  C           1     -22.075  -4.096 -11.863  0.00  0.00     0.002 A 
HETATM   26  C           1     -23.113  -4.587 -11.075  0.00  0.00     0.001 A 
HETATM   27  C           1     -22.937  -4.781  -9.700  0.00  0.00     0.014 A 
ENDBRANCH  17  18
ENDBRANCH   1  17
TORSDOF 8
ENDMDL
MODEL 6
REMARK VINA RESULT:      -6.4      1.634      2.283
REMARK  8 active torsions:
REMARK  status: ('A' for Active; 'I' for Inactive)
REMARK    1  A    between atoms: C_4  and  C_10 
REMARK    2  A    between atoms: C_10  and  C_25 
REMARK    3  A    between atoms: C_10  and  N_20 
REMARK    4  A    between atoms: S_12  and  C_25 
REMARK    5  A    between atoms: N_15  and  C_26 
REMARK       I    between atoms: N_20  and  C_21 
REMARK    6  A    between atoms: C_21  and  C_26 
REMARK    7  A    between atoms: C_23  and  C_24 
REMARK    8  A    between atoms: C_24  and  C_26 
ROOT
HETATM    1  C           1     -22.394  -5.006  -6.195  0.00  0.00     0.278 C 
ENDROOT
BRANCH   1   2
HETATM    2  N           1     -23.810  -5.479  -6.050  0.00  0.00    -0.066 N 
HETATM    3  H           1     -23.819  -6.517  -5.927  0.00  0.00     0.275 HD
HETATM    4  H           1     -24.352  -5.224  -6.907  0.00  0.00     0.275 HD
HETATM    5  H           1     -24.245  -5.025  -5.216  0.00  0.00     0.275 HD
ENDBRANCH   1   2
BRANCH   1   6
HETATM    6  C           1     -22.237  -4.288  -7.513  0.00  0.00     0.249 C 
HETATM    7  O           1     -21.229  -3.664  -7.745  0.00  0.00    -0.271 OA
HETATM    8  N           1     -23.238  -4.343  -8.446  0.00  0.00    -0.344 N 
HETATM    9  H           1     -24.082  -4.867  -8.252  0.00  0.00     0.163 HD
BRANCH   8  10
HETATM   10  C           1     -23.087  -3.653  -9.712  0.00  0.00     0.194 C 
BRANCH  10  11
HETATM   11  C           1     -24.449  -3.275 -10.244  0.00  0.00     0.197 C 
HETATM   12  O           1     -24.706  -3.414 -11.459  0.00  0.00    -0.646 OA
HETATM   13  O           1     -25.320  -2.824  -9.468  0.00  0.00    -0.646 OA
ENDBRANCH  10  11
BRANCH  10  14
HETATM   14  C           1     -22.390  -4.568 -10.711  0.00  0.00     0.106 C 
BRANCH  14  15
HETATM   15  S           1     -20.891  -3.754 -11.333  0.00  0.00    -0.180 SA
HETATM   16  H           1     -20.961  -4.263 -12.576  0.00  0.00     0.101 HD
ENDBRANCH  14  15
ENDBRANCH  10  14
ENDBRANCH   8  10
ENDBRANCH   1   6
BRANCH   1  17
HETATM   17  C           1     -21.453  -6.203  -6.154  0.00  0.00     0.083 C 
BRANCH  17  18
HETATM   18  C           1     -21.415  -6.761  -4.765  0.00  0.00    -0.028 A 
HETATM   19  C           1     -21.383  -6.031  -3.599  0.00  0.00     0.096 A 
HETATM   20  N           1     -21.354  -6.915  -2.552  0.00  0.00    -0.365 N 
HETATM   21  H           1     -21.327  -6.645  -1.538  0.00  0.00     0.165 HD
HETATM   22  C           1     -21.368  -8.209  -3.022  0.00  0.00     0.042 A 
HETATM   23  C           1     -21.351  -9.424  -2.327  0.00  0.00     0.030 A 
HETATM   24  C           1     -21.407  -8.140  -4.415  0.00  0.00    -0.002 A 
HETATM   25  C           1     -21.373 -10.602  -3.082  0.00  0.00     0.002 A 
HETATM   26  C           1     -21.411 -10.562  -4.474  0.00  0.00     0.001 A 
HETATM   27  C           1     -21.428  -9.338  -5.154  0.00  0.00     0.014 A 
ENDBRANCH  17  18
ENDBRANCH   1  17
TORSDOF 8
ENDMDL
MODEL 7
REMARK VINA RESULT:      -6.3      4.262      7.976
REMARK  8 active torsions:
REMARK  status: ('A' for Active; 'I' for Inactive)
REMARK    1  A    between atoms: C_4  and  C_10 
REMARK    2  A    between atoms: C_10  and  C_25 
REMARK    3  A    between atoms: C_10  and  N_20 
REMARK    4  A    between atoms: S_12  and  C_25 
REMARK    5  A    between atoms: N_15  and  C_26 
REMARK       I    between atoms: N_20  and  C_21 
REMARK    6  A    between atoms: C_21  and  C_26 
REMARK    7  A    between atoms: C_23  and  C_24 
REMARK    8  A    between atoms: C_24  and  C_26 
ROOT
HETATM    1  C           1     -20.922  -6.498  -5.280  0.00  0.00     0.278 C 
ENDROOT
BRANCH   1   2
HETATM    2  N           1     -20.601  -7.695  -6.126  0.00  0.00    -0.066 N 
HETATM    3  H           1     -21.443  -8.311  -6.191  0.00  0.00     0.275 HD
HETATM    4  H           1     -19.813  -8.227  -5.691  0.00  0.00     0.275 HD
HETATM    5  H           1     -20.323  -7.382  -7.083  0.00  0.00     0.275 HD
ENDBRANCH   1   2
BRANCH   1   6
HETATM    6  C           1     -21.687  -6.939  -4.056  0.00  0.00     0.249 C 
HETATM    7  O           1     -22.589  -6.257  -3.629  0.00  0.00    -0.271 OA
HETATM    8  N           1     -21.359  -8.111  -3.429  0.00  0.00    -0.344 N 
HETATM    9  H           1     -20.605  -8.682  -3.787  0.00  0.00     0.163 HD
BRANCH   8  10
HETATM   10  C           1     -22.094  -8.534  -2.252  0.00  0.00     0.194 C 
BRANCH  10  11
HETATM   11  C           1     -21.528  -7.846  -1.033  0.00  0.00     0.197 C 
HETATM   12  O           1     -22.202  -6.980  -0.436  0.00  0.00    -0.646 OA
HETATM   13  O           1     -20.386  -8.143  -0.621  0.00  0.00    -0.646 OA
ENDBRANCH  10  11
BRANCH  10  14
HETATM   14  C           1     -21.966 -10.043  -2.088  0.00  0.00     0.106 C 
BRANCH  14  15
HETATM   15  S           1     -23.127 -10.614  -0.816  0.00  0.00    -0.180 SA
HETATM   16  H           1     -22.430 -11.712  -0.473  0.00  0.00     0.101 HD
ENDBRANCH  14  15
ENDBRANCH  10  14
ENDBRANCH   8  10
ENDBRANCH   1   6
BRANCH   1  17
HETATM   17  C           1     -21.770  -5.523  -6.085  0.00  0.00     0.083 C 
BRANCH  17  18
HETATM   18  C           1     -20.952  -4.955  -7.203  0.00  0.00    -0.028 A 
HETATM   19  C           1     -19.625  -4.599  -7.137  0.00  0.00     0.096 A 
HETATM   20  N           1     -19.256  -4.125  -8.369  0.00  0.00    -0.365 N 
HETATM   21  H           1     -18.297  -3.779  -8.617  0.00  0.00     0.165 HD
HETATM   22  C           1     -20.325  -4.168  -9.235  0.00  0.00     0.042 A 
HETATM   23  C           1     -20.417  -3.791 -10.580  0.00  0.00     0.030 A 
HETATM   24  C           1     -21.407  -4.688  -8.524  0.00  0.00    -0.002 A 
HETATM   25  C           1     -21.653  -3.951 -11.214  0.00  0.00     0.002 A 
HETATM   26  C           1     -22.751  -4.468 -10.529  0.00  0.00     0.001 A 
HETATM   27  C           1     -22.642  -4.840  -9.184  0.00  0.00     0.014 A 
ENDBRANCH  17  18
ENDBRANCH   1  17
TORSDOF 8
ENDMDL
MODEL 8
REMARK VINA RESULT:      -6.2      2.490      3.443
REMARK  8 active torsions:
REMARK  status: ('A' for Active; 'I' for Inactive)
REMARK    1  A    between atoms: C_4  and  C_10 
REMARK    2  A    between atoms: C_10  and  C_25 
REMARK    3  A    between atoms: C_10  and  N_20 
REMARK    4  A    between atoms: S_12  and  C_25 
REMARK    5  A    between atoms: N_15  and  C_26 
REMARK       I    between atoms: N_20  and  C_21 
REMARK    6  A    between atoms: C_21  and  C_26 
REMARK    7  A    between atoms: C_23  and  C_24 
REMARK    8  A    between atoms: C_24  and  C_26 
ROOT
HETATM    1  C           1     -21.132  -7.102  -4.222  0.00  0.00     0.278 C 
ENDROOT
BRANCH   1   2
HETATM    2  N           1     -21.702  -5.970  -3.419  0.00  0.00    -0.066 N 
HETATM    3  H           1     -22.127  -5.266  -4.064  0.00  0.00     0.275 HD
HETATM    4  H           1     -20.940  -5.520  -2.862  0.00  0.00     0.275 HD
HETATM    5  H           1     -22.435  -6.336  -2.771  0.00  0.00     0.275 HD
ENDBRANCH   1   2
BRANCH   1   6
HETATM    6  C           1     -21.220  -6.770  -5.691  0.00  0.00     0.249 C 
HETATM    7  O           1     -21.238  -7.657  -6.511  0.00  0.00    -0.271 OA
HETATM    8  N           1     -21.279  -5.463  -6.095  0.00  0.00    -0.344 N 
HETATM    9  H           1     -21.265  -4.720  -5.408  0.00  0.00     0.163 HD
BRANCH   8  10
HETATM   10  C           1     -21.363  -5.144  -7.507  0.00  0.00     0.194 C 
BRANCH  10  11
HETATM   11  C           1     -19.995  -4.761  -8.018  0.00  0.00     0.197 C 
HETATM   12  O           1     -19.806  -4.610  -9.244  0.00  0.00    -0.646 OA
HETATM   13  O           1     -19.051  -4.595  -7.214  0.00  0.00    -0.646 OA
ENDBRANCH  10  11
BRANCH  10  14
HETATM   14  C           1     -22.324  -3.979  -7.709  0.00  0.00     0.106 C 
BRANCH  14  15
HETATM   15  S           1     -23.297  -4.250  -9.216  0.00  0.00    -0.180 SA
HETATM   16  H           1     -24.479  -3.888  -8.688  0.00  0.00     0.101 HD
ENDBRANCH  14  15
ENDBRANCH  10  14
ENDBRANCH   8  10
ENDBRANCH   1   6
BRANCH   1  17
HETATM   17  C           1     -21.923  -8.372  -3.940  0.00  0.00     0.083 C 
BRANCH  17  18
HETATM   18  C           1     -21.276  -9.125  -2.819  0.00  0.00    -0.028 A 
HETATM   19  C           1     -20.420 -10.195  -2.950  0.00  0.00     0.096 A 
HETATM   20  N           1     -20.053 -10.593  -1.691  0.00  0.00    -0.365 N 
HETATM   21  H           1     -19.404 -11.390  -1.478  0.00  0.00     0.165 HD
HETATM   22  C           1     -20.658  -9.797  -0.744  0.00  0.00     0.042 A 
HETATM   23  C           1     -20.577  -9.832   0.653  0.00  0.00     0.030 A 
HETATM   24  C           1     -21.434  -8.863  -1.430  0.00  0.00    -0.002 A 
HETATM   25  C           1     -21.315  -8.882   1.367  0.00  0.00     0.002 A 
HETATM   26  C           1     -22.099  -7.937   0.709  0.00  0.00     0.001 A 
HETATM   27  C           1     -22.169  -7.916  -0.690  0.00  0.00     0.014 A 
ENDBRANCH  17  18
ENDBRANCH   1  17
TORSDOF 8
ENDMDL
MODEL 9
REMARK VINA RESULT:      -6.1      4.255      7.635
REMARK  8 active torsions:
REMARK  status: ('A' for Active; 'I' for Inactive)
REMARK    1  A    between atoms: C_4  and  C_10 
REMARK    2  A    between atoms: C_10  and  C_25 
REMARK    3  A    between atoms: C_10  and  N_20 
REMARK    4  A    between atoms: S_12  and  C_25 
REMARK    5  A    between atoms: N_15  and  C_26 
REMARK       I    between atoms: N_20  and  C_21 
REMARK    6  A    between atoms: C_21  and  C_26 
REMARK    7  A    between atoms: C_23  and  C_24 
REMARK    8  A    between atoms: C_24  and  C_26 
ROOT
HETATM    1  C           1     -21.855  -6.569  -5.431  0.00  0.00     0.278 C 
ENDROOT
BRANCH   1   2
HETATM    2  N           1     -22.976  -6.236  -4.491  0.00  0.00    -0.066 N 
HETATM    3  H           1     -23.146  -5.205  -4.503  0.00  0.00     0.275 HD
HETATM    4  H           1     -22.719  -6.537  -3.523  0.00  0.00     0.275 HD
HETATM    5  H           1     -23.843  -6.736  -4.792  0.00  0.00     0.275 HD
ENDBRANCH   1   2
BRANCH   1   6
HETATM    6  C           1     -21.204  -7.859  -4.999  0.00  0.00     0.249 C 
HETATM    7  O           1     -21.105  -8.777  -5.778  0.00  0.00    -0.271 OA
HETATM    8  N           1     -20.725  -7.991  -3.723  0.00  0.00    -0.344 N 
HETATM    9  H           1     -20.807  -7.222  -3.070  0.00  0.00     0.163 HD
BRANCH   8  10
HETATM   10  C           1     -20.100  -9.232  -3.308  0.00  0.00     0.194 C 
BRANCH  10  11
HETATM   11  C           1     -20.387  -9.475  -1.846  0.00  0.00     0.197 C 
HETATM   12  O           1     -20.371 -10.639  -1.391  0.00  0.00    -0.646 OA
HETATM   13  O           1     -20.642  -8.512  -1.090  0.00  0.00    -0.646 OA
ENDBRANCH  10  11
BRANCH  10  14
HETATM   14  C           1     -18.594  -9.138  -3.519  0.00  0.00     0.106 C 
BRANCH  14  15
HETATM   15  S           1     -18.014 -10.609  -4.410  0.00  0.00    -0.180 SA
HETATM   16  H           1     -19.236 -11.057  -4.750  0.00  0.00     0.101 HD
ENDBRANCH  14  15
ENDBRANCH  10  14
ENDBRANCH   8  10
ENDBRANCH   1   6
BRANCH   1  17
HETATM   17  C           1     -20.825  -5.448  -5.407  0.00  0.00     0.083 C 
BRANCH  17  18
HETATM   18  C           1     -20.565  -4.979  -6.805  0.00  0.00    -0.028 A 
HETATM   19  C           1     -19.334  -4.877  -7.410  0.00  0.00     0.096 A 
HETATM   20  N           1     -19.531  -4.410  -8.684  0.00  0.00    -0.365 N 
HETATM   21  H           1     -18.768  -4.233  -9.384  0.00  0.00     0.165 HD
HETATM   22  C           1     -20.873  -4.208  -8.915  0.00  0.00     0.042 A 
HETATM   23  C           1     -21.535  -3.747 -10.059  0.00  0.00     0.030 A 
HETATM   24  C           1     -21.547  -4.560  -7.746  0.00  0.00    -0.002 A 
HETATM   25  C           1     -22.929  -3.641 -10.001  0.00  0.00     0.002 A 
HETATM   26  C           1     -23.628  -3.985  -8.847  0.00  0.00     0.001 A 
HETATM   27  C           1     -22.951  -4.445  -7.711  0.00  0.00     0.014 A 
ENDBRANCH  17  18
ENDBRANCH   1  17
TORSDOF 8
ENDMDL
