MODEL 1
REMARK VINA RESULT:      -7.9      0.000      0.000
REMARK  11 active torsions:
REMARK  status: ('A' for Active; 'I' for Inactive)
REMARK    1  A    between atoms: N_5  and  C_18 
REMARK    2  A    between atoms: O_10  and  P_11 
REMARK    3  A    between atoms: P_11  and  O_12 
REMARK    4  A    between atoms: O_12  and  C_13 
REMARK    5  A    between atoms: C_16  and  C_17 
REMARK    6  A    between atoms: C_17  and  C_18 
REMARK    7  A    between atoms: C_18  and  C_19 
REMARK       I    between atoms: C_19  and  N_20 
REMARK    8  A    between atoms: N_20  and  C_24 
REMARK    9  A    between atoms: C_23  and  C_24 
REMARK   10  A    between atoms: C_24  and  C_25 
REMARK   11  A    between atoms: C_25  and  C_27 
REMARK       I    between atoms: N_26  and  C_27 
ROOT
HETATM    1  C           1     -21.026  -4.972  -6.251  0.00  0.00     0.278 C 
ENDROOT
BRANCH   1   2
HETATM    2  N           1     -19.765  -4.486  -5.599  0.00  0.00    -0.066 N 
HETATM    3  H           1     -19.979  -3.660  -4.997  0.00  0.00     0.275 HD
HETATM    4  H           1     -19.361  -5.250  -5.011  0.00  0.00     0.275 HD
HETATM    5  H           1     -19.075  -4.211  -6.335  0.00  0.00     0.275 HD
ENDBRANCH   1   2
BRANCH   1   6
HETATM    6  C           1     -20.684  -5.653  -7.570  0.00  0.00     0.081 C 
BRANCH   6   7
HETATM    7  C           1     -21.224  -4.840  -8.707  0.00  0.00    -0.056 A 
HETATM    8  C           1     -20.403  -4.522  -9.788  0.00  0.00     0.010 A 
HETATM    9  C           1     -20.907  -3.765 -10.847  0.00  0.00     0.038 A 
HETATM   10  C           1     -22.230  -3.327 -10.823  0.00  0.00     0.081 A 
HETATM   11  C           1     -23.052  -3.644  -9.741  0.00  0.00     0.038 A 
HETATM   12  C           1     -22.549  -4.401  -8.683  0.00  0.00     0.010 A 
BRANCH  10  13
HETATM   13  O           1     -22.719  -2.592 -11.851  0.00  0.00    -0.247 OA
BRANCH  13  14
HETATM   14  P           1     -23.857  -3.258 -12.785  0.00  0.00     0.411 P 
HETATM   15  O           1     -23.732  -2.733 -14.163  0.00  0.00    -0.624 OA
HETATM   16  O           1     -25.194  -2.921 -12.248  0.00  0.00    -0.624 OA
BRANCH  14  17
HETATM   17  O           1     -23.671  -4.862 -12.801  0.00  0.00    -0.300 OA
HETATM   18  H           1     -24.231  -5.178 -12.112  0.00  0.00     0.223 HD
ENDBRANCH  14  17
ENDBRANCH  13  14
ENDBRANCH  10  13
ENDBRANCH   6   7
ENDBRANCH   1   6
BRANCH   1  19
HETATM   19  C           1     -21.715  -5.957  -5.340  0.00  0.00     0.249 C 
HETATM   20  O           1     -22.921  -5.999  -5.298  0.00  0.00    -0.271 OA
HETATM   21  N           1     -20.972  -6.801  -4.559  0.00  0.00    -0.344 N 
HETATM   22  H           1     -19.962  -6.765  -4.594  0.00  0.00     0.163 HD
BRANCH  21  23
HETATM   23  C           1     -21.634  -7.747  -3.682  0.00  0.00     0.194 C 
BRANCH  23  24
HETATM   24  C           1     -21.399  -7.348  -2.245  0.00  0.00     0.197 C 
HETATM   25  O           1     -20.567  -7.974  -1.552  0.00  0.00    -0.646 OA
HETATM   26  O           1     -22.036  -6.395  -1.748  0.00  0.00    -0.646 OA
ENDBRANCH  23  24
BRANCH  23  27
HETATM   27  C           1     -21.070  -9.141  -3.919  0.00  0.00     0.138 C 
BRANCH  27  28
HETATM   28  C           1     -19.703  -9.031  -4.547  0.00  0.00     0.217 C 
HETATM   29  N           1     -18.584  -9.054  -3.759  0.00  0.00    -0.370 N 
HETATM   30  H           1     -17.667  -8.981  -4.180  0.00  0.00     0.159 HD
HETATM   31  H           1     -18.674  -9.145  -2.755  0.00  0.00     0.159 HD
HETATM   32  O           1     -19.595  -8.923  -5.746  0.00  0.00    -0.274 OA
ENDBRANCH  27  28
ENDBRANCH  23  27
ENDBRANCH  21  23
ENDBRANCH   1  19
TORSDOF 11
ENDMDL
MODEL 2
REMARK VINA RESULT:      -7.7      3.743      9.033
REMARK  11 active torsions:
REMARK  status: ('A' for Active; 'I' for Inactive)
REMARK    1  A    between atoms: N_5  and  C_18 
REMARK    2  A    between atoms: O_10  and  P_11 
REMARK    3  A    between atoms: P_11  and  O_12 
REMARK    4  A    between atoms: O_12  and  C_13 
REMARK    5  A    between atoms: C_16  and  C_17 
REMARK    6  A    between atoms: C_17  and  C_18 
REMARK    7  A    between atoms: C_18  and  C_19 
REMARK       I    between atoms: C_19  and  N_20 
REMARK    8  A    between atoms: N_20  and  C_24 
REMARK    9  A    between atoms: C_23  and  C_24 
REMARK   10  A    between atoms: C_24  and  C_25 
REMARK   11  A    between atoms: C_25  and  C_27 
REMARK       I    between atoms: N_26  and  C_27 
ROOT
HETATM    1  C           1     -22.359  -4.992  -6.475  0.00  0.00     0.278 C 
ENDROOT
BRANCH   1   2
HETATM    2  N           1     -23.806  -5.237  -6.164  0.00  0.00    -0.066 N 
HETATM    3  H           1     -24.346  -4.350  -6.288  0.00  0.00     0.275 HD
HETATM    4  H           1     -24.183  -5.965  -6.812  0.00  0.00     0.275 HD
HETATM    5  H           1     -23.901  -5.565  -5.176  0.00  0.00     0.275 HD
ENDBRANCH   1   2
BRANCH   1   6
HETATM    6  C           1     -21.615  -6.321  -6.503  0.00  0.00     0.081 C 
BRANCH   6   7
HETATM    7  C           1     -21.420  -6.813  -5.102  0.00  0.00    -0.056 A 
HETATM    8  C           1     -21.480  -8.180  -4.828  0.00  0.00     0.010 A 
HETATM    9  C           1     -21.298  -8.638  -3.523  0.00  0.00     0.038 A 
HETATM   10  C           1     -21.055  -7.730  -2.493  0.00  0.00     0.081 A 
HETATM   11  C           1     -20.996  -6.363  -2.766  0.00  0.00     0.038 A 
HETATM   12  C           1     -21.178  -5.905  -4.071  0.00  0.00     0.010 A 
BRANCH  10  13
HETATM   13  O           1     -20.878  -8.175  -1.225  0.00  0.00    -0.247 OA
BRANCH  13  14
HETATM   14  P           1     -22.163  -8.205  -0.246  0.00  0.00     0.411 P 
HETATM   15  O           1     -23.011  -7.022  -0.509  0.00  0.00    -0.624 OA
HETATM   16  O           1     -21.710  -8.184   1.162  0.00  0.00    -0.624 OA
BRANCH  14  17
HETATM   17  O           1     -23.016  -9.550  -0.517  0.00  0.00    -0.300 OA
HETATM   18  H           1     -22.384 -10.248  -0.486  0.00  0.00     0.223 HD
ENDBRANCH  14  17
ENDBRANCH  13  14
ENDBRANCH  10  13
ENDBRANCH   6   7
ENDBRANCH   1   6
BRANCH   1  19
HETATM   19  C           1     -22.243  -4.321  -7.821  0.00  0.00     0.249 C 
HETATM   20  O           1     -21.205  -3.794  -8.145  0.00  0.00    -0.271 OA
HETATM   21  N           1     -23.312  -4.309  -8.675  0.00  0.00    -0.344 N 
HETATM   22  H           1     -24.181  -4.751  -8.403  0.00  0.00     0.163 HD
BRANCH  21  23
HETATM   23  C           1     -23.200  -3.664  -9.968  0.00  0.00     0.194 C 
BRANCH  23  24
HETATM   24  C           1     -24.565  -3.197 -10.416  0.00  0.00     0.197 C 
HETATM   25  O           1     -25.417  -2.855  -9.568  0.00  0.00    -0.646 OA
HETATM   26  O           1     -24.842  -3.154 -11.634  0.00  0.00    -0.646 OA
ENDBRANCH  23  24
BRANCH  23  27
HETATM   27  C           1     -22.645  -4.653 -10.984  0.00  0.00     0.138 C 
BRANCH  27  28
HETATM   28  C           1     -21.597  -3.972 -11.830  0.00  0.00     0.217 C 
HETATM   29  N           1     -21.937  -3.443 -13.046  0.00  0.00    -0.370 N 
HETATM   30  H           1     -21.235  -2.985 -13.612  0.00  0.00     0.159 HD
HETATM   31  H           1     -22.892  -3.508 -13.376  0.00  0.00     0.159 HD
HETATM   32  O           1     -20.458  -3.894 -11.434  0.00  0.00    -0.274 OA
ENDBRANCH  27  28
ENDBRANCH  23  27
ENDBRANCH  21  23
ENDBRANCH   1  19
TORSDOF 11
ENDMDL
MODEL 3
REMARK VINA RESULT:      -7.2      1.891      2.810
REMARK  11 active torsions:
REMARK  status: ('A' for Active; 'I' for Inactive)
REMARK    1  A    between atoms: N_5  and  C_18 
REMARK    2  A    between atoms: O_10  and  P_11 
REMARK    3  A    between atoms: P_11  and  O_12 
REMARK    4  A    between atoms: O_12  and  C_13 
REMARK    5  A    between atoms: C_16  and  C_17 
REMARK    6  A    between atoms: C_17  and  C_18 
REMARK    7  A    between atoms: C_18  and  C_19 
REMARK       I    between atoms: C_19  and  N_20 
REMARK    8  A    between atoms: N_20  and  C_24 
REMARK    9  A    between atoms: C_23  and  C_24 
REMARK   10  A    between atoms: C_24  and  C_25 
REMARK   11  A    between atoms: C_25  and  C_27 
REMARK       I    between atoms: N_26  and  C_27 
ROOT
HETATM    1  C           1     -21.529  -6.701  -5.669  0.00  0.00     0.278 C 
ENDROOT
BRANCH   1   2
HETATM    2  N           1     -22.130  -6.215  -4.383  0.00  0.00    -0.066 N 
HETATM    3  H           1     -22.328  -5.191  -4.455  0.00  0.00     0.275 HD
HETATM    4  H           1     -23.022  -6.729  -4.200  0.00  0.00     0.275 HD
HETATM    5  H           1     -21.461  -6.386  -3.599  0.00  0.00     0.275 HD
ENDBRANCH   1   2
BRANCH   1   6
HETATM    6  C           1     -20.498  -5.692  -6.159  0.00  0.00     0.081 C 
BRANCH   6   7
HETATM    7  C           1     -21.001  -5.027  -7.403  0.00  0.00    -0.056 A 
HETATM    8  C           1     -22.239  -4.385  -7.398  0.00  0.00     0.010 A 
HETATM    9  C           1     -22.708  -3.765  -8.557  0.00  0.00     0.038 A 
HETATM   10  C           1     -21.938  -3.789  -9.720  0.00  0.00     0.081 A 
HETATM   11  C           1     -20.701  -4.432  -9.725  0.00  0.00     0.038 A 
HETATM   12  C           1     -20.232  -5.052  -8.567  0.00  0.00     0.010 A 
BRANCH  10  13
HETATM   13  O           1     -22.394  -3.188 -10.846  0.00  0.00    -0.247 OA
BRANCH  13  14
HETATM   14  P           1     -23.649  -3.859 -11.610  0.00  0.00     0.411 P 
HETATM   15  O           1     -24.893  -3.156 -11.225  0.00  0.00    -0.624 OA
HETATM   16  O           1     -23.751  -5.286 -11.230  0.00  0.00    -0.624 OA
BRANCH  14  17
HETATM   17  O           1     -23.435  -3.740 -13.206  0.00  0.00    -0.300 OA
HETATM   18  H           1     -24.212  -4.116 -13.584  0.00  0.00     0.223 HD
ENDBRANCH  14  17
ENDBRANCH  13  14
ENDBRANCH  10  13
ENDBRANCH   6   7
ENDBRANCH   1   6
BRANCH   1  19
HETATM   19  C           1     -20.860  -8.033  -5.438  0.00  0.00     0.249 C 
HETATM   20  O           1     -21.354  -9.042  -5.882  0.00  0.00    -0.271 OA
HETATM   21  N           1     -19.694  -8.099  -4.724  0.00  0.00    -0.344 N 
HETATM   22  H           1     -19.281  -7.253  -4.352  0.00  0.00     0.163 HD
BRANCH  21  23
HETATM   23  C           1     -19.051  -9.379  -4.501  0.00  0.00     0.194 C 
BRANCH  23  24
HETATM   24  C           1     -18.493  -9.423  -3.098  0.00  0.00     0.197 C 
HETATM   25  O           1     -17.264  -9.297  -2.912  0.00  0.00    -0.646 OA
HETATM   26  O           1     -19.260  -9.586  -2.125  0.00  0.00    -0.646 OA
ENDBRANCH  23  24
BRANCH  23  27
HETATM   27  C           1     -17.919  -9.561  -5.502  0.00  0.00     0.138 C 
BRANCH  27  28
HETATM   28  C           1     -18.096 -10.871  -6.230  0.00  0.00     0.217 C 
HETATM   29  N           1     -19.336 -11.244  -6.676  0.00  0.00    -0.370 N 
HETATM   30  H           1     -19.454 -12.122  -7.164  0.00  0.00     0.159 HD
HETATM   31  H           1     -20.133 -10.640  -6.518  0.00  0.00     0.159 HD
HETATM   32  O           1     -17.144 -11.591  -6.419  0.00  0.00    -0.274 OA
ENDBRANCH  27  28
ENDBRANCH  23  27
ENDBRANCH  21  23
ENDBRANCH   1  19
TORSDOF 11
ENDMDL
MODEL 4
REMARK VINA RESULT:      -7.0      1.993      2.924
REMARK  11 active torsions:
REMARK  status: ('A' for Active; 'I' for Inactive)
REMARK    1  A    between atoms: N_5  and  C_18 
REMARK    2  A    between atoms: O_10  and  P_11 
REMARK    3  A    between atoms: P_11  and  O_12 
REMARK    4  A    between atoms: O_12  and  C_13 
REMARK    5  A    between atoms: C_16  and  C_17 
REMARK    6  A    between atoms: C_17  and  C_18 
REMARK    7  A    between atoms: C_18  and  C_19 
REMARK       I    between atoms: C_19  and  N_20 
REMARK    8  A    between atoms: N_20  and  C_24 
REMARK    9  A    between atoms: C_23  and  C_24 
REMARK   10  A    between atoms: C_24  and  C_25 
REMARK   11  A    between atoms: C_25  and  C_27 
REMARK       I    between atoms: N_26  and  C_27 
ROOT
HETATM    1  C           1     -21.840  -6.620  -5.182  0.00  0.00     0.278 C 
ENDROOT
BRANCH   1   2
HETATM    2  N           1     -22.338  -6.136  -3.853  0.00  0.00    -0.066 N 
HETATM    3  H           1     -23.258  -5.656  -3.978  0.00  0.00     0.275 HD
HETATM    4  H           1     -22.455  -6.950  -3.208  0.00  0.00     0.275 HD
HETATM    5  H           1     -21.648  -5.464  -3.445  0.00  0.00     0.275 HD
ENDBRANCH   1   2
BRANCH   1   6
HETATM    6  C           1     -20.725  -5.703  -5.670  0.00  0.00     0.081 C 
BRANCH   6   7
HETATM    7  C           1     -21.115  -5.099  -6.984  0.00  0.00    -0.056 A 
HETATM    8  C           1     -20.240  -5.165  -8.069  0.00  0.00     0.010 A 
HETATM    9  C           1     -20.604  -4.602  -9.293  0.00  0.00     0.038 A 
HETATM   10  C           1     -21.841  -3.974  -9.431  0.00  0.00     0.081 A 
HETATM   11  C           1     -22.716  -3.908  -8.347  0.00  0.00     0.038 A 
HETATM   12  C           1     -22.353  -4.470  -7.123  0.00  0.00     0.010 A 
BRANCH  10  13
HETATM   13  O           1     -22.194  -3.428 -10.620  0.00  0.00    -0.247 OA
BRANCH  13  14
HETATM   14  P           1     -23.542  -3.965 -11.331  0.00  0.00     0.411 P 
HETATM   15  O           1     -24.674  -3.084 -10.967  0.00  0.00    -0.624 OA
HETATM   16  O           1     -23.823  -5.344 -10.876  0.00  0.00    -0.624 OA
BRANCH  14  17
HETATM   17  O           1     -23.347  -3.956 -12.934  0.00  0.00    -0.300 OA
HETATM   18  H           1     -24.081  -3.466 -13.266  0.00  0.00     0.223 HD
ENDBRANCH  14  17
ENDBRANCH  13  14
ENDBRANCH  10  13
ENDBRANCH   6   7
ENDBRANCH   1   6
BRANCH   1  19
HETATM   19  C           1     -21.308  -8.024  -5.038  0.00  0.00     0.249 C 
HETATM   20  O           1     -20.642  -8.512  -5.920  0.00  0.00    -0.271 OA
HETATM   21  N           1     -21.582  -8.747  -3.908  0.00  0.00    -0.344 N 
HETATM   22  H           1     -22.141  -8.338  -3.170  0.00  0.00     0.163 HD
BRANCH  21  23
HETATM   23  C           1     -21.073 -10.097  -3.770  0.00  0.00     0.194 C 
BRANCH  23  24
HETATM   24  C           1     -22.224 -11.074  -3.800  0.00  0.00     0.197 C 
HETATM   25  O           1     -22.270 -11.957  -4.683  0.00  0.00    -0.646 OA
HETATM   26  O           1     -23.130 -10.998  -2.942  0.00  0.00    -0.646 OA
ENDBRANCH  23  24
BRANCH  23  27
HETATM   27  C           1     -20.332 -10.228  -2.445  0.00  0.00     0.138 C 
BRANCH  27  28
HETATM   28  C           1     -20.774  -9.129  -1.511  0.00  0.00     0.217 C 
HETATM   29  N           1     -21.789  -9.355  -0.620  0.00  0.00    -0.370 N 
HETATM   30  H           1     -22.085  -8.619   0.007  0.00  0.00     0.159 HD
HETATM   31  H           1     -22.242 -10.260  -0.588  0.00  0.00     0.159 HD
HETATM   32  O           1     -20.233  -8.049  -1.548  0.00  0.00    -0.274 OA
ENDBRANCH  27  28
ENDBRANCH  23  27
ENDBRANCH  21  23
ENDBRANCH   1  19
TORSDOF 11
ENDMDL
MODEL 5
REMARK VINA RESULT:      -6.9      1.470      2.785
REMARK  11 active torsions:
REMARK  status: ('A' for Active; 'I' for Inactive)
REMARK    1  A    between atoms: N_5  and  C_18 
REMARK    2  A    between atoms: O_10  and  P_11 
REMARK    3  A    between atoms: P_11  and  O_12 
REMARK    4  A    between atoms: O_12  and  C_13 
REMARK    5  A    between atoms: C_16  and  C_17 
REMARK    6  A    between atoms: C_17  and  C_18 
REMARK    7  A    between atoms: C_18  and  C_19 
REMARK       I    between atoms: C_19  and  N_20 
REMARK    8  A    between atoms: N_20  and  C_24 
REMARK    9  A    between atoms: C_23  and  C_24 
REMARK   10  A    between atoms: C_24  and  C_25 
REMARK   11  A    between atoms: C_25  and  C_27 
REMARK       I    between atoms: N_26  and  C_27 
ROOT
HETATM    1  C           1     -20.161  -4.716  -7.154  0.00  0.00     0.278 C 
ENDROOT
BRANCH   1   2
HETATM    2  N           1     -20.167  -5.772  -8.219  0.00  0.00    -0.066 N 
HETATM    3  H           1     -20.822  -5.493  -8.984  0.00  0.00     0.275 HD
HETATM    4  H           1     -19.202  -5.878  -8.609  0.00  0.00     0.275 HD
HETATM    5  H           1     -20.479  -6.681  -7.808  0.00  0.00     0.275 HD
ENDBRANCH   1   2
BRANCH   1   6
HETATM    6  C           1     -21.391  -3.830  -7.312  0.00  0.00     0.081 C 
BRANCH   6   7
HETATM    7  C           1     -21.942  -3.984  -8.696  0.00  0.00    -0.056 A 
HETATM    8  C           1     -23.300  -4.242  -8.881  0.00  0.00     0.010 A 
HETATM    9  C           1     -23.813  -4.385 -10.171  0.00  0.00     0.038 A 
HETATM   10  C           1     -22.968  -4.269 -11.274  0.00  0.00     0.081 A 
HETATM   11  C           1     -21.609  -4.012 -11.089  0.00  0.00     0.038 A 
HETATM   12  C           1     -21.097  -3.869  -9.800  0.00  0.00     0.010 A 
BRANCH  10  13
HETATM   13  O           1     -23.466  -4.408 -12.527  0.00  0.00    -0.247 OA
BRANCH  13  14
HETATM   14  P           1     -24.023  -3.087 -13.272  0.00  0.00     0.411 P 
HETATM   15  O           1     -25.469  -2.938 -12.995  0.00  0.00    -0.624 OA
HETATM   16  O           1     -23.810  -3.217 -14.730  0.00  0.00    -0.624 OA
BRANCH  14  17
HETATM   17  O           1     -23.234  -1.787 -12.726  0.00  0.00    -0.300 OA
HETATM   18  H           1     -23.893  -1.264 -12.301  0.00  0.00     0.223 HD
ENDBRANCH  14  17
ENDBRANCH  13  14
ENDBRANCH  10  13
ENDBRANCH   6   7
ENDBRANCH   1   6
BRANCH   1  19
HETATM   19  C           1     -20.185  -5.373  -5.796  0.00  0.00     0.249 C 
HETATM   20  O           1     -20.157  -4.694  -4.797  0.00  0.00    -0.271 OA
HETATM   21  N           1     -20.238  -6.737  -5.697  0.00  0.00    -0.344 N 
HETATM   22  H           1     -20.262  -7.304  -6.534  0.00  0.00     0.163 HD
BRANCH  21  23
HETATM   23  C           1     -20.260  -7.368  -4.392  0.00  0.00     0.194 C 
BRANCH  23  24
HETATM   24  C           1     -19.664  -8.752  -4.493  0.00  0.00     0.197 C 
HETATM   25  O           1     -19.685  -9.514  -3.503  0.00  0.00    -0.646 OA
HETATM   26  O           1     -19.150  -9.133  -5.566  0.00  0.00    -0.646 OA
ENDBRANCH  23  24
BRANCH  23  27
HETATM   27  C           1     -21.698  -7.471  -3.901  0.00  0.00     0.138 C 
BRANCH  27  28
HETATM   28  C           1     -21.791  -6.924  -2.497  0.00  0.00     0.217 C 
HETATM   29  N           1     -21.233  -7.615  -1.455  0.00  0.00    -0.370 N 
HETATM   30  H           1     -21.294  -7.248  -0.515  0.00  0.00     0.159 HD
HETATM   31  H           1     -20.757  -8.492  -1.627  0.00  0.00     0.159 HD
HETATM   32  O           1     -22.359  -5.878  -2.292  0.00  0.00    -0.274 OA
ENDBRANCH  27  28
ENDBRANCH  23  27
ENDBRANCH  21  23
ENDBRANCH   1  19
TORSDOF 11
ENDMDL
MODEL 6
REMARK VINA RESULT:      -6.8      2.005      3.472
REMARK  11 active torsions:
REMARK  status: ('A' for Active; 'I' for Inactive)
REMARK    1  A    between atoms: N_5  and  C_18 
REMARK    2  A    between atoms: O_10  and  P_11 
REMARK    3  A    between atoms: P_11  and  O_12 
REMARK    4  A    between atoms: O_12  and  C_13 
REMARK    5  A    between atoms: C_16  and  C_17 
REMARK    6  A    between atoms: C_17  and  C_18 
REMARK    7  A    between atoms: C_18  and  C_19 
REMARK       I    between atoms: C_19  and  N_20 
REMARK    8  A    between atoms: N_20  and  C_24 
REMARK    9  A    between atoms: C_23  and  C_24 
REMARK   10  A    between atoms: C_24  and  C_25 
REMARK   11  A    between atoms: C_25  and  C_27 
REMARK       I    between atoms: N_26  and  C_27 
ROOT
HETATM    1  C           1     -20.340  -7.389  -5.591  0.00  0.00     0.278 C 
ENDROOT
BRANCH   1   2
HETATM    2  N           1     -21.468  -8.078  -6.299  0.00  0.00    -0.066 N 
HETATM    3  H           1     -22.122  -8.491  -5.595  0.00  0.00     0.275 HD
HETATM    4  H           1     -21.984  -7.385  -6.887  0.00  0.00     0.275 HD
HETATM    5  H           1     -21.088  -8.837  -6.907  0.00  0.00     0.275 HD
ENDBRANCH   1   2
BRANCH   1   6
HETATM    6  C           1     -20.734  -5.949  -5.289  0.00  0.00     0.081 C 
BRANCH   6   7
HETATM    7  C           1     -21.178  -5.277  -6.552  0.00  0.00    -0.056 A 
HETATM    8  C           1     -22.474  -4.772  -6.655  0.00  0.00     0.010 A 
HETATM    9  C           1     -22.886  -4.146  -7.832  0.00  0.00     0.038 A 
HETATM   10  C           1     -22.004  -4.027  -8.904  0.00  0.00     0.081 A 
HETATM   11  C           1     -20.708  -4.533  -8.802  0.00  0.00     0.038 A 
HETATM   12  C           1     -20.295  -5.158  -7.626  0.00  0.00     0.010 A 
BRANCH  10  13
HETATM   13  O           1     -22.405  -3.419 -10.047  0.00  0.00    -0.247 OA
BRANCH  13  14
HETATM   14  P           1     -23.703  -4.011 -10.806  0.00  0.00     0.411 P 
HETATM   15  O           1     -23.833  -5.454 -10.504  0.00  0.00    -0.624 OA
HETATM   16  O           1     -23.548  -3.823 -12.265  0.00  0.00    -0.624 OA
BRANCH  14  17
HETATM   17  O           1     -25.024  -3.233 -10.299  0.00  0.00    -0.300 OA
HETATM   18  H           1     -25.022  -2.418 -10.772  0.00  0.00     0.223 HD
ENDBRANCH  14  17
ENDBRANCH  13  14
ENDBRANCH  10  13
ENDBRANCH   6   7
ENDBRANCH   1   6
BRANCH   1  19
HETATM   19  C           1     -20.043  -8.111  -4.299  0.00  0.00     0.249 C 
HETATM   20  O           1     -18.992  -8.690  -4.159  0.00  0.00    -0.271 OA
HETATM   21  N           1     -20.965  -8.110  -3.288  0.00  0.00    -0.344 N 
HETATM   22  H           1     -21.845  -7.625  -3.406  0.00  0.00     0.163 HD
BRANCH  21  23
HETATM   23  C           1     -20.680  -8.805  -2.047  0.00  0.00     0.194 C 
BRANCH  23  24
HETATM   24  C           1     -21.655  -9.945  -1.875  0.00  0.00     0.197 C 
HETATM   25  O           1     -22.395 -10.281  -2.825  0.00  0.00    -0.646 OA
HETATM   26  O           1     -21.723 -10.550  -0.784  0.00  0.00    -0.646 OA
ENDBRANCH  23  24
BRANCH  23  27
HETATM   27  C           1     -20.820  -7.838  -0.879  0.00  0.00     0.138 C 
BRANCH  27  28
HETATM   28  C           1     -22.229  -7.297  -0.840  0.00  0.00     0.217 C 
HETATM   29  N           1     -23.123  -7.783   0.077  0.00  0.00    -0.370 N 
HETATM   30  H           1     -24.066  -7.420   0.104  0.00  0.00     0.159 HD
HETATM   31  H           1     -22.838  -8.504   0.728  0.00  0.00     0.159 HD
HETATM   32  O           1     -22.568  -6.436  -1.616  0.00  0.00    -0.274 OA
ENDBRANCH  27  28
ENDBRANCH  23  27
ENDBRANCH  21  23
ENDBRANCH   1  19
TORSDOF 11
ENDMDL
MODEL 7
REMARK VINA RESULT:      -6.6      3.477      8.960
REMARK  11 active torsions:
REMARK  status: ('A' for Active; 'I' for Inactive)
REMARK    1  A    between atoms: N_5  and  C_18 
REMARK    2  A    between atoms: O_10  and  P_11 
REMARK    3  A    between atoms: P_11  and  O_12 
REMARK    4  A    between atoms: O_12  and  C_13 
REMARK    5  A    between atoms: C_16  and  C_17 
REMARK    6  A    between atoms: C_17  and  C_18 
REMARK    7  A    between atoms: C_18  and  C_19 
REMARK       I    between atoms: C_19  and  N_20 
REMARK    8  A    between atoms: N_20  and  C_24 
REMARK    9  A    between atoms: C_23  and  C_24 
REMARK   10  A    between atoms: C_24  and  C_25 
REMARK   11  A    between atoms: C_25  and  C_27 
REMARK       I    between atoms: N_26  and  C_27 
ROOT
HETATM    1  C           1     -20.092  -5.265  -7.135  0.00  0.00     0.278 C 
ENDROOT
BRANCH   1   2
HETATM    2  N           1     -18.905  -4.422  -7.494  0.00  0.00    -0.066 N 
HETATM    3  H           1     -18.055  -5.026  -7.564  0.00  0.00     0.275 HD
HETATM    4  H           1     -19.075  -3.954  -8.413  0.00  0.00     0.275 HD
HETATM    5  H           1     -18.755  -3.697  -6.756  0.00  0.00     0.275 HD
ENDBRANCH   1   2
BRANCH   1   6
HETATM    6  C           1     -20.582  -4.885  -5.743  0.00  0.00     0.081 C 
BRANCH   6   7
HETATM    7  C           1     -20.854  -6.127  -4.952  0.00  0.00    -0.056 A 
HETATM    8  C           1     -21.329  -6.031  -3.644  0.00  0.00     0.010 A 
HETATM    9  C           1     -21.582  -7.189  -2.908  0.00  0.00     0.038 A 
HETATM   10  C           1     -21.360  -8.441  -3.480  0.00  0.00     0.081 A 
HETATM   11  C           1     -20.884  -8.538  -4.788  0.00  0.00     0.038 A 
HETATM   12  C           1     -20.631  -7.381  -5.524  0.00  0.00     0.010 A 
BRANCH  10  13
HETATM   13  O           1     -21.606  -9.566  -2.765  0.00  0.00    -0.247 OA
BRANCH  13  14
HETATM   14  P           1     -20.469 -10.074  -1.735  0.00  0.00     0.411 P 
HETATM   15  O           1     -20.779  -9.580  -0.376  0.00  0.00    -0.624 OA
HETATM   16  O           1     -19.151  -9.553  -2.162  0.00  0.00    -0.624 OA
BRANCH  14  17
HETATM   17  O           1     -20.433 -11.689  -1.726  0.00  0.00    -0.300 OA
HETATM   18  H           1     -20.713 -11.943  -2.590  0.00  0.00     0.223 HD
ENDBRANCH  14  17
ENDBRANCH  13  14
ENDBRANCH  10  13
ENDBRANCH   6   7
ENDBRANCH   1   6
BRANCH   1  19
HETATM   19  C           1     -21.195  -5.031  -8.137  0.00  0.00     0.249 C 
HETATM   20  O           1     -22.305  -5.460  -7.925  0.00  0.00    -0.271 OA
HETATM   21  N           1     -20.938  -4.336  -9.288  0.00  0.00    -0.344 N 
HETATM   22  H           1     -20.008  -3.978  -9.465  0.00  0.00     0.163 HD
BRANCH  21  23
HETATM   23  C           1     -21.997  -4.113 -10.252  0.00  0.00     0.194 C 
BRANCH  23  24
HETATM   24  C           1     -21.427  -3.442 -11.479  0.00  0.00     0.197 C 
HETATM   25  O           1     -20.364  -2.789 -11.395  0.00  0.00    -0.646 OA
HETATM   26  O           1     -22.017  -3.540 -12.576  0.00  0.00    -0.646 OA
ENDBRANCH  23  24
BRANCH  23  27
HETATM   27  C           1     -23.065  -3.218  -9.636  0.00  0.00     0.138 C 
BRANCH  27  28
HETATM   28  C           1     -24.429  -3.673 -10.093  0.00  0.00     0.217 C 
HETATM   29  N           1     -25.042  -4.728  -9.472  0.00  0.00    -0.370 N 
HETATM   30  H           1     -25.957  -5.033  -9.778  0.00  0.00     0.159 HD
HETATM   31  H           1     -24.580  -5.201  -8.706  0.00  0.00     0.159 HD
HETATM   32  O           1     -24.980  -3.107 -11.008  0.00  0.00    -0.274 OA
ENDBRANCH  27  28
ENDBRANCH  23  27
ENDBRANCH  21  23
ENDBRANCH   1  19
TORSDOF 11
ENDMDL
MODEL 8
REMARK VINA RESULT:      -6.3      3.697      8.672
REMARK  11 active torsions:
REMARK  status: ('A' for Active; 'I' for Inactive)
REMARK    1  A    between atoms: N_5  and  C_18 
REMARK    2  A    between atoms: O_10  and  P_11 
REMARK    3  A    between atoms: P_11  and  O_12 
REMARK    4  A    between atoms: O_12  and  C_13 
REMARK    5  A    between atoms: C_16  and  C_17 
REMARK    6  A    between atoms: C_17  and  C_18 
REMARK    7  A    between atoms: C_18  and  C_19 
REMARK       I    between atoms: C_19  and  N_20 
REMARK    8  A    between atoms: N_20  and  C_24 
REMARK    9  A    between atoms: C_23  and  C_24 
REMARK   10  A    between atoms: C_24  and  C_25 
REMARK   11  A    between atoms: C_25  and  C_27 
REMARK       I    between atoms: N_26  and  C_27 
ROOT
HETATM    1  C           1     -20.969  -5.354  -6.564  0.00  0.00     0.278 C 
ENDROOT
BRANCH   1   2
HETATM    2  N           1     -19.865  -4.709  -5.779  0.00  0.00    -0.066 N 
HETATM    3  H           1     -19.967  -3.669  -5.823  0.00  0.00     0.275 HD
HETATM    4  H           1     -19.917  -5.021  -4.783  0.00  0.00     0.275 HD
HETATM    5  H           1     -18.942  -4.984  -6.183  0.00  0.00     0.275 HD
ENDBRANCH   1   2
BRANCH   1   6
HETATM    6  C           1     -22.064  -5.816  -5.611  0.00  0.00     0.081 C 
BRANCH   6   7
HETATM    7  C           1     -21.603  -7.035  -4.873  0.00  0.00    -0.056 A 
HETATM    8  C           1     -21.292  -6.952  -3.516  0.00  0.00     0.010 A 
HETATM    9  C           1     -20.863  -8.088  -2.829  0.00  0.00     0.038 A 
HETATM   10  C           1     -20.745  -9.305  -3.499  0.00  0.00     0.081 A 
HETATM   11  C           1     -21.055  -9.388  -4.856  0.00  0.00     0.038 A 
HETATM   12  C           1     -21.485  -8.253  -5.543  0.00  0.00     0.010 A 
BRANCH  10  13
HETATM   13  O           1     -20.328 -10.408  -2.831  0.00  0.00    -0.247 OA
BRANCH  13  14
HETATM   14  P           1     -18.783 -10.854  -2.994  0.00  0.00     0.411 P 
HETATM   15  O           1     -17.927  -9.974  -2.169  0.00  0.00    -0.624 OA
HETATM   16  O           1     -18.385 -10.741  -4.415  0.00  0.00    -0.624 OA
BRANCH  14  17
HETATM   17  O           1     -18.610 -12.384  -2.506  0.00  0.00    -0.300 OA
HETATM   18  H           1     -19.348 -12.841  -2.873  0.00  0.00     0.223 HD
ENDBRANCH  14  17
ENDBRANCH  13  14
ENDBRANCH  10  13
ENDBRANCH   6   7
ENDBRANCH   1   6
BRANCH   1  19
HETATM   19  C           1     -21.539  -4.356  -7.541  0.00  0.00     0.249 C 
HETATM   20  O           1     -21.430  -3.172  -7.327  0.00  0.00    -0.271 OA
HETATM   21  N           1     -22.182  -4.792  -8.668  0.00  0.00    -0.344 N 
HETATM   22  H           1     -22.273  -5.784  -8.846  0.00  0.00     0.163 HD
BRANCH  21  23
HETATM   23  C           1     -22.731  -3.833  -9.606  0.00  0.00     0.194 C 
BRANCH  23  24
HETATM   24  C           1     -24.239  -3.917  -9.585  0.00  0.00     0.197 C 
HETATM   25  O           1     -24.805  -5.013  -9.782  0.00  0.00    -0.646 OA
HETATM   26  O           1     -24.918  -2.890  -9.371  0.00  0.00    -0.646 OA
ENDBRANCH  23  24
BRANCH  23  27
HETATM   27  C           1     -22.226  -4.146 -11.008  0.00  0.00     0.138 C 
BRANCH  27  28
HETATM   28  C           1     -20.731  -3.947 -11.061  0.00  0.00     0.217 C 
HETATM   29  N           1     -20.214  -2.767 -11.526  0.00  0.00    -0.370 N 
HETATM   30  H           1     -19.212  -2.633 -11.561  0.00  0.00     0.159 HD
HETATM   31  H           1     -20.835  -2.029 -11.832  0.00  0.00     0.159 HD
HETATM   32  O           1     -19.991  -4.828 -10.695  0.00  0.00    -0.274 OA
ENDBRANCH  27  28
ENDBRANCH  23  27
ENDBRANCH  21  23
ENDBRANCH   1  19
TORSDOF 11
ENDMDL
MODEL 9
REMARK VINA RESULT:      -6.1      2.994      4.558
REMARK  11 active torsions:
REMARK  status: ('A' for Active; 'I' for Inactive)
REMARK    1  A    between atoms: N_5  and  C_18 
REMARK    2  A    between atoms: O_10  and  P_11 
REMARK    3  A    between atoms: P_11  and  O_12 
REMARK    4  A    between atoms: O_12  and  C_13 
REMARK    5  A    between atoms: C_16  and  C_17 
REMARK    6  A    between atoms: C_17  and  C_18 
REMARK    7  A    between atoms: C_18  and  C_19 
REMARK       I    between atoms: C_19  and  N_20 
REMARK    8  A    between atoms: N_20  and  C_24 
REMARK    9  A    between atoms: C_23  and  C_24 
REMARK   10  A    between atoms: C_24  and  C_25 
REMARK   11  A    between atoms: C_25  and  C_27 
REMARK       I    between atoms: N_26  and  C_27 
ROOT
HETATM    1  C           1     -19.679  -8.441  -3.607  0.00  0.00     0.278 C 
ENDROOT
BRANCH   1   2
HETATM    2  N           1     -18.395  -9.164  -3.330  0.00  0.00    -0.066 N 
HETATM    3  H           1     -18.434 -10.120  -3.751  0.00  0.00     0.275 HD
HETATM    4  H           1     -17.598  -8.632  -3.750  0.00  0.00     0.275 HD
HETATM    5  H           1     -18.255  -9.244  -2.297  0.00  0.00     0.275 HD
ENDBRANCH   1   2
BRANCH   1   6
HETATM    6  C           1     -20.101  -8.692  -5.049  0.00  0.00     0.081 C 
BRANCH   6   7
HETATM    7  C           1     -20.588  -7.412  -5.657  0.00  0.00    -0.056 A 
HETATM    8  C           1     -21.862  -6.934  -5.348  0.00  0.00     0.010 A 
HETATM    9  C           1     -22.315  -5.743  -5.915  0.00  0.00     0.038 A 
HETATM   10  C           1     -21.495  -5.030  -6.789  0.00  0.00     0.081 A 
HETATM   11  C           1     -20.222  -5.508  -7.098  0.00  0.00     0.038 A 
HETATM   12  C           1     -19.768  -6.699  -6.532  0.00  0.00     0.010 A 
BRANCH  10  13
HETATM   13  O           1     -21.935  -3.872  -7.339  0.00  0.00    -0.247 OA
BRANCH  13  14
HETATM   14  P           1     -22.580  -3.934  -8.820  0.00  0.00     0.411 P 
HETATM   15  O           1     -22.781  -5.346  -9.211  0.00  0.00    -0.624 OA
HETATM   16  O           1     -21.665  -3.280  -9.782  0.00  0.00    -0.624 OA
BRANCH  14  17
HETATM   17  O           1     -24.001  -3.166  -8.821  0.00  0.00    -0.300 OA
HETATM   18  H           1     -24.122  -2.879  -7.932  0.00  0.00     0.223 HD
ENDBRANCH  14  17
ENDBRANCH  13  14
ENDBRANCH  10  13
ENDBRANCH   6   7
ENDBRANCH   1   6
BRANCH   1  19
HETATM   19  C           1     -20.751  -8.947  -2.674  0.00  0.00     0.249 C 
HETATM   20  O           1     -21.578  -9.732  -3.074  0.00  0.00    -0.271 OA
HETATM   21  N           1     -20.787  -8.517  -1.375  0.00  0.00    -0.344 N 
HETATM   22  H           1     -20.095  -7.859  -1.041  0.00  0.00     0.163 HD
BRANCH  21  23
HETATM   23  C           1     -21.818  -9.003  -0.479  0.00  0.00     0.194 C 
BRANCH  23  24
HETATM   24  C           1     -22.717  -7.857  -0.079  0.00  0.00     0.197 C 
HETATM   25  O           1     -23.475  -7.974   0.908  0.00  0.00    -0.646 OA
HETATM   26  O           1     -22.703  -6.794  -0.735  0.00  0.00    -0.646 OA
ENDBRANCH  23  24
BRANCH  23  27
HETATM   27  C           1     -21.172  -9.597   0.765  0.00  0.00     0.138 C 
BRANCH  27  28
HETATM   28  C           1     -20.724 -11.009   0.474  0.00  0.00     0.217 C 
HETATM   29  N           1     -21.462 -12.068   0.931  0.00  0.00    -0.370 N 
HETATM   30  H           1     -21.162 -13.014   0.736  0.00  0.00     0.159 HD
HETATM   31  H           1     -22.307 -11.904   1.463  0.00  0.00     0.159 HD
HETATM   32  O           1     -19.716 -11.204  -0.161  0.00  0.00    -0.274 OA
ENDBRANCH  27  28
ENDBRANCH  23  27
ENDBRANCH  21  23
ENDBRANCH   1  19
TORSDOF 11
ENDMDL
