MODEL 1
REMARK VINA RESULT:      -6.5      0.000      0.000
REMARK  5 active torsions:
REMARK  status: ('A' for Active; 'I' for Inactive)
REMARK       I    between atoms: N_2  and  C_12 
REMARK    1  A    between atoms: O_6  and  C_15 
REMARK    2  A    between atoms: C_9  and  C_14 
REMARK    3  A    between atoms: N_11  and  C_16 
REMARK    4  A    between atoms: C_12  and  C_16 
REMARK    5  A    between atoms: C_15  and  C_16 
ROOT
HETATM    1  N           1     -23.097  -3.396 -12.012  0.00  0.00    -0.336 N 
HETATM    2  C           1     -21.988  -2.656 -11.418  0.00  0.00     0.127 C 
HETATM    3  C           1     -21.197  -3.720 -10.677  0.00  0.00     0.022 C 
HETATM    4  C           1     -22.197  -4.835 -10.395  0.00  0.00     0.038 C 
HETATM    5  C           1     -23.634  -3.234 -13.262  0.00  0.00     0.253 C 
HETATM    6  C           1     -23.510  -4.347 -10.984  0.00  0.00     0.188 C 
HETATM    7  O           1     -24.559  -3.927 -13.616  0.00  0.00    -0.271 OA
ENDROOT
BRANCH   5   8
HETATM    8  C           1     -23.071  -2.191 -14.195  0.00  0.00     0.298 C 
BRANCH   8   9
HETATM    9  N           1     -22.389  -2.868 -15.346  0.00  0.00    -0.064 N 
HETATM   10  H           1     -21.525  -3.347 -15.006  0.00  0.00     0.275 HD
HETATM   11  H           1     -23.034  -3.573 -15.769  0.00  0.00     0.275 HD
HETATM   12  H           1     -22.132  -2.155 -16.066  0.00  0.00     0.275 HD
ENDBRANCH   8   9
BRANCH   8  13
HETATM   13  C           1     -24.201  -1.315 -14.720  0.00  0.00     0.206 C 
BRANCH  13  14
HETATM   14  O           1     -23.668  -0.292 -15.517  0.00  0.00    -0.398 OA
ATOM     15  HO          1     -22.830  -0.018 -15.163  1.00  0.00     0.209 HD
ENDBRANCH  13  14
ENDBRANCH   8  13
ENDBRANCH   5   8
BRANCH   6  16
HETATM   16  C           1     -24.351  -3.668  -9.931  0.00  0.00     0.196 C 
HETATM   17  O           1     -25.408  -3.084 -10.257  0.00  0.00    -0.646 OA
HETATM   18  O           1     -23.992  -3.688  -8.735  0.00  0.00    -0.646 OA
ENDBRANCH   6  16
TORSDOF 5
ENDMDL
MODEL 2
REMARK VINA RESULT:      -6.0     11.232     12.135
REMARK  5 active torsions:
REMARK  status: ('A' for Active; 'I' for Inactive)
REMARK       I    between atoms: N_2  and  C_12 
REMARK    1  A    between atoms: O_6  and  C_15 
REMARK    2  A    between atoms: C_9  and  C_14 
REMARK    3  A    between atoms: N_11  and  C_16 
REMARK    4  A    between atoms: C_12  and  C_16 
REMARK    5  A    between atoms: C_15  and  C_16 
ROOT
HETATM    1  N           1     -34.757  -2.036 -12.363  0.00  0.00    -0.336 N 
HETATM    2  C           1     -34.736  -1.685 -10.946  0.00  0.00     0.127 C 
HETATM    3  C           1     -33.368  -2.149 -10.477  0.00  0.00     0.022 C 
HETATM    4  C           1     -32.959  -3.239 -11.459  0.00  0.00     0.038 C 
HETATM    5  C           1     -35.265  -1.297 -13.397  0.00  0.00     0.253 C 
HETATM    6  C           1     -34.118  -3.347 -12.436  0.00  0.00     0.188 C 
HETATM    7  O           1     -35.210  -1.722 -14.527  0.00  0.00    -0.271 OA
ENDROOT
BRANCH   5   8
HETATM    8  C           1     -35.894   0.048 -13.127  0.00  0.00     0.298 C 
BRANCH   8   9
HETATM    9  N           1     -35.590   0.978 -14.263  0.00  0.00    -0.064 N 
HETATM   10  H           1     -36.293   1.751 -14.278  0.00  0.00     0.275 HD
HETATM   11  H           1     -34.633   1.380 -14.138  0.00  0.00     0.275 HD
HETATM   12  H           1     -35.630   0.451 -15.164  0.00  0.00     0.275 HD
ENDBRANCH   8   9
BRANCH   8  13
HETATM   13  C           1     -37.403  -0.114 -12.994  0.00  0.00     0.206 C 
BRANCH  13  14
HETATM   14  O           1     -37.904  -0.769 -14.127  0.00  0.00    -0.398 OA
ATOM     15  HO          1     -37.193  -0.943 -14.733  1.00  0.00     0.209 HD
ENDBRANCH  13  14
ENDBRANCH   8  13
ENDBRANCH   5   8
BRANCH   6  16
HETATM   16  C           1     -35.075  -4.435 -12.015  0.00  0.00     0.196 C 
HETATM   17  O           1     -35.075  -5.533 -12.612  0.00  0.00    -0.646 OA
HETATM   18  O           1     -35.869  -4.238 -11.070  0.00  0.00    -0.646 OA
ENDBRANCH   6  16
TORSDOF 5
ENDMDL
MODEL 3
REMARK VINA RESULT:      -5.8     11.211     12.425
REMARK  5 active torsions:
REMARK  status: ('A' for Active; 'I' for Inactive)
REMARK       I    between atoms: N_2  and  C_12 
REMARK    1  A    between atoms: O_6  and  C_15 
REMARK    2  A    between atoms: C_9  and  C_14 
REMARK    3  A    between atoms: N_11  and  C_16 
REMARK    4  A    between atoms: C_12  and  C_16 
REMARK    5  A    between atoms: C_15  and  C_16 
ROOT
HETATM    1  N           1     -34.923  -2.764 -11.505  0.00  0.00    -0.336 N 
HETATM    2  C           1     -35.497  -3.937 -10.851  0.00  0.00     0.127 C 
HETATM    3  C           1     -34.287  -4.782 -10.493  0.00  0.00     0.022 C 
HETATM    4  C           1     -33.198  -4.353 -11.469  0.00  0.00     0.038 C 
HETATM    5  C           1     -35.310  -1.459 -11.366  0.00  0.00     0.253 C 
HETATM    6  C           1     -33.845  -3.288 -12.340  0.00  0.00     0.188 C 
HETATM    7  O           1     -34.734  -0.590 -11.978  0.00  0.00    -0.271 OA
ENDROOT
BRANCH   5   8
HETATM    8  C           1     -36.455  -1.105 -10.450  0.00  0.00     0.298 C 
BRANCH   8   9
HETATM    9  N           1     -35.925  -0.395  -9.240  0.00  0.00    -0.064 N 
HETATM   10  H           1     -35.148   0.243  -9.523  0.00  0.00     0.275 HD
HETATM   11  H           1     -36.691   0.163  -8.799  0.00  0.00     0.275 HD
HETATM   12  H           1     -35.568  -1.098  -8.554  0.00  0.00     0.275 HD
ENDBRANCH   8   9
BRANCH   8  13
HETATM   13  C           1     -37.431  -0.194 -11.185  0.00  0.00     0.206 C 
BRANCH  13  14
HETATM   14  O           1     -37.610  -0.660 -12.494  0.00  0.00    -0.398 OA
ATOM     15  HO          1     -37.222  -1.523 -12.580  1.00  0.00     0.209 HD
ENDBRANCH  13  14
ENDBRANCH   8  13
ENDBRANCH   5   8
BRANCH   6  16
HETATM   16  C           1     -34.394  -3.893 -13.609  0.00  0.00     0.196 C 
HETATM   17  O           1     -34.399  -3.228 -14.667  0.00  0.00    -0.646 OA
HETATM   18  O           1     -34.845  -5.058 -13.601  0.00  0.00    -0.646 OA
ENDBRANCH   6  16
TORSDOF 5
ENDMDL
MODEL 4
REMARK VINA RESULT:      -5.6      2.767      4.121
REMARK  5 active torsions:
REMARK  status: ('A' for Active; 'I' for Inactive)
REMARK       I    between atoms: N_2  and  C_12 
REMARK    1  A    between atoms: O_6  and  C_15 
REMARK    2  A    between atoms: C_9  and  C_14 
REMARK    3  A    between atoms: N_11  and  C_16 
REMARK    4  A    between atoms: C_12  and  C_16 
REMARK    5  A    between atoms: C_15  and  C_16 
ROOT
HETATM    1  N           1     -21.495  -4.492  -8.786  0.00  0.00    -0.336 N 
HETATM    2  C           1     -20.481  -3.540  -8.341  0.00  0.00     0.127 C 
HETATM    3  C           1     -19.347  -4.421  -7.848  0.00  0.00     0.022 C 
HETATM    4  C           1     -20.001  -5.749  -7.487  0.00  0.00     0.038 C 
HETATM    5  C           1     -22.288  -4.408  -9.899  0.00  0.00     0.253 C 
HETATM    6  C           1     -21.479  -5.556  -7.785  0.00  0.00     0.188 C 
HETATM    7  O           1     -23.088  -5.281 -10.138  0.00  0.00    -0.271 OA
ENDROOT
BRANCH   5   8
HETATM    8  C           1     -22.162  -3.224 -10.826  0.00  0.00     0.298 C 
BRANCH   8   9
HETATM    9  N           1     -21.061  -3.478 -11.812  0.00  0.00    -0.064 N 
HETATM   10  H           1     -21.241  -2.929 -12.683  0.00  0.00     0.275 HD
HETATM   11  H           1     -20.147  -3.184 -11.398  0.00  0.00     0.275 HD
HETATM   12  H           1     -21.027  -4.496 -12.041  0.00  0.00     0.275 HD
ENDBRANCH   8   9
BRANCH   8  13
HETATM   13  C           1     -23.475  -3.021 -11.572  0.00  0.00     0.206 C 
BRANCH  13  14
HETATM   14  O           1     -24.532  -2.974 -10.653  0.00  0.00    -0.398 OA
ATOM     15  HO          1     -25.161  -2.316 -10.927  1.00  0.00     0.209 HD
ENDBRANCH  13  14
ENDBRANCH   8  13
ENDBRANCH   5   8
BRANCH   6  16
HETATM   16  C           1     -22.226  -5.135  -6.543  0.00  0.00     0.196 C 
HETATM   17  O           1     -21.717  -5.316  -5.416  0.00  0.00    -0.646 OA
HETATM   18  O           1     -23.354  -4.607  -6.641  0.00  0.00    -0.646 OA
ENDBRANCH   6  16
TORSDOF 5
ENDMDL
MODEL 5
REMARK VINA RESULT:      -5.6     11.514     13.128
REMARK  5 active torsions:
REMARK  status: ('A' for Active; 'I' for Inactive)
REMARK       I    between atoms: N_2  and  C_12 
REMARK    1  A    between atoms: O_6  and  C_15 
REMARK    2  A    between atoms: C_9  and  C_14 
REMARK    3  A    between atoms: N_11  and  C_16 
REMARK    4  A    between atoms: C_12  and  C_16 
REMARK    5  A    between atoms: C_15  and  C_16 
ROOT
HETATM    1  N           1     -35.862  -1.051 -13.172  0.00  0.00    -0.336 N 
HETATM    2  C           1     -36.659  -0.176 -12.317  0.00  0.00     0.127 C 
HETATM    3  C           1     -37.946   0.023 -13.100  0.00  0.00     0.022 C 
HETATM    4  C           1     -37.571  -0.234 -14.554  0.00  0.00     0.038 C 
HETATM    5  C           1     -35.076  -2.103 -12.786  0.00  0.00     0.253 C 
HETATM    6  C           1     -36.087  -0.560 -14.529  0.00  0.00     0.188 C 
HETATM    7  O           1     -34.470  -2.740 -13.616  0.00  0.00    -0.271 OA
ENDROOT
BRANCH   5   8
HETATM    8  C           1     -34.965  -2.467 -11.326  0.00  0.00     0.298 C 
BRANCH   8   9
HETATM    9  N           1     -35.399  -3.889 -11.132  0.00  0.00    -0.064 N 
HETATM   10  H           1     -34.581  -4.524 -11.265  0.00  0.00     0.275 HD
HETATM   11  H           1     -35.779  -4.009 -10.166  0.00  0.00     0.275 HD
HETATM   12  H           1     -36.141  -4.124 -11.829  0.00  0.00     0.275 HD
ENDBRANCH   8   9
BRANCH   8  13
HETATM   13  C           1     -33.519  -2.311 -10.871  0.00  0.00     0.206 C 
BRANCH  13  14
HETATM   14  O           1     -32.736  -3.320 -11.451  0.00  0.00    -0.398 OA
ATOM     15  HO          1     -31.908  -3.382 -10.990  1.00  0.00     0.209 HD
ENDBRANCH  13  14
ENDBRANCH   8  13
ENDBRANCH   5   8
BRANCH   6  16
HETATM   16  C           1     -35.261   0.676 -14.795  0.00  0.00     0.196 C 
HETATM   17  O           1     -34.118   0.781 -14.302  0.00  0.00    -0.646 OA
HETATM   18  O           1     -35.721   1.593 -15.509  0.00  0.00    -0.646 OA
ENDBRANCH   6  16
TORSDOF 5
ENDMDL
MODEL 6
REMARK VINA RESULT:      -5.4      3.034      5.954
REMARK  5 active torsions:
REMARK  status: ('A' for Active; 'I' for Inactive)
REMARK       I    between atoms: N_2  and  C_12 
REMARK    1  A    between atoms: O_6  and  C_15 
REMARK    2  A    between atoms: C_9  and  C_14 
REMARK    3  A    between atoms: N_11  and  C_16 
REMARK    4  A    between atoms: C_12  and  C_16 
REMARK    5  A    between atoms: C_15  and  C_16 
ROOT
HETATM    1  N           1     -21.548  -4.357  -9.584  0.00  0.00    -0.336 N 
HETATM    2  C           1     -20.553  -4.791 -10.560  0.00  0.00     0.127 C 
HETATM    3  C           1     -20.368  -3.577 -11.454  0.00  0.00     0.022 C 
HETATM    4  C           1     -21.658  -2.779 -11.314  0.00  0.00     0.038 C 
HETATM    5  C           1     -21.568  -4.619  -8.240  0.00  0.00     0.253 C 
HETATM    6  C           1     -22.518  -3.582 -10.353  0.00  0.00     0.188 C 
HETATM    7  O           1     -22.466  -4.189  -7.554  0.00  0.00    -0.271 OA
ENDROOT
BRANCH   5   8
HETATM    8  C           1     -20.471  -5.446  -7.616  0.00  0.00     0.298 C 
BRANCH   8   9
HETATM    9  N           1     -19.377  -4.540  -7.135  0.00  0.00    -0.064 N 
HETATM   10  H           1     -18.574  -5.114  -6.793  0.00  0.00     0.275 HD
HETATM   11  H           1     -19.058  -3.929  -7.921  0.00  0.00     0.275 HD
HETATM   12  H           1     -19.737  -3.944  -6.356  0.00  0.00     0.275 HD
ENDBRANCH   8   9
BRANCH   8  13
HETATM   13  C           1     -21.033  -6.233  -6.439  0.00  0.00     0.206 C 
BRANCH  13  14
HETATM   14  O           1     -21.014  -5.430  -5.290  0.00  0.00    -0.398 OA
ATOM     15  HO          1     -21.294  -4.550  -5.513  1.00  0.00     0.209 HD
ENDBRANCH  13  14
ENDBRANCH   8  13
ENDBRANCH   5   8
BRANCH   6  16
HETATM   16  C           1     -23.457  -4.493 -11.106  0.00  0.00     0.196 C 
HETATM   17  O           1     -23.687  -4.290 -12.317  0.00  0.00    -0.646 OA
HETATM   18  O           1     -24.005  -5.450 -10.518  0.00  0.00    -0.646 OA
ENDBRANCH   6  16
TORSDOF 5
ENDMDL
MODEL 7
REMARK VINA RESULT:      -5.4     15.295     16.982
REMARK  5 active torsions:
REMARK  status: ('A' for Active; 'I' for Inactive)
REMARK       I    between atoms: N_2  and  C_12 
REMARK    1  A    between atoms: O_6  and  C_15 
REMARK    2  A    between atoms: C_9  and  C_14 
REMARK    3  A    between atoms: N_11  and  C_16 
REMARK    4  A    between atoms: C_12  and  C_16 
REMARK    5  A    between atoms: C_15  and  C_16 
ROOT
HETATM    1  N           1     -12.435   5.487 -20.856  0.00  0.00    -0.336 N 
HETATM    2  C           1     -12.609   5.848 -22.260  0.00  0.00     0.127 C 
HETATM    3  C           1     -14.116   5.888 -22.441  0.00  0.00     0.022 C 
HETATM    4  C           1     -14.673   4.987 -21.346  0.00  0.00     0.038 C 
HETATM    5  C           1     -11.518   5.989 -19.973  0.00  0.00     0.253 C 
HETATM    6  C           1     -13.453   4.472 -20.599  0.00  0.00     0.188 C 
HETATM    7  O           1     -11.495   5.589 -18.833  0.00  0.00    -0.271 OA
ENDROOT
BRANCH   5   8
HETATM    8  C           1     -10.535   7.043 -20.423  0.00  0.00     0.298 C 
BRANCH   8   9
HETATM    9  N           1     -10.424   8.103 -19.369  0.00  0.00    -0.064 N 
HETATM   10  H           1      -9.416   8.294 -19.172  0.00  0.00     0.275 HD
HETATM   11  H           1     -10.885   8.979 -19.705  0.00  0.00     0.275 HD
HETATM   12  H           1     -10.895   7.777 -18.496  0.00  0.00     0.275 HD
ENDBRANCH   8   9
BRANCH   8  13
HETATM   13  C           1      -9.170   6.403 -20.645  0.00  0.00     0.206 C 
BRANCH  13  14
HETATM   14  O           1      -8.775   5.729 -19.481  0.00  0.00    -0.398 OA
ATOM     15  HO          1      -7.944   6.079 -19.179  1.00  0.00     0.209 HD
ENDBRANCH  13  14
ENDBRANCH   8  13
ENDBRANCH   5   8
BRANCH   6  16
HETATM   16  C           1     -13.021   3.130 -21.137  0.00  0.00     0.196 C 
HETATM   17  O           1     -11.881   2.690 -20.876  0.00  0.00    -0.646 OA
HETATM   18  O           1     -13.803   2.459 -21.844  0.00  0.00    -0.646 OA
ENDBRANCH   6  16
TORSDOF 5
ENDMDL
MODEL 8
REMARK VINA RESULT:      -5.0     14.957     16.873
REMARK  5 active torsions:
REMARK  status: ('A' for Active; 'I' for Inactive)
REMARK       I    between atoms: N_2  and  C_12 
REMARK    1  A    between atoms: O_6  and  C_15 
REMARK    2  A    between atoms: C_9  and  C_14 
REMARK    3  A    between atoms: N_11  and  C_16 
REMARK    4  A    between atoms: C_12  and  C_16 
REMARK    5  A    between atoms: C_15  and  C_16 
ROOT
HETATM    1  N           1     -12.076   5.439 -20.688  0.00  0.00    -0.336 N 
HETATM    2  C           1     -11.714   4.357 -19.777  0.00  0.00     0.127 C 
HETATM    3  C           1     -11.818   3.109 -20.637  0.00  0.00     0.022 C 
HETATM    4  C           1     -12.784   3.476 -21.756  0.00  0.00     0.038 C 
HETATM    5  C           1     -11.499   6.677 -20.784  0.00  0.00     0.253 C 
HETATM    6  C           1     -13.188   4.914 -21.475  0.00  0.00     0.188 C 
HETATM    7  O           1     -11.911   7.474 -21.593  0.00  0.00    -0.271 OA
ENDROOT
BRANCH   5   8
HETATM    8  C           1     -10.349   7.045 -19.878  0.00  0.00     0.298 C 
BRANCH   8   9
HETATM    9  N           1      -9.053   6.730 -20.565  0.00  0.00    -0.064 N 
HETATM   10  H           1      -9.181   6.801 -21.599  0.00  0.00     0.275 HD
HETATM   11  H           1      -8.321   7.410 -20.257  0.00  0.00     0.275 HD
HETATM   12  H           1      -8.754   5.761 -20.315  0.00  0.00     0.275 HD
ENDBRANCH   8   9
BRANCH   8  13
HETATM   13  C           1     -10.407   8.535 -19.563  0.00  0.00     0.206 C 
BRANCH  13  14
HETATM   14  O           1     -10.262   8.726 -18.182  0.00  0.00    -0.398 OA
ATOM     15  HO          1      -9.609   9.398 -18.022  1.00  0.00     0.209 HD
ENDBRANCH  13  14
ENDBRANCH   8  13
ENDBRANCH   5   8
BRANCH   6  16
HETATM   16  C           1     -14.474   4.965 -20.687  0.00  0.00     0.196 C 
HETATM   17  O           1     -15.543   5.277 -21.257  0.00  0.00    -0.646 OA
HETATM   18  O           1     -14.471   4.698 -19.467  0.00  0.00    -0.646 OA
ENDBRANCH   6  16
TORSDOF 5
ENDMDL
MODEL 9
REMARK VINA RESULT:      -4.9     15.585     17.859
REMARK  5 active torsions:
REMARK  status: ('A' for Active; 'I' for Inactive)
REMARK       I    between atoms: N_2  and  C_12 
REMARK    1  A    between atoms: O_6  and  C_15 
REMARK    2  A    between atoms: C_9  and  C_14 
REMARK    3  A    between atoms: N_11  and  C_16 
REMARK    4  A    between atoms: C_12  and  C_16 
REMARK    5  A    between atoms: C_15  and  C_16 
ROOT
HETATM    1  N           1     -11.852   7.305 -20.666  0.00  0.00    -0.336 N 
HETATM    2  C           1     -10.744   7.208 -21.612  0.00  0.00     0.127 C 
HETATM    3  C           1      -9.591   7.885 -20.892  0.00  0.00     0.022 C 
HETATM    4  C           1     -10.246   8.826 -19.888  0.00  0.00     0.038 C 
HETATM    5  C           1     -12.790   6.350 -20.379  0.00  0.00     0.253 C 
HETATM    6  C           1     -11.741   8.642 -20.091  0.00  0.00     0.188 C 
HETATM    7  O           1     -13.655   6.577 -19.566  0.00  0.00    -0.271 OA
ENDROOT
BRANCH   5   8
HETATM    8  C           1     -12.746   5.014 -21.080  0.00  0.00     0.298 C 
BRANCH   8   9
HETATM    9  N           1     -12.177   3.983 -20.151  0.00  0.00    -0.064 N 
HETATM   10  H           1     -12.241   3.040 -20.596  0.00  0.00     0.275 HD
HETATM   11  H           1     -11.176   4.207 -19.952  0.00  0.00     0.275 HD
HETATM   12  H           1     -12.718   3.985 -19.257  0.00  0.00     0.275 HD
ENDBRANCH   8   9
BRANCH   8  13
HETATM   13  C           1     -14.156   4.607 -21.488  0.00  0.00     0.206 C 
BRANCH  13  14
HETATM   14  O           1     -14.859   5.736 -21.929  0.00  0.00    -0.398 OA
ATOM     15  HO          1     -15.342   5.520 -22.719  1.00  0.00     0.209 HD
ENDBRANCH  13  14
ENDBRANCH   8  13
ENDBRANCH   5   8
BRANCH   6  16
HETATM   16  C           1     -12.285   9.682 -21.040  0.00  0.00     0.196 C 
HETATM   17  O           1     -13.424   9.540 -21.536  0.00  0.00    -0.646 OA
HETATM   18  O           1     -11.597  10.683 -21.332  0.00  0.00    -0.646 OA
ENDBRANCH   6  16
TORSDOF 5
ENDMDL
