MODEL 1
REMARK VINA RESULT:      -7.2      0.000      0.000
REMARK  8 active torsions:
REMARK  status: ('A' for Active; 'I' for Inactive)
REMARK    1  A    between atoms: C_7  and  C_10 
REMARK    2  A    between atoms: C_7  and  C_8 
REMARK    3  A    between atoms: C_7  and  N_19 
REMARK    4  A    between atoms: C_8  and  C_17 
REMARK       I    between atoms: C_10  and  N_11 
REMARK    5  A    between atoms: N_11  and  C_18 
REMARK    6  A    between atoms: C_13  and  C_21 
REMARK    7  A    between atoms: C_14  and  C_18 
REMARK    8  A    between atoms: C_18  and  C_21 
ROOT
HETATM    1  C           1     -20.726  -9.171  -4.359  0.00  0.00     0.190 C 
ENDROOT
BRANCH   1   2
HETATM    2  N           1     -20.470  -9.473  -2.965  0.00  0.00    -0.344 N 
HETATM    3  C           1     -21.433 -10.087  -2.209  0.00  0.00     0.249 C 
HETATM    4  O           1     -21.475 -11.293  -2.149  0.00  0.00    -0.271 OA
HETATM    5  H           1     -19.580  -9.229  -2.550  0.00  0.00     0.163 HD
BRANCH   3   6
HETATM    6  C           1     -22.442  -9.258  -1.453  0.00  0.00     0.278 C 
BRANCH   6   7
HETATM    7  C           1     -21.723  -8.150  -0.695  0.00  0.00     0.021 C 
HETATM    8  C           1     -22.148  -6.796  -1.250  0.00  0.00     0.012 C 
BRANCH   7   9
HETATM    9  C           1     -22.085  -8.228   0.782  0.00  0.00     0.002 C 
HETATM   10  C           1     -20.875  -8.699   1.578  0.00  0.00     0.005 C 
ENDBRANCH   7   9
ENDBRANCH   6   7
BRANCH   6  11
HETATM   11  N           1     -23.179 -10.131  -0.482  0.00  0.00    -0.066 N 
HETATM   12  H           1     -23.443  -9.570   0.359  0.00  0.00     0.275 HD
HETATM   13  H           1     -22.565 -10.926  -0.193  0.00  0.00     0.275 HD
HETATM   14  H           1     -24.042 -10.506  -0.936  0.00  0.00     0.275 HD
ENDBRANCH   6  11
ENDBRANCH   3   6
ENDBRANCH   1   2
BRANCH   1  15
HETATM   15  C           1     -20.242 -10.314  -5.218  0.00  0.00     0.197 C 
HETATM   16  O           1     -19.154 -10.873  -4.958  0.00  0.00    -0.646 OA
HETATM   17  O           1     -20.927 -10.700  -6.189  0.00  0.00    -0.646 OA
ENDBRANCH   1  15
BRANCH   1  18
HETATM   18  C           1     -19.989  -7.896  -4.746  0.00  0.00     0.077 C 
BRANCH  18  19
HETATM   19  C           1     -20.965  -6.896  -5.281  0.00  0.00    -0.028 A 
HETATM   20  C           1     -20.706  -5.931  -6.293  0.00  0.00    -0.002 A 
HETATM   21  C           1     -21.885  -5.209  -6.483  0.00  0.00     0.042 A 
HETATM   22  C           1     -19.578  -5.601  -7.067  0.00  0.00     0.014 A 
HETATM   23  N           1     -22.820  -5.725  -5.614  0.00  0.00    -0.365 N 
HETATM   24  C           1     -21.994  -4.169  -7.414  0.00  0.00     0.030 A 
HETATM   25  C           1     -22.274  -6.746  -4.882  0.00  0.00     0.096 A 
HETATM   26  H           1     -23.810  -5.385  -5.525  0.00  0.00     0.165 HD
HETATM   27  C           1     -20.859  -3.860  -8.172  0.00  0.00     0.002 A 
HETATM   28  C           1     -19.669  -4.564  -8.003  0.00  0.00     0.001 A 
ENDBRANCH  18  19
ENDBRANCH   1  18
TORSDOF 8
ENDMDL
MODEL 2
REMARK VINA RESULT:      -7.1      3.537      5.230
REMARK  8 active torsions:
REMARK  status: ('A' for Active; 'I' for Inactive)
REMARK    1  A    between atoms: C_7  and  C_10 
REMARK    2  A    between atoms: C_7  and  C_8 
REMARK    3  A    between atoms: C_7  and  N_19 
REMARK    4  A    between atoms: C_8  and  C_17 
REMARK       I    between atoms: C_10  and  N_11 
REMARK    5  A    between atoms: N_11  and  C_18 
REMARK    6  A    between atoms: C_13  and  C_21 
REMARK    7  A    between atoms: C_14  and  C_18 
REMARK    8  A    between atoms: C_18  and  C_21 
ROOT
HETATM    1  C           1     -21.434  -4.882  -7.476  0.00  0.00     0.190 C 
ENDROOT
BRANCH   1   2
HETATM    2  N           1     -21.781  -4.710  -6.079  0.00  0.00    -0.344 N 
HETATM    3  C           1     -21.144  -5.449  -5.119  0.00  0.00     0.249 C 
HETATM    4  O           1     -20.133  -5.030  -4.606  0.00  0.00    -0.271 OA
HETATM    5  H           1     -22.495  -4.043  -5.814  0.00  0.00     0.163 HD
BRANCH   3   6
HETATM    6  C           1     -21.703  -6.786  -4.702  0.00  0.00     0.278 C 
BRANCH   6   7
HETATM    7  C           1     -21.268  -7.097  -3.275  0.00  0.00     0.021 C 
HETATM    8  C           1     -22.165  -6.349  -2.297  0.00  0.00     0.012 C 
BRANCH   7   9
HETATM    9  C           1     -21.383  -8.595  -3.025  0.00  0.00     0.002 C 
HETATM   10  C           1     -20.137  -9.085  -2.300  0.00  0.00     0.005 C 
ENDBRANCH   7   9
ENDBRANCH   6   7
BRANCH   6  11
HETATM   11  N           1     -21.190  -7.852  -5.624  0.00  0.00    -0.066 N 
HETATM   12  H           1     -21.414  -8.793  -5.228  0.00  0.00     0.275 HD
HETATM   13  H           1     -20.154  -7.755  -5.726  0.00  0.00     0.275 HD
HETATM   14  H           1     -21.643  -7.752  -6.560  0.00  0.00     0.275 HD
ENDBRANCH   6  11
ENDBRANCH   3   6
ENDBRANCH   1   2
BRANCH   1  15
HETATM   15  C           1     -19.988  -5.301  -7.587  0.00  0.00     0.197 C 
HETATM   16  O           1     -19.091  -4.434  -7.662  0.00  0.00    -0.646 OA
HETATM   17  O           1     -19.688  -6.514  -7.603  0.00  0.00    -0.646 OA
ENDBRANCH   1  15
BRANCH   1  18
HETATM   18  C           1     -21.640  -3.567  -8.216  0.00  0.00     0.077 C 
BRANCH  18  19
HETATM   19  C           1     -22.835  -3.679  -9.110  0.00  0.00    -0.028 A 
HETATM   20  C           1     -22.855  -3.455 -10.515  0.00  0.00    -0.002 A 
HETATM   21  C           1     -24.164  -3.666 -10.946  0.00  0.00     0.042 A 
HETATM   22  C           1     -21.880  -3.091 -11.462  0.00  0.00     0.014 A 
HETATM   23  N           1     -24.906  -4.006  -9.837  0.00  0.00    -0.365 N 
HETATM   24  C           1     -24.551  -3.532 -12.285  0.00  0.00     0.030 A 
HETATM   25  C           1     -24.111  -4.016  -8.721  0.00  0.00     0.096 A 
HETATM   26  H           1     -25.933  -4.226  -9.844  0.00  0.00     0.165 HD
HETATM   27  C           1     -23.565  -3.170 -13.208  0.00  0.00     0.002 A 
HETATM   28  C           1     -22.249  -2.952 -12.806  0.00  0.00     0.001 A 
ENDBRANCH  18  19
ENDBRANCH   1  18
TORSDOF 8
ENDMDL
MODEL 3
REMARK VINA RESULT:      -7.1      2.184      6.872
REMARK  8 active torsions:
REMARK  status: ('A' for Active; 'I' for Inactive)
REMARK    1  A    between atoms: C_7  and  C_10 
REMARK    2  A    between atoms: C_7  and  C_8 
REMARK    3  A    between atoms: C_7  and  N_19 
REMARK    4  A    between atoms: C_8  and  C_17 
REMARK       I    between atoms: C_10  and  N_11 
REMARK    5  A    between atoms: N_11  and  C_18 
REMARK    6  A    between atoms: C_13  and  C_21 
REMARK    7  A    between atoms: C_14  and  C_18 
REMARK    8  A    between atoms: C_18  and  C_21 
ROOT
HETATM    1  C           1     -19.914  -7.460  -5.311  0.00  0.00     0.190 C 
ENDROOT
BRANCH   1   2
HETATM    2  N           1     -19.881  -6.955  -6.669  0.00  0.00    -0.344 N 
HETATM    3  C           1     -19.949  -5.607  -6.900  0.00  0.00     0.249 C 
HETATM    4  O           1     -18.936  -4.952  -6.954  0.00  0.00    -0.271 OA
HETATM    5  H           1     -19.808  -7.599  -7.447  0.00  0.00     0.163 HD
BRANCH   3   6
HETATM    6  C           1     -21.290  -4.941  -7.087  0.00  0.00     0.278 C 
BRANCH   6   7
HETATM    7  C           1     -21.718  -5.059  -8.543  0.00  0.00     0.021 C 
HETATM    8  C           1     -23.015  -4.287  -8.756  0.00  0.00     0.012 C 
BRANCH   7   9
HETATM    9  C           1     -20.632  -4.482  -9.441  0.00  0.00     0.002 C 
HETATM   10  C           1     -21.274  -3.780 -10.630  0.00  0.00     0.005 C 
ENDBRANCH   7   9
ENDBRANCH   6   7
BRANCH   6  11
HETATM   11  N           1     -21.184  -3.493  -6.713  0.00  0.00    -0.066 N 
HETATM   12  H           1     -21.813  -3.295  -5.902  0.00  0.00     0.275 HD
HETATM   13  H           1     -21.468  -2.901  -7.526  0.00  0.00     0.275 HD
HETATM   14  H           1     -20.198  -3.271  -6.450  0.00  0.00     0.275 HD
ENDBRANCH   6  11
ENDBRANCH   3   6
ENDBRANCH   1   2
BRANCH   1  15
HETATM   15  C           1     -19.016  -8.668  -5.202  0.00  0.00     0.197 C 
HETATM   16  O           1     -18.610  -9.046  -4.081  0.00  0.00    -0.646 OA
HETATM   17  O           1     -18.678  -9.290  -6.232  0.00  0.00    -0.646 OA
ENDBRANCH   1  15
BRANCH   1  18
HETATM   18  C           1     -21.341  -7.853  -4.951  0.00  0.00     0.077 C 
BRANCH  18  19
HETATM   19  C           1     -21.686  -7.300  -3.604  0.00  0.00    -0.028 A 
HETATM   20  C           1     -21.777  -8.040  -2.392  0.00  0.00    -0.002 A 
HETATM   21  C           1     -22.123  -7.138  -1.385  0.00  0.00     0.042 A 
HETATM   22  C           1     -21.597  -9.394  -2.055  0.00  0.00     0.014 A 
HETATM   23  N           1     -22.236  -5.898  -1.974  0.00  0.00    -0.365 N 
HETATM   24  C           1     -22.299  -7.524  -0.051  0.00  0.00     0.030 A 
HETATM   25  C           1     -21.974  -5.985  -3.316  0.00  0.00     0.096 A 
HETATM   26  H           1     -22.487  -5.013  -1.468  0.00  0.00     0.165 HD
HETATM   27  C           1     -22.114  -8.875   0.259  0.00  0.00     0.002 A 
HETATM   28  C           1     -21.769  -9.798  -0.726  0.00  0.00     0.001 A 
ENDBRANCH  18  19
ENDBRANCH   1  18
TORSDOF 8
ENDMDL
MODEL 4
REMARK VINA RESULT:      -7.1      2.114      2.983
REMARK  8 active torsions:
REMARK  status: ('A' for Active; 'I' for Inactive)
REMARK    1  A    between atoms: C_7  and  C_10 
REMARK    2  A    between atoms: C_7  and  C_8 
REMARK    3  A    between atoms: C_7  and  N_19 
REMARK    4  A    between atoms: C_8  and  C_17 
REMARK       I    between atoms: C_10  and  N_11 
REMARK    5  A    between atoms: N_11  and  C_18 
REMARK    6  A    between atoms: C_13  and  C_21 
REMARK    7  A    between atoms: C_14  and  C_18 
REMARK    8  A    between atoms: C_18  and  C_21 
ROOT
HETATM    1  C           1     -21.922  -6.747  -5.548  0.00  0.00     0.190 C 
ENDROOT
BRANCH   1   2
HETATM    2  N           1     -22.452  -6.683  -4.200  0.00  0.00    -0.344 N 
HETATM    3  C           1     -21.613  -6.815  -3.127  0.00  0.00     0.249 C 
HETATM    4  O           1     -21.093  -5.837  -2.644  0.00  0.00    -0.271 OA
HETATM    5  H           1     -23.444  -6.542  -4.053  0.00  0.00     0.163 HD
BRANCH   3   6
HETATM    6  C           1     -21.335  -8.181  -2.549  0.00  0.00     0.278 C 
BRANCH   6   7
HETATM    7  C           1     -22.099  -8.343  -1.241  0.00  0.00     0.021 C 
HETATM    8  C           1     -22.678  -9.751  -1.164  0.00  0.00     0.012 C 
BRANCH   7   9
HETATM    9  C           1     -21.153  -8.119  -0.069  0.00  0.00     0.002 C 
HETATM   10  C           1     -21.955  -8.030   1.222  0.00  0.00     0.005 C 
ENDBRANCH   7   9
ENDBRANCH   6   7
BRANCH   6  11
HETATM   11  N           1     -19.865  -8.325  -2.290  0.00  0.00    -0.066 N 
HETATM   12  H           1     -19.719  -8.850  -1.399  0.00  0.00     0.275 HD
HETATM   13  H           1     -19.431  -7.378  -2.213  0.00  0.00     0.275 HD
HETATM   14  H           1     -19.422  -8.847  -3.079  0.00  0.00     0.275 HD
ENDBRANCH   6  11
ENDBRANCH   3   6
ENDBRANCH   1   2
BRANCH   1  15
HETATM   15  C           1     -20.859  -7.815  -5.620  0.00  0.00     0.197 C 
HETATM   16  O           1     -19.656  -7.511  -5.463  0.00  0.00    -0.646 OA
HETATM   17  O           1     -21.180  -9.003  -5.837  0.00  0.00    -0.646 OA
ENDBRANCH   1  15
BRANCH   1  18
HETATM   18  C           1     -21.316  -5.400  -5.918  0.00  0.00     0.077 C 
BRANCH  18  19
HETATM   19  C           1     -22.047  -4.827  -7.091  0.00  0.00    -0.028 A 
HETATM   20  C           1     -21.509  -4.606  -8.389  0.00  0.00    -0.002 A 
HETATM   21  C           1     -22.528  -4.062  -9.170  0.00  0.00     0.042 A 
HETATM   22  C           1     -20.246  -4.817  -8.975  0.00  0.00     0.014 A 
HETATM   23  N           1     -23.642  -3.960  -8.367  0.00  0.00    -0.365 N 
HETATM   24  C           1     -22.349  -3.716 -10.515  0.00  0.00     0.030 A 
HETATM   25  C           1     -23.362  -4.420  -7.108  0.00  0.00     0.096 A 
HETATM   26  H           1     -24.573  -3.584  -8.676  0.00  0.00     0.165 HD
HETATM   27  C           1     -21.086  -3.936 -11.075  0.00  0.00     0.002 A 
HETATM   28  C           1     -20.049  -4.478 -10.318  0.00  0.00     0.001 A 
ENDBRANCH  18  19
ENDBRANCH   1  18
TORSDOF 8
ENDMDL
MODEL 5
REMARK VINA RESULT:      -7.1      2.566      7.479
REMARK  8 active torsions:
REMARK  status: ('A' for Active; 'I' for Inactive)
REMARK    1  A    between atoms: C_7  and  C_10 
REMARK    2  A    between atoms: C_7  and  C_8 
REMARK    3  A    between atoms: C_7  and  N_19 
REMARK    4  A    between atoms: C_8  and  C_17 
REMARK       I    between atoms: C_10  and  N_11 
REMARK    5  A    between atoms: N_11  and  C_18 
REMARK    6  A    between atoms: C_13  and  C_21 
REMARK    7  A    between atoms: C_14  and  C_18 
REMARK    8  A    between atoms: C_18  and  C_21 
ROOT
HETATM    1  C           1     -21.236  -7.273  -5.671  0.00  0.00     0.190 C 
ENDROOT
BRANCH   1   2
HETATM    2  N           1     -20.483  -6.548  -6.676  0.00  0.00    -0.344 N 
HETATM    3  C           1     -20.820  -5.259  -6.987  0.00  0.00     0.249 C 
HETATM    4  O           1     -20.317  -4.341  -6.385  0.00  0.00    -0.271 OA
HETATM    5  H           1     -19.708  -6.997  -7.148  0.00  0.00     0.163 HD
BRANCH   3   6
HETATM    6  C           1     -21.821  -4.984  -8.082  0.00  0.00     0.278 C 
BRANCH   6   7
HETATM    7  C           1     -21.181  -4.103  -9.147  0.00  0.00     0.021 C 
HETATM    8  C           1     -20.068  -4.876  -9.844  0.00  0.00     0.012 C 
BRANCH   7   9
HETATM    9  C           1     -22.234  -3.697 -10.170  0.00  0.00     0.002 C 
HETATM   10  C           1     -21.588  -3.579 -11.544  0.00  0.00     0.005 C 
ENDBRANCH   7   9
ENDBRANCH   6   7
BRANCH   6  11
HETATM   11  N           1     -23.014  -4.283  -7.504  0.00  0.00    -0.066 N 
HETATM   12  H           1     -22.794  -3.270  -7.375  0.00  0.00     0.275 HD
HETATM   13  H           1     -23.254  -4.708  -6.581  0.00  0.00     0.275 HD
HETATM   14  H           1     -23.826  -4.382  -8.154  0.00  0.00     0.275 HD
ENDBRANCH   6  11
ENDBRANCH   3   6
ENDBRANCH   1   2
BRANCH   1  15
HETATM   15  C           1     -22.023  -6.296  -4.832  0.00  0.00     0.197 C 
HETATM   16  O           1     -21.467  -5.691  -3.890  0.00  0.00    -0.646 OA
HETATM   17  O           1     -23.231  -6.092  -5.079  0.00  0.00    -0.646 OA
ENDBRANCH   1  15
BRANCH   1  18
HETATM   18  C           1     -20.275  -8.050  -4.780  0.00  0.00     0.077 C 
BRANCH  18  19
HETATM   19  C           1     -21.047  -9.009  -3.930  0.00  0.00    -0.028 A 
HETATM   20  C           1     -21.266  -8.899  -2.528  0.00  0.00    -0.002 A 
HETATM   21  C           1     -22.030 -10.000  -2.144  0.00  0.00     0.042 A 
HETATM   22  C           1     -20.884  -7.964  -1.548  0.00  0.00     0.014 A 
HETATM   23  N           1     -22.263 -10.747  -3.277  0.00  0.00    -0.365 N 
HETATM   24  C           1     -22.436 -10.216  -0.821  0.00  0.00     0.030 A 
HETATM   25  C           1     -21.673 -10.156  -4.363  0.00  0.00     0.096 A 
HETATM   26  H           1     -22.814 -11.641  -3.306  0.00  0.00     0.165 HD
HETATM   27  C           1     -22.044  -9.273   0.135  0.00  0.00     0.002 A 
HETATM   28  C           1     -21.281  -8.163  -0.220  0.00  0.00     0.001 A 
ENDBRANCH  18  19
ENDBRANCH   1  18
TORSDOF 8
ENDMDL
MODEL 6
REMARK VINA RESULT:      -7.0      2.928      4.355
REMARK  8 active torsions:
REMARK  status: ('A' for Active; 'I' for Inactive)
REMARK    1  A    between atoms: C_7  and  C_10 
REMARK    2  A    between atoms: C_7  and  C_8 
REMARK    3  A    between atoms: C_7  and  N_19 
REMARK    4  A    between atoms: C_8  and  C_17 
REMARK       I    between atoms: C_10  and  N_11 
REMARK    5  A    between atoms: N_11  and  C_18 
REMARK    6  A    between atoms: C_13  and  C_21 
REMARK    7  A    between atoms: C_14  and  C_18 
REMARK    8  A    between atoms: C_18  and  C_21 
ROOT
HETATM    1  C           1     -21.225  -5.984  -7.207  0.00  0.00     0.190 C 
ENDROOT
BRANCH   1   2
HETATM    2  N           1     -21.786  -6.978  -6.313  0.00  0.00    -0.344 N 
HETATM    3  C           1     -22.187  -6.618  -5.055  0.00  0.00     0.249 C 
HETATM    4  O           1     -23.321  -6.247  -4.865  0.00  0.00    -0.271 OA
HETATM    5  H           1     -21.881  -7.938  -6.620  0.00  0.00     0.163 HD
BRANCH   3   6
HETATM    6  C           1     -21.212  -6.683  -3.905  0.00  0.00     0.278 C 
BRANCH   6   7
HETATM    7  C           1     -21.836  -7.459  -2.753  0.00  0.00     0.021 C 
HETATM    8  C           1     -20.845  -8.500  -2.247  0.00  0.00     0.012 C 
BRANCH   7   9
HETATM    9  C           1     -22.183  -6.499  -1.623  0.00  0.00     0.002 C 
HETATM   10  C           1     -22.496  -7.291  -0.361  0.00  0.00     0.005 C 
ENDBRANCH   7   9
ENDBRANCH   6   7
BRANCH   6  11
HETATM   11  N           1     -20.882  -5.293  -3.450  0.00  0.00    -0.066 N 
HETATM   12  H           1     -21.078  -5.205  -2.428  0.00  0.00     0.275 HD
HETATM   13  H           1     -21.466  -4.606  -3.978  0.00  0.00     0.275 HD
HETATM   14  H           1     -19.871  -5.098  -3.628  0.00  0.00     0.275 HD
ENDBRANCH   6  11
ENDBRANCH   3   6
ENDBRANCH   1   2
BRANCH   1  15
HETATM   15  C           1     -19.751  -5.828  -6.924  0.00  0.00     0.197 C 
HETATM   16  O           1     -18.964  -6.768  -7.171  0.00  0.00    -0.646 OA
HETATM   17  O           1     -19.316  -4.760  -6.443  0.00  0.00    -0.646 OA
ENDBRANCH   1  15
BRANCH   1  18
HETATM   18  C           1     -21.928  -4.651  -6.990  0.00  0.00     0.077 C 
BRANCH  18  19
HETATM   19  C           1     -22.653  -4.258  -8.239  0.00  0.00    -0.028 A 
HETATM   20  C           1     -22.061  -4.003  -9.507  0.00  0.00    -0.002 A 
HETATM   21  C           1     -23.094  -3.670 -10.383  0.00  0.00     0.042 A 
HETATM   22  C           1     -20.740  -4.023  -9.993  0.00  0.00     0.014 A 
HETATM   23  N           1     -24.267  -3.724  -9.664  0.00  0.00    -0.365 N 
HETATM   24  C           1     -22.873  -3.355 -11.729  0.00  0.00     0.030 A 
HETATM   25  C           1     -24.012  -4.079  -8.366  0.00  0.00     0.096 A 
HETATM   26  H           1     -25.222  -3.523 -10.055  0.00  0.00     0.165 HD
HETATM   27  C           1     -21.552  -3.382 -12.189  0.00  0.00     0.002 A 
HETATM   28  C           1     -20.500  -3.711 -11.337  0.00  0.00     0.001 A 
ENDBRANCH  18  19
ENDBRANCH   1  18
TORSDOF 8
ENDMDL
MODEL 7
REMARK VINA RESULT:      -6.9      2.614      5.870
REMARK  8 active torsions:
REMARK  status: ('A' for Active; 'I' for Inactive)
REMARK    1  A    between atoms: C_7  and  C_10 
REMARK    2  A    between atoms: C_7  and  C_8 
REMARK    3  A    between atoms: C_7  and  N_19 
REMARK    4  A    between atoms: C_8  and  C_17 
REMARK       I    between atoms: C_10  and  N_11 
REMARK    5  A    between atoms: N_11  and  C_18 
REMARK    6  A    between atoms: C_13  and  C_21 
REMARK    7  A    between atoms: C_14  and  C_18 
REMARK    8  A    between atoms: C_18  and  C_21 
ROOT
HETATM    1  C           1     -21.372  -8.787  -2.079  0.00  0.00     0.190 C 
ENDROOT
BRANCH   1   2
HETATM    2  N           1     -20.923  -7.471  -2.489  0.00  0.00    -0.344 N 
HETATM    3  C           1     -21.773  -6.636  -3.162  0.00  0.00     0.249 C 
HETATM    4  O           1     -22.480  -5.871  -2.550  0.00  0.00    -0.271 OA
HETATM    5  H           1     -19.980  -7.170  -2.277  0.00  0.00     0.163 HD
BRANCH   3   6
HETATM    6  C           1     -21.829  -6.672  -4.670  0.00  0.00     0.278 C 
BRANCH   6   7
HETATM    7  C           1     -20.663  -5.876  -5.241  0.00  0.00     0.021 C 
HETATM    8  C           1     -19.779  -6.795  -6.073  0.00  0.00     0.012 C 
BRANCH   7   9
HETATM    9  C           1     -21.197  -4.753  -6.120  0.00  0.00     0.002 C 
HETATM   10  C           1     -20.153  -4.386  -7.166  0.00  0.00     0.005 C 
ENDBRANCH   7   9
ENDBRANCH   6   7
BRANCH   6  11
HETATM   11  N           1     -23.121  -6.071  -5.137  0.00  0.00    -0.066 N 
HETATM   12  H           1     -23.492  -5.429  -4.401  0.00  0.00     0.275 HD
HETATM   13  H           1     -23.814  -6.832  -5.317  0.00  0.00     0.275 HD
HETATM   14  H           1     -22.957  -5.534  -6.017  0.00  0.00     0.275 HD
ENDBRANCH   6  11
ENDBRANCH   3   6
ENDBRANCH   1   2
BRANCH   1  15
HETATM   15  C           1     -21.968  -8.706  -0.695  0.00  0.00     0.197 C 
HETATM   16  O           1     -23.032  -9.311  -0.436  0.00  0.00    -0.646 OA
HETATM   17  O           1     -21.399  -8.035   0.193  0.00  0.00    -0.646 OA
ENDBRANCH   1  15
BRANCH   1  18
HETATM   18  C           1     -20.189  -9.746  -2.068  0.00  0.00     0.077 C 
BRANCH  18  19
HETATM   19  C           1     -19.679  -9.926  -3.463  0.00  0.00    -0.028 A 
HETATM   20  C           1     -18.319  -9.855  -3.874  0.00  0.00    -0.002 A 
HETATM   21  C           1     -18.293 -10.082  -5.250  0.00  0.00     0.042 A 
HETATM   22  C           1     -17.104  -9.618  -3.204  0.00  0.00     0.014 A 
HETATM   23  N           1     -19.595 -10.282  -5.651  0.00  0.00    -0.365 N 
HETATM   24  C           1     -17.107 -10.084  -5.995  0.00  0.00     0.030 A 
HETATM   25  C           1     -20.441 -10.190  -4.578  0.00  0.00     0.096 A 
HETATM   26  H           1     -19.896 -10.478  -6.638  0.00  0.00     0.165 HD
HETATM   27  C           1     -15.913  -9.846  -5.306  0.00  0.00     0.002 A 
HETATM   28  C           1     -15.909  -9.617  -3.932  0.00  0.00     0.001 A 
ENDBRANCH  18  19
ENDBRANCH   1  18
TORSDOF 8
ENDMDL
MODEL 8
REMARK VINA RESULT:      -6.9      3.245      4.991
REMARK  8 active torsions:
REMARK  status: ('A' for Active; 'I' for Inactive)
REMARK    1  A    between atoms: C_7  and  C_10 
REMARK    2  A    between atoms: C_7  and  C_8 
REMARK    3  A    between atoms: C_7  and  N_19 
REMARK    4  A    between atoms: C_8  and  C_17 
REMARK       I    between atoms: C_10  and  N_11 
REMARK    5  A    between atoms: N_11  and  C_18 
REMARK    6  A    between atoms: C_13  and  C_21 
REMARK    7  A    between atoms: C_14  and  C_18 
REMARK    8  A    between atoms: C_18  and  C_21 
ROOT
HETATM    1  C           1     -21.547  -5.515  -6.861  0.00  0.00     0.190 C 
ENDROOT
BRANCH   1   2
HETATM    2  N           1     -22.353  -5.813  -5.693  0.00  0.00    -0.344 N 
HETATM    3  C           1     -21.782  -6.410  -4.602  0.00  0.00     0.249 C 
HETATM    4  O           1     -21.303  -5.732  -3.724  0.00  0.00    -0.271 OA
HETATM    5  H           1     -23.338  -5.579  -5.685  0.00  0.00     0.163 HD
BRANCH   3   6
HETATM    6  C           1     -21.750  -7.915  -4.496  0.00  0.00     0.278 C 
BRANCH   6   7
HETATM    7  C           1     -20.751  -8.328  -3.423  0.00  0.00     0.021 C 
HETATM    8  C           1     -21.490  -9.001  -2.274  0.00  0.00     0.012 C 
BRANCH   7   9
HETATM    9  C           1     -19.742  -9.302  -4.017  0.00  0.00     0.002 C 
HETATM   10  C           1     -18.481  -9.309  -3.164  0.00  0.00     0.005 C 
ENDBRANCH   7   9
ENDBRANCH   6   7
BRANCH   6  11
HETATM   11  N           1     -21.338  -8.500  -5.814  0.00  0.00    -0.066 N 
HETATM   12  H           1     -20.511  -9.123  -5.675  0.00  0.00     0.275 HD
HETATM   13  H           1     -21.088  -7.730  -6.474  0.00  0.00     0.275 HD
HETATM   14  H           1     -22.129  -9.056  -6.211  0.00  0.00     0.275 HD
ENDBRANCH   6  11
ENDBRANCH   3   6
ENDBRANCH   1   2
BRANCH   1  15
HETATM   15  C           1     -20.085  -5.579  -6.493  0.00  0.00     0.197 C 
HETATM   16  O           1     -19.421  -6.607  -6.747  0.00  0.00    -0.646 OA
HETATM   17  O           1     -19.539  -4.603  -5.934  0.00  0.00    -0.646 OA
ENDBRANCH   1  15
BRANCH   1  18
HETATM   18  C           1     -21.884  -4.119  -7.368  0.00  0.00     0.077 C 
BRANCH  18  19
HETATM   19  C           1     -21.569  -4.027  -8.827  0.00  0.00    -0.028 A 
HETATM   20  C           1     -22.497  -3.755  -9.871  0.00  0.00    -0.002 A 
HETATM   21  C           1     -21.782  -3.761 -11.068  0.00  0.00     0.042 A 
HETATM   22  C           1     -23.882  -3.504  -9.909  0.00  0.00     0.014 A 
HETATM   23  N           1     -20.469  -4.027 -10.754  0.00  0.00    -0.365 N 
HETATM   24  C           1     -22.385  -3.527 -12.310  0.00  0.00     0.030 A 
HETATM   25  C           1     -20.329  -4.190  -9.402  0.00  0.00     0.096 A 
HETATM   26  H           1     -19.686  -4.096 -11.451  0.00  0.00     0.165 HD
HETATM   27  C           1     -23.762  -3.280 -12.323  0.00  0.00     0.002 A 
HETATM   28  C           1     -24.501  -3.268 -11.142  0.00  0.00     0.001 A 
ENDBRANCH  18  19
ENDBRANCH   1  18
TORSDOF 8
ENDMDL
MODEL 9
REMARK VINA RESULT:      -6.8      2.849      6.439
REMARK  8 active torsions:
REMARK  status: ('A' for Active; 'I' for Inactive)
REMARK    1  A    between atoms: C_7  and  C_10 
REMARK    2  A    between atoms: C_7  and  C_8 
REMARK    3  A    between atoms: C_7  and  N_19 
REMARK    4  A    between atoms: C_8  and  C_17 
REMARK       I    between atoms: C_10  and  N_11 
REMARK    5  A    between atoms: N_11  and  C_18 
REMARK    6  A    between atoms: C_13  and  C_21 
REMARK    7  A    between atoms: C_14  and  C_18 
REMARK    8  A    between atoms: C_18  and  C_21 
ROOT
HETATM    1  C           1     -21.267  -7.750  -3.221  0.00  0.00     0.190 C 
ENDROOT
BRANCH   1   2
HETATM    2  N           1     -20.136  -7.984  -4.097  0.00  0.00    -0.344 N 
HETATM    3  C           1     -20.036  -9.162  -4.785  0.00  0.00     0.249 C 
HETATM    4  O           1     -20.522  -9.262  -5.887  0.00  0.00    -0.271 OA
HETATM    5  H           1     -19.421  -7.275  -4.199  0.00  0.00     0.163 HD
BRANCH   3   6
HETATM    6  C           1     -19.318 -10.337  -4.169  0.00  0.00     0.278 C 
BRANCH   6   7
HETATM    7  C           1     -18.338  -9.838  -3.115  0.00  0.00     0.021 C 
HETATM    8  C           1     -18.334 -10.796  -1.930  0.00  0.00     0.012 C 
BRANCH   7   9
HETATM    9  C           1     -16.939  -9.770  -3.715  0.00  0.00     0.002 C 
HETATM   10  C           1     -15.908 -10.061  -2.634  0.00  0.00     0.005 C 
ENDBRANCH   7   9
ENDBRANCH   6   7
BRANCH   6  11
HETATM   11  N           1     -18.571 -11.082  -5.234  0.00  0.00    -0.066 N 
HETATM   12  H           1     -18.584 -10.528  -6.120  0.00  0.00     0.275 HD
HETATM   13  H           1     -19.025 -12.009  -5.395  0.00  0.00     0.275 HD
HETATM   14  H           1     -17.582 -11.228  -4.930  0.00  0.00     0.275 HD
ENDBRANCH   6  11
ENDBRANCH   3   6
ENDBRANCH   1   2
BRANCH   1  15
HETATM   15  C           1     -21.815  -6.365  -3.465  0.00  0.00     0.197 C 
HETATM   16  O           1     -21.957  -5.572  -2.509  0.00  0.00    -0.646 OA
HETATM   17  O           1     -22.126  -6.011  -4.623  0.00  0.00    -0.646 OA
ENDBRANCH   1  15
BRANCH   1  18
HETATM   18  C           1     -20.819  -7.871  -1.771  0.00  0.00     0.077 C 
BRANCH  18  19
HETATM   19  C           1     -21.926  -8.457  -0.952  0.00  0.00    -0.028 A 
HETATM   20  C           1     -22.457  -9.771  -1.076  0.00  0.00    -0.002 A 
HETATM   21  C           1     -23.469  -9.896  -0.124  0.00  0.00     0.042 A 
HETATM   22  C           1     -22.172 -10.867  -1.911  0.00  0.00     0.014 A 
HETATM   23  N           1     -23.543  -8.698   0.549  0.00  0.00    -0.365 N 
HETATM   24  C           1     -24.214 -11.071   0.037  0.00  0.00     0.030 A 
HETATM   25  C           1     -22.615  -7.820   0.056  0.00  0.00     0.096 A 
HETATM   26  H           1     -24.215  -8.486   1.328  0.00  0.00     0.165 HD
HETATM   27  C           1     -23.912 -12.147  -0.804  0.00  0.00     0.002 A 
HETATM   28  C           1     -22.907 -12.050  -1.763  0.00  0.00     0.001 A 
ENDBRANCH  18  19
ENDBRANCH   1  18
TORSDOF 8
ENDMDL
