MODEL 1
REMARK VINA RESULT:      -7.9      0.000      0.000
REMARK  10 active torsions:
REMARK  status: ('A' for Active; 'I' for Inactive)
REMARK    1  A    between atoms: C_1  and  C_6 
REMARK    2  A    between atoms: C_1  and  C_2 
REMARK    3  A    between atoms: C_1  and  N_19 
REMARK    4  A    between atoms: C_2  and  C_17 
REMARK       I    between atoms: C_6  and  N_8 
REMARK    5  A    between atoms: N_8  and  C_25 
REMARK    6  A    between atoms: C_11  and  C_25 
REMARK    7  A    between atoms: P_20  and  O_27 
REMARK    8  A    between atoms: P_20  and  O_22 
REMARK    9  A    between atoms: C_25  and  C_26 
REMARK   10  A    between atoms: C_26  and  O_27 
ROOT
HETATM    1  C           1     -21.732  -4.473  -7.859  0.00  0.00     0.249 C 
HETATM    2  O           1     -21.795  -3.367  -7.376  0.00  0.00    -0.271 OA
HETATM    3  N           1     -22.243  -4.703  -9.109  0.00  0.00    -0.343 N 
HETATM    4  H           1     -22.190  -5.628  -9.514  0.00  0.00     0.163 HD
ENDROOT
BRANCH   1   5
HETATM    5  C           1     -21.090  -5.598  -7.087  0.00  0.00     0.278 C 
BRANCH   5   6
HETATM    6  C           1     -20.861  -5.162  -5.646  0.00  0.00     0.081 C 
BRANCH   6   7
HETATM    7  C           1     -21.133  -6.311  -4.726  0.00  0.00    -0.056 A 
HETATM    8  C           1     -21.281  -7.598  -5.244  0.00  0.00     0.007 A 
HETATM    9  C           1     -21.535  -8.669  -4.388  0.00  0.00     0.001 A 
HETATM   10  C           1     -21.642  -8.454  -3.014  0.00  0.00     0.000 A 
HETATM   11  C           1     -21.496  -7.167  -2.497  0.00  0.00     0.001 A 
HETATM   12  C           1     -21.241  -6.095  -3.353  0.00  0.00     0.007 A 
ENDBRANCH   6   7
ENDBRANCH   5   6
BRANCH   5  13
HETATM   13  N           1     -19.775  -5.950  -7.717  0.00  0.00    -0.066 N 
HETATM   14  H           1     -19.010  -5.834  -7.014  0.00  0.00     0.275 HD
HETATM   15  H           1     -19.798  -6.943  -8.044  0.00  0.00     0.275 HD
HETATM   16  H           1     -19.599  -5.319  -8.531  0.00  0.00     0.275 HD
ENDBRANCH   5  13
ENDBRANCH   1   5
BRANCH   3  17
HETATM   17  C           1     -22.860  -3.620  -9.850  0.00  0.00     0.210 C 
BRANCH  17  18
HETATM   18  C           1     -24.362  -3.760  -9.789  0.00  0.00     0.198 C 
HETATM   19  O           1     -25.074  -2.758  -9.564  0.00  0.00    -0.646 OA
HETATM   20  O           1     -24.893  -4.877  -9.965  0.00  0.00    -0.646 OA
ENDBRANCH  17  18
BRANCH  17  21
HETATM   21  C           1     -22.404  -3.676 -11.302  0.00  0.00     0.217 C 
BRANCH  21  22
HETATM   22  O           1     -22.915  -2.570 -11.996  0.00  0.00    -0.287 OA
BRANCH  22  23
HETATM   23  P           1     -23.509  -2.871 -13.468  0.00  0.00     0.406 P 
HETATM   24  O           1     -24.316  -1.716 -13.921  0.00  0.00    -0.624 OA
HETATM   25  O           1     -24.362  -4.080 -13.418  0.00  0.00    -0.624 OA
BRANCH  23  26
HETATM   26  O           1     -22.290  -3.113 -14.499  0.00  0.00    -0.300 OA
HETATM   27  H           1     -22.225  -2.311 -14.991  0.00  0.00     0.223 HD
ENDBRANCH  23  26
ENDBRANCH  22  23
ENDBRANCH  21  22
ENDBRANCH  17  21
ENDBRANCH   3  17
TORSDOF 10
ENDMDL
MODEL 2
REMARK VINA RESULT:      -7.6     12.092     13.679
REMARK  10 active torsions:
REMARK  status: ('A' for Active; 'I' for Inactive)
REMARK    1  A    between atoms: C_1  and  C_6 
REMARK    2  A    between atoms: C_1  and  C_2 
REMARK    3  A    between atoms: C_1  and  N_19 
REMARK    4  A    between atoms: C_2  and  C_17 
REMARK       I    between atoms: C_6  and  N_8 
REMARK    5  A    between atoms: N_8  and  C_25 
REMARK    6  A    between atoms: C_11  and  C_25 
REMARK    7  A    between atoms: P_20  and  O_27 
REMARK    8  A    between atoms: P_20  and  O_22 
REMARK    9  A    between atoms: C_25  and  C_26 
REMARK   10  A    between atoms: C_26  and  O_27 
ROOT
HETATM    1  C           1     -34.201  -2.452 -12.141  0.00  0.00     0.249 C 
HETATM    2  O           1     -33.638  -2.043 -11.153  0.00  0.00    -0.271 OA
HETATM    3  N           1     -34.919  -1.589 -12.926  0.00  0.00    -0.343 N 
HETATM    4  H           1     -35.391  -1.931 -13.753  0.00  0.00     0.163 HD
ENDROOT
BRANCH   1   5
HETATM    5  C           1     -34.114  -3.912 -12.510  0.00  0.00     0.278 C 
BRANCH   5   6
HETATM    6  C           1     -33.020  -4.581 -11.687  0.00  0.00     0.081 C 
BRANCH   6   7
HETATM    7  C           1     -33.589  -5.766 -10.970  0.00  0.00    -0.056 A 
HETATM    8  C           1     -34.831  -5.670 -10.342  0.00  0.00     0.007 A 
HETATM    9  C           1     -35.360  -6.773  -9.673  0.00  0.00     0.001 A 
HETATM   10  C           1     -34.649  -7.972  -9.632  0.00  0.00     0.000 A 
HETATM   11  C           1     -33.406  -8.067 -10.259  0.00  0.00     0.001 A 
HETATM   12  C           1     -32.876  -6.963 -10.928  0.00  0.00     0.007 A 
ENDBRANCH   6   7
ENDBRANCH   5   6
BRANCH   5  13
HETATM   13  N           1     -33.788  -4.040 -13.968  0.00  0.00    -0.066 N 
HETATM   14  H           1     -32.791  -4.333 -14.079  0.00  0.00     0.275 HD
HETATM   15  H           1     -34.412  -4.758 -14.404  0.00  0.00     0.275 HD
HETATM   16  H           1     -33.935  -3.120 -14.440  0.00  0.00     0.275 HD
ENDBRANCH   5  13
ENDBRANCH   1   5
BRANCH   3  17
HETATM   17  C           1     -35.003  -0.186 -12.570  0.00  0.00     0.210 C 
BRANCH  17  18
HETATM   18  C           1     -36.224   0.044 -11.714  0.00  0.00     0.198 C 
HETATM   19  O           1     -36.116   0.090 -10.470  0.00  0.00    -0.646 OA
HETATM   20  O           1     -37.345   0.189 -12.249  0.00  0.00    -0.646 OA
ENDBRANCH  17  18
BRANCH  17  21
HETATM   21  C           1     -35.107   0.653 -13.837  0.00  0.00     0.217 C 
BRANCH  21  22
HETATM   22  O           1     -35.099  -0.189 -14.958  0.00  0.00    -0.287 OA
BRANCH  22  23
HETATM   23  P           1     -36.412  -0.131 -15.896  0.00  0.00     0.406 P 
HETATM   24  O           1     -36.799   1.280 -16.117  0.00  0.00    -0.624 OA
HETATM   25  O           1     -37.524  -0.849 -15.234  0.00  0.00    -0.624 OA
BRANCH  23  26
HETATM   26  O           1     -36.089  -0.829 -17.317  0.00  0.00    -0.300 OA
HETATM   27  H           1     -36.025  -1.750 -17.127  0.00  0.00     0.223 HD
ENDBRANCH  23  26
ENDBRANCH  22  23
ENDBRANCH  21  22
ENDBRANCH  17  21
ENDBRANCH   3  17
TORSDOF 10
ENDMDL
MODEL 3
REMARK VINA RESULT:      -7.2      5.515      9.153
REMARK  10 active torsions:
REMARK  status: ('A' for Active; 'I' for Inactive)
REMARK    1  A    between atoms: C_1  and  C_6 
REMARK    2  A    between atoms: C_1  and  C_2 
REMARK    3  A    between atoms: C_1  and  N_19 
REMARK    4  A    between atoms: C_2  and  C_17 
REMARK       I    between atoms: C_6  and  N_8 
REMARK    5  A    between atoms: N_8  and  C_25 
REMARK    6  A    between atoms: C_11  and  C_25 
REMARK    7  A    between atoms: P_20  and  O_27 
REMARK    8  A    between atoms: P_20  and  O_22 
REMARK    9  A    between atoms: C_25  and  C_26 
REMARK   10  A    between atoms: C_26  and  O_27 
ROOT
HETATM    1  C           1     -21.531  -5.572  -5.579  0.00  0.00     0.249 C 
HETATM    2  O           1     -20.364  -5.277  -5.470  0.00  0.00    -0.271 OA
HETATM    3  N           1     -22.141  -6.322  -4.609  0.00  0.00    -0.343 N 
HETATM    4  H           1     -23.118  -6.569  -4.700  0.00  0.00     0.163 HD
ENDROOT
BRANCH   1   5
HETATM    5  C           1     -22.315  -5.116  -6.784  0.00  0.00     0.278 C 
BRANCH   5   6
HETATM    6  C           1     -21.698  -3.839  -7.340  0.00  0.00     0.081 C 
BRANCH   6   7
HETATM    7  C           1     -21.613  -3.933  -8.832  0.00  0.00    -0.056 A 
HETATM    8  C           1     -22.749  -3.708  -9.610  0.00  0.00     0.007 A 
HETATM    9  C           1     -22.670  -3.797 -10.999  0.00  0.00     0.001 A 
HETATM   10  C           1     -21.456  -4.110 -11.611  0.00  0.00     0.000 A 
HETATM   11  C           1     -20.321  -4.336 -10.832  0.00  0.00     0.001 A 
HETATM   12  C           1     -20.399  -4.248  -9.442  0.00  0.00     0.007 A 
ENDBRANCH   6   7
ENDBRANCH   5   6
BRANCH   5  13
HETATM   13  N           1     -23.736  -4.850  -6.384  0.00  0.00    -0.066 N 
HETATM   14  H           1     -24.364  -5.544  -6.849  0.00  0.00     0.275 HD
HETATM   15  H           1     -23.829  -4.937  -5.347  0.00  0.00     0.275 HD
HETATM   16  H           1     -24.006  -3.885  -6.678  0.00  0.00     0.275 HD
ENDBRANCH   5  13
ENDBRANCH   1   5
BRANCH   3  17
HETATM   17  C           1     -21.386  -6.761  -3.451  0.00  0.00     0.210 C 
BRANCH  17  18
HETATM   18  C           1     -20.940  -8.188  -3.652  0.00  0.00     0.198 C 
HETATM   19  O           1     -21.768  -9.060  -3.995  0.00  0.00    -0.646 OA
HETATM   20  O           1     -19.742  -8.500  -3.476  0.00  0.00    -0.646 OA
ENDBRANCH  17  18
BRANCH  17  21
HETATM   21  C           1     -22.266  -6.675  -2.210  0.00  0.00     0.217 C 
BRANCH  21  22
HETATM   22  O           1     -21.532  -7.081  -1.087  0.00  0.00    -0.287 OA
BRANCH  22  23
HETATM   23  P           1     -22.286  -8.089  -0.076  0.00  0.00     0.406 P 
HETATM   24  O           1     -21.474  -8.258   1.150  0.00  0.00    -0.624 OA
HETATM   25  O           1     -22.467  -9.403  -0.733  0.00  0.00    -0.624 OA
BRANCH  23  26
HETATM   26  O           1     -23.729  -7.478   0.315  0.00  0.00    -0.300 OA
HETATM   27  H           1     -24.353  -8.127   0.034  0.00  0.00     0.223 HD
ENDBRANCH  23  26
ENDBRANCH  22  23
ENDBRANCH  21  22
ENDBRANCH  17  21
ENDBRANCH   3  17
TORSDOF 10
ENDMDL
MODEL 4
REMARK VINA RESULT:      -7.2     12.612     14.351
REMARK  10 active torsions:
REMARK  status: ('A' for Active; 'I' for Inactive)
REMARK    1  A    between atoms: C_1  and  C_6 
REMARK    2  A    between atoms: C_1  and  C_2 
REMARK    3  A    between atoms: C_1  and  N_19 
REMARK    4  A    between atoms: C_2  and  C_17 
REMARK       I    between atoms: C_6  and  N_8 
REMARK    5  A    between atoms: N_8  and  C_25 
REMARK    6  A    between atoms: C_11  and  C_25 
REMARK    7  A    between atoms: P_20  and  O_27 
REMARK    8  A    between atoms: P_20  and  O_22 
REMARK    9  A    between atoms: C_25  and  C_26 
REMARK   10  A    between atoms: C_26  and  O_27 
ROOT
HETATM    1  C           1     -34.478  -4.666 -13.718  0.00  0.00     0.249 C 
HETATM    2  O           1     -35.236  -5.505 -14.144  0.00  0.00    -0.271 OA
HETATM    3  N           1     -33.808  -3.846 -14.587  0.00  0.00    -0.343 N 
HETATM    4  H           1     -33.173  -3.142 -14.231  0.00  0.00     0.163 HD
ENDROOT
BRANCH   1   5
HETATM    5  C           1     -34.270  -4.521 -12.232  0.00  0.00     0.278 C 
BRANCH   5   6
HETATM    6  C           1     -33.602  -3.185 -11.938  0.00  0.00     0.081 C 
BRANCH   6   7
HETATM    7  C           1     -34.649  -2.158 -11.635  0.00  0.00    -0.056 A 
HETATM    8  C           1     -35.661  -2.445 -10.720  0.00  0.00     0.007 A 
HETATM    9  C           1     -36.637  -1.489 -10.438  0.00  0.00     0.001 A 
HETATM   10  C           1     -36.601  -0.247 -11.071  0.00  0.00     0.000 A 
HETATM   11  C           1     -35.589   0.038 -11.988  0.00  0.00     0.001 A 
HETATM   12  C           1     -34.612  -0.917 -12.270  0.00  0.00     0.007 A 
ENDBRANCH   6   7
ENDBRANCH   5   6
BRANCH   5  13
HETATM   13  N           1     -33.395  -5.635 -11.739  0.00  0.00    -0.066 N 
HETATM   14  H           1     -32.396  -5.413 -11.951  0.00  0.00     0.275 HD
HETATM   15  H           1     -33.515  -5.745 -10.707  0.00  0.00     0.275 HD
HETATM   16  H           1     -33.662  -6.526 -12.217  0.00  0.00     0.275 HD
ENDBRANCH   5  13
ENDBRANCH   1   5
BRANCH   3  17
HETATM   17  C           1     -34.008  -3.985 -16.016  0.00  0.00     0.210 C 
BRANCH  17  18
HETATM   18  C           1     -32.669  -4.004 -16.712  0.00  0.00     0.198 C 
HETATM   19  O           1     -32.415  -3.165 -17.603  0.00  0.00    -0.646 OA
HETATM   20  O           1     -31.813  -4.859 -16.398  0.00  0.00    -0.646 OA
ENDBRANCH  17  18
BRANCH  17  21
HETATM   21  C           1     -34.829  -2.811 -16.531  0.00  0.00     0.217 C 
BRANCH  21  22
HETATM   22  O           1     -35.077  -1.917 -15.480  0.00  0.00    -0.287 OA
BRANCH  22  23
HETATM   23  P           1     -36.035  -0.664 -15.828  0.00  0.00     0.406 P 
HETATM   24  O           1     -35.327   0.599 -15.524  0.00  0.00    -0.624 OA
HETATM   25  O           1     -37.269  -0.746 -15.015  0.00  0.00    -0.624 OA
BRANCH  23  26
HETATM   26  O           1     -36.420  -0.701 -17.397  0.00  0.00    -0.300 OA
HETATM   27  H           1     -35.610  -0.891 -17.841  0.00  0.00     0.223 HD
ENDBRANCH  23  26
ENDBRANCH  22  23
ENDBRANCH  21  22
ENDBRANCH  17  21
ENDBRANCH   3  17
TORSDOF 10
ENDMDL
MODEL 5
REMARK VINA RESULT:      -7.2     13.025     15.124
REMARK  10 active torsions:
REMARK  status: ('A' for Active; 'I' for Inactive)
REMARK    1  A    between atoms: C_1  and  C_6 
REMARK    2  A    between atoms: C_1  and  C_2 
REMARK    3  A    between atoms: C_1  and  N_19 
REMARK    4  A    between atoms: C_2  and  C_17 
REMARK       I    between atoms: C_6  and  N_8 
REMARK    5  A    between atoms: N_8  and  C_25 
REMARK    6  A    between atoms: C_11  and  C_25 
REMARK    7  A    between atoms: P_20  and  O_27 
REMARK    8  A    between atoms: P_20  and  O_22 
REMARK    9  A    between atoms: C_25  and  C_26 
REMARK   10  A    between atoms: C_26  and  O_27 
ROOT
HETATM    1  C           1     -36.612  -1.111 -10.180  0.00  0.00     0.249 C 
HETATM    2  O           1     -37.611  -1.464 -10.761  0.00  0.00    -0.271 OA
HETATM    3  N           1     -35.398  -1.646 -10.522  0.00  0.00    -0.343 N 
HETATM    4  H           1     -34.560  -1.351 -10.036  0.00  0.00     0.163 HD
ENDROOT
BRANCH   1   5
HETATM    5  C           1     -36.701  -0.083  -9.081  0.00  0.00     0.278 C 
BRANCH   5   6
HETATM    6  C           1     -38.060  -0.182  -8.400  0.00  0.00     0.081 C 
BRANCH   6   7
HETATM    7  C           1     -37.882  -0.106  -6.916  0.00  0.00    -0.056 A 
HETATM    8  C           1     -37.521   1.101  -6.318  0.00  0.00     0.007 A 
HETATM    9  C           1     -37.354   1.172  -4.935  0.00  0.00     0.001 A 
HETATM   10  C           1     -37.548   0.036  -4.150  0.00  0.00     0.000 A 
HETATM   11  C           1     -37.908  -1.172  -4.748  0.00  0.00     0.001 A 
HETATM   12  C           1     -38.075  -1.243  -6.131  0.00  0.00     0.007 A 
ENDBRANCH   6   7
ENDBRANCH   5   6
BRANCH   5  13
HETATM   13  N           1     -36.535   1.288  -9.665  0.00  0.00    -0.066 N 
HETATM   14  H           1     -36.839   1.281 -10.664  0.00  0.00     0.275 HD
HETATM   15  H           1     -37.119   1.970  -9.129  0.00  0.00     0.275 HD
HETATM   16  H           1     -35.530   1.572  -9.608  0.00  0.00     0.275 HD
ENDBRANCH   5  13
ENDBRANCH   1   5
BRANCH   3  17
HETATM   17  C           1     -35.312  -2.635 -11.579  0.00  0.00     0.210 C 
BRANCH  17  18
HETATM   18  C           1     -34.482  -3.804 -11.108  0.00  0.00     0.198 C 
HETATM   19  O           1     -35.018  -4.920 -10.929  0.00  0.00    -0.646 OA
HETATM   20  O           1     -33.259  -3.658 -10.897  0.00  0.00    -0.646 OA
ENDBRANCH  17  18
BRANCH  17  21
HETATM   21  C           1     -34.660  -2.011 -12.805  0.00  0.00     0.217 C 
BRANCH  21  22
HETATM   22  O           1     -35.648  -1.672 -13.739  0.00  0.00    -0.287 OA
BRANCH  22  23
HETATM   23  P           1     -35.923  -0.092 -13.935  0.00  0.00     0.406 P 
HETATM   24  O           1     -35.938   0.232 -15.379  0.00  0.00    -0.624 OA
HETATM   25  O           1     -34.853   0.681 -13.268  0.00  0.00    -0.624 OA
BRANCH  23  26
HETATM   26  O           1     -37.351   0.289 -13.284  0.00  0.00    -0.300 OA
HETATM   27  H           1     -37.344  -0.109 -12.430  0.00  0.00     0.223 HD
ENDBRANCH  23  26
ENDBRANCH  22  23
ENDBRANCH  21  22
ENDBRANCH  17  21
ENDBRANCH   3  17
TORSDOF 10
ENDMDL
MODEL 6
REMARK VINA RESULT:      -7.2     12.442     14.490
REMARK  10 active torsions:
REMARK  status: ('A' for Active; 'I' for Inactive)
REMARK    1  A    between atoms: C_1  and  C_6 
REMARK    2  A    between atoms: C_1  and  C_2 
REMARK    3  A    between atoms: C_1  and  N_19 
REMARK    4  A    between atoms: C_2  and  C_17 
REMARK       I    between atoms: C_6  and  N_8 
REMARK    5  A    between atoms: N_8  and  C_25 
REMARK    6  A    between atoms: C_11  and  C_25 
REMARK    7  A    between atoms: P_20  and  O_27 
REMARK    8  A    between atoms: P_20  and  O_22 
REMARK    9  A    between atoms: C_25  and  C_26 
REMARK   10  A    between atoms: C_26  and  O_27 
ROOT
HETATM    1  C           1     -35.350  -0.079 -12.920  0.00  0.00     0.249 C 
HETATM    2  O           1     -34.624   0.828 -13.252  0.00  0.00    -0.271 OA
HETATM    3  N           1     -36.092  -0.741 -13.862  0.00  0.00    -0.343 N 
HETATM    4  H           1     -36.700  -1.501 -13.584  0.00  0.00     0.163 HD
ENDROOT
BRANCH   1   5
HETATM    5  C           1     -35.438  -0.481 -11.469  0.00  0.00     0.278 C 
BRANCH   5   6
HETATM    6  C           1     -36.148  -1.824 -11.355  0.00  0.00     0.081 C 
BRANCH   6   7
HETATM    7  C           1     -35.133  -2.921 -11.280  0.00  0.00    -0.056 A 
HETATM    8  C           1     -35.511  -4.191 -10.844  0.00  0.00     0.007 A 
HETATM    9  C           1     -34.565  -5.214 -10.773  0.00  0.00     0.001 A 
HETATM   10  C           1     -33.242  -4.967 -11.138  0.00  0.00     0.000 A 
HETATM   11  C           1     -32.864  -3.697 -11.573  0.00  0.00     0.001 A 
HETATM   12  C           1     -33.810  -2.673 -11.644  0.00  0.00     0.007 A 
ENDBRANCH   6   7
ENDBRANCH   5   6
BRANCH   5  13
HETATM   13  N           1     -36.210   0.557 -10.709  0.00  0.00    -0.066 N 
HETATM   14  H           1     -36.352   1.397 -11.313  0.00  0.00     0.275 HD
HETATM   15  H           1     -37.139   0.168 -10.431  0.00  0.00     0.275 HD
HETATM   16  H           1     -35.676   0.829  -9.853  0.00  0.00     0.275 HD
ENDBRANCH   5  13
ENDBRANCH   1   5
BRANCH   3  17
HETATM   17  C           1     -36.007  -0.353 -15.256  0.00  0.00     0.210 C 
BRANCH  17  18
HETATM   18  C           1     -37.398  -0.204 -15.823  0.00  0.00     0.198 C 
HETATM   19  O           1     -37.878   0.935 -16.010  0.00  0.00    -0.646 OA
HETATM   20  O           1     -38.071  -1.219 -16.105  0.00  0.00    -0.646 OA
ENDBRANCH  17  18
BRANCH  17  21
HETATM   21  C           1     -35.255  -1.424 -16.035  0.00  0.00     0.217 C 
BRANCH  21  22
HETATM   22  O           1     -34.941  -2.490 -15.182  0.00  0.00    -0.287 OA
BRANCH  22  23
HETATM   23  P           1     -34.160  -3.732 -15.859  0.00  0.00     0.406 P 
HETATM   24  O           1     -33.031  -4.137 -14.993  0.00  0.00    -0.624 OA
HETATM   25  O           1     -33.644  -3.326 -17.185  0.00  0.00    -0.624 OA
BRANCH  23  26
HETATM   26  O           1     -35.178  -4.975 -16.032  0.00  0.00    -0.300 OA
HETATM   27  H           1     -34.777  -5.528 -16.681  0.00  0.00     0.223 HD
ENDBRANCH  23  26
ENDBRANCH  22  23
ENDBRANCH  21  22
ENDBRANCH  17  21
ENDBRANCH   3  17
TORSDOF 10
ENDMDL
MODEL 7
REMARK VINA RESULT:      -7.2      2.028      3.235
REMARK  10 active torsions:
REMARK  status: ('A' for Active; 'I' for Inactive)
REMARK    1  A    between atoms: C_1  and  C_6 
REMARK    2  A    between atoms: C_1  and  C_2 
REMARK    3  A    between atoms: C_1  and  N_19 
REMARK    4  A    between atoms: C_2  and  C_17 
REMARK       I    between atoms: C_6  and  N_8 
REMARK    5  A    between atoms: N_8  and  C_25 
REMARK    6  A    between atoms: C_11  and  C_25 
REMARK    7  A    between atoms: P_20  and  O_27 
REMARK    8  A    between atoms: P_20  and  O_22 
REMARK    9  A    between atoms: C_25  and  C_26 
REMARK   10  A    between atoms: C_26  and  O_27 
ROOT
HETATM    1  C           1     -20.999  -5.928  -6.411  0.00  0.00     0.249 C 
HETATM    2  O           1     -20.948  -6.958  -7.041  0.00  0.00    -0.271 OA
HETATM    3  N           1     -21.297  -4.752  -7.047  0.00  0.00    -0.343 N 
HETATM    4  H           1     -21.340  -3.889  -6.520  0.00  0.00     0.163 HD
ENDROOT
BRANCH   1   5
HETATM    5  C           1     -20.735  -5.938  -4.926  0.00  0.00     0.278 C 
BRANCH   5   6
HETATM    6  C           1     -22.032  -6.223  -4.180  0.00  0.00     0.081 C 
BRANCH   6   7
HETATM    7  C           1     -21.723  -6.907  -2.885  0.00  0.00    -0.056 A 
HETATM    8  C           1     -22.372  -6.509  -1.716  0.00  0.00     0.007 A 
HETATM    9  C           1     -22.084  -7.145  -0.509  0.00  0.00     0.001 A 
HETATM   10  C           1     -21.148  -8.179  -0.470  0.00  0.00     0.000 A 
HETATM   11  C           1     -20.499  -8.575  -1.640  0.00  0.00     0.001 A 
HETATM   12  C           1     -20.787  -7.939  -2.848  0.00  0.00     0.007 A 
ENDBRANCH   6   7
ENDBRANCH   5   6
BRANCH   5  13
HETATM   13  N           1     -20.202  -4.600  -4.506  0.00  0.00    -0.066 N 
HETATM   14  H           1     -19.160  -4.644  -4.445  0.00  0.00     0.275 HD
HETATM   15  H           1     -20.479  -3.877  -5.207  0.00  0.00     0.275 HD
HETATM   16  H           1     -20.595  -4.347  -3.571  0.00  0.00     0.275 HD
ENDBRANCH   5  13
ENDBRANCH   1   5
BRANCH   3  17
HETATM   17  C           1     -21.550  -4.744  -8.475  0.00  0.00     0.210 C 
BRANCH  17  18
HETATM   18  C           1     -20.284  -4.370  -9.208  0.00  0.00     0.198 C 
HETATM   19  O           1     -20.109  -4.748 -10.387  0.00  0.00    -0.646 OA
HETATM   20  O           1     -19.410  -3.683  -8.637  0.00  0.00    -0.646 OA
ENDBRANCH  17  18
BRANCH  17  21
HETATM   21  C           1     -22.637  -3.726  -8.791  0.00  0.00     0.217 C 
BRANCH  21  22
HETATM   22  O           1     -23.617  -4.323  -9.597  0.00  0.00    -0.287 OA
BRANCH  22  23
HETATM   23  P           1     -23.706  -3.786 -11.117  0.00  0.00     0.406 P 
HETATM   24  O           1     -22.637  -2.791 -11.354  0.00  0.00    -0.624 OA
HETATM   25  O           1     -25.026  -3.154 -11.340  0.00  0.00    -0.624 OA
BRANCH  23  26
HETATM   26  O           1     -23.522  -5.026 -12.137  0.00  0.00    -0.300 OA
HETATM   27  H           1     -23.587  -5.796 -11.598  0.00  0.00     0.223 HD
ENDBRANCH  23  26
ENDBRANCH  22  23
ENDBRANCH  21  22
ENDBRANCH  17  21
ENDBRANCH   3  17
TORSDOF 10
ENDMDL
MODEL 8
REMARK VINA RESULT:      -7.0      5.290      8.939
REMARK  10 active torsions:
REMARK  status: ('A' for Active; 'I' for Inactive)
REMARK    1  A    between atoms: C_1  and  C_6 
REMARK    2  A    between atoms: C_1  and  C_2 
REMARK    3  A    between atoms: C_1  and  N_19 
REMARK    4  A    between atoms: C_2  and  C_17 
REMARK       I    between atoms: C_6  and  N_8 
REMARK    5  A    between atoms: N_8  and  C_25 
REMARK    6  A    between atoms: C_11  and  C_25 
REMARK    7  A    between atoms: P_20  and  O_27 
REMARK    8  A    between atoms: P_20  and  O_22 
REMARK    9  A    between atoms: C_25  and  C_26 
REMARK   10  A    between atoms: C_26  and  O_27 
ROOT
HETATM    1  C           1     -21.180  -5.146  -6.048  0.00  0.00     0.249 C 
HETATM    2  O           1     -19.989  -4.979  -5.932  0.00  0.00    -0.271 OA
HETATM    3  N           1     -21.851  -5.934  -5.150  0.00  0.00    -0.343 N 
HETATM    4  H           1     -22.848  -6.074  -5.247  0.00  0.00     0.163 HD
ENDROOT
BRANCH   1   5
HETATM    5  C           1     -21.927  -4.486  -7.179  0.00  0.00     0.278 C 
BRANCH   5   6
HETATM    6  C           1     -21.482  -5.091  -8.505  0.00  0.00     0.081 C 
BRANCH   6   7
HETATM    7  C           1     -22.110  -4.335  -9.634  0.00  0.00    -0.056 A 
HETATM    8  C           1     -23.494  -4.164  -9.674  0.00  0.00     0.007 A 
HETATM    9  C           1     -24.079  -3.461 -10.727  0.00  0.00     0.001 A 
HETATM   10  C           1     -23.281  -2.928 -11.739  0.00  0.00     0.000 A 
HETATM   11  C           1     -21.897  -3.100 -11.699  0.00  0.00     0.001 A 
HETATM   12  C           1     -21.311  -3.804 -10.646  0.00  0.00     0.007 A 
ENDBRANCH   6   7
ENDBRANCH   5   6
BRANCH   5  13
HETATM   13  N           1     -21.636  -3.015  -7.179  0.00  0.00    -0.066 N 
HETATM   14  H           1     -21.265  -2.733  -6.244  0.00  0.00     0.275 HD
HETATM   15  H           1     -20.925  -2.799  -7.915  0.00  0.00     0.275 HD
HETATM   16  H           1     -22.514  -2.486  -7.380  0.00  0.00     0.275 HD
ENDBRANCH   5  13
ENDBRANCH   1   5
BRANCH   3  17
HETATM   17  C           1     -21.131  -6.569  -4.063  0.00  0.00     0.210 C 
BRANCH  17  18
HETATM   18  C           1     -20.828  -8.002  -4.428  0.00  0.00     0.198 C 
HETATM   19  O           1     -21.717  -8.874  -4.328  0.00  0.00    -0.646 OA
HETATM   20  O           1     -19.688  -8.316  -4.832  0.00  0.00    -0.646 OA
ENDBRANCH  17  18
BRANCH  17  21
HETATM   21  C           1     -21.986  -6.537  -2.803  0.00  0.00     0.217 C 
BRANCH  21  22
HETATM   22  O           1     -21.224  -6.973  -1.710  0.00  0.00    -0.287 OA
BRANCH  22  23
HETATM   23  P           1     -21.967  -7.978  -0.687  0.00  0.00     0.406 P 
HETATM   24  O           1     -23.201  -7.340  -0.176  0.00  0.00    -0.624 OA
HETATM   25  O           1     -21.065  -8.283   0.446  0.00  0.00    -0.624 OA
BRANCH  23  26
HETATM   26  O           1     -22.348  -9.345  -1.457  0.00  0.00    -0.300 OA
HETATM   27  H           1     -22.870  -9.073  -2.193  0.00  0.00     0.223 HD
ENDBRANCH  23  26
ENDBRANCH  22  23
ENDBRANCH  21  22
ENDBRANCH  17  21
ENDBRANCH   3  17
TORSDOF 10
ENDMDL
MODEL 9
REMARK VINA RESULT:      -7.0      2.120      3.411
REMARK  10 active torsions:
REMARK  status: ('A' for Active; 'I' for Inactive)
REMARK    1  A    between atoms: C_1  and  C_6 
REMARK    2  A    between atoms: C_1  and  C_2 
REMARK    3  A    between atoms: C_1  and  N_19 
REMARK    4  A    between atoms: C_2  and  C_17 
REMARK       I    between atoms: C_6  and  N_8 
REMARK    5  A    between atoms: N_8  and  C_25 
REMARK    6  A    between atoms: C_11  and  C_25 
REMARK    7  A    between atoms: P_20  and  O_27 
REMARK    8  A    between atoms: P_20  and  O_22 
REMARK    9  A    between atoms: C_25  and  C_26 
REMARK   10  A    between atoms: C_26  and  O_27 
ROOT
HETATM    1  C           1     -21.554  -6.531  -5.995  0.00  0.00     0.249 C 
HETATM    2  O           1     -20.707  -7.022  -6.703  0.00  0.00    -0.271 OA
HETATM    3  N           1     -22.248  -5.430  -6.422  0.00  0.00    -0.343 N 
HETATM    4  H           1     -22.958  -5.019  -5.830  0.00  0.00     0.163 HD
ENDROOT
BRANCH   1   5
HETATM    5  C           1     -21.845  -7.128  -4.641  0.00  0.00     0.278 C 
BRANCH   5   6
HETATM    6  C           1     -20.908  -6.522  -3.604  0.00  0.00     0.081 C 
BRANCH   6   7
HETATM    7  C           1     -21.234  -7.075  -2.252  0.00  0.00    -0.056 A 
HETATM    8  C           1     -20.436  -8.076  -1.698  0.00  0.00     0.007 A 
HETATM    9  C           1     -20.740  -8.592  -0.438  0.00  0.00     0.001 A 
HETATM   10  C           1     -21.842  -8.108   0.267  0.00  0.00     0.000 A 
HETATM   11  C           1     -22.641  -7.108  -0.289  0.00  0.00     0.001 A 
HETATM   12  C           1     -22.337  -6.592  -1.549  0.00  0.00     0.007 A 
ENDBRANCH   6   7
ENDBRANCH   5   6
BRANCH   5  13
HETATM   13  N           1     -21.635  -8.613  -4.695  0.00  0.00    -0.066 N 
HETATM   14  H           1     -21.315  -8.953  -3.760  0.00  0.00     0.275 HD
HETATM   15  H           1     -22.533  -9.084  -4.948  0.00  0.00     0.275 HD
HETATM   16  H           1     -20.910  -8.836  -5.414  0.00  0.00     0.275 HD
ENDBRANCH   5  13
ENDBRANCH   1   5
BRANCH   3  17
HETATM   17  C           1     -21.968  -4.856  -7.724  0.00  0.00     0.210 C 
BRANCH  17  18
HETATM   18  C           1     -20.922  -3.777  -7.583  0.00  0.00     0.198 C 
HETATM   19  O           1     -21.131  -2.798  -6.833  0.00  0.00    -0.646 OA
HETATM   20  O           1     -19.847  -3.860  -8.215  0.00  0.00    -0.646 OA
ENDBRANCH  17  18
BRANCH  17  21
HETATM   21  C           1     -23.243  -4.254  -8.298  0.00  0.00     0.217 C 
BRANCH  21  22
HETATM   22  O           1     -22.925  -3.447  -9.399  0.00  0.00    -0.287 OA
BRANCH  22  23
HETATM   23  P           1     -23.858  -3.631 -10.704  0.00  0.00     0.406 P 
HETATM   24  O           1     -25.260  -3.302 -10.360  0.00  0.00    -0.624 OA
HETATM   25  O           1     -23.782  -5.033 -11.172  0.00  0.00    -0.624 OA
BRANCH  23  26
HETATM   26  O           1     -23.346  -2.642 -11.875  0.00  0.00    -0.300 OA
HETATM   27  H           1     -23.828  -2.902 -12.642  0.00  0.00     0.223 HD
ENDBRANCH  23  26
ENDBRANCH  22  23
ENDBRANCH  21  22
ENDBRANCH  17  21
ENDBRANCH   3  17
TORSDOF 10
ENDMDL
