MODEL 1
REMARK VINA RESULT:      -7.5      0.000      0.000
REMARK  9 active torsions:
REMARK  status: ('A' for Active; 'I' for Inactive)
REMARK    1  A    between atoms: C_2  and  C_4 
REMARK    2  A    between atoms: C_2  and  C_3 
REMARK    3  A    between atoms: C_4  and  C_19 
REMARK    4  A    between atoms: C_7  and  C_9 
REMARK    5  A    between atoms: C_9  and  C_26 
REMARK    6  A    between atoms: C_9  and  N_11 
REMARK       I    between atoms: N_11  and  C_29 
REMARK    7  A    between atoms: C_19  and  C_29 
REMARK    8  A    between atoms: C_19  and  N_25 
REMARK    9  A    between atoms: C_26  and  C_27 
ROOT
HETATM    1  C           1     -20.150  -7.296  -5.384  0.00  0.00     0.190 C 
ENDROOT
BRANCH   1   2
HETATM    2  C           1     -19.140  -8.411  -5.268  0.00  0.00     0.197 C 
HETATM    3  O           1     -18.851  -8.878  -4.146  0.00  0.00    -0.646 OA
HETATM    4  O           1     -18.592  -8.866  -6.294  0.00  0.00    -0.646 OA
ENDBRANCH   1   2
BRANCH   1   5
HETATM    5  C           1     -21.510  -7.790  -4.907  0.00  0.00     0.077 C 
BRANCH   5   6
HETATM    6  C           1     -21.779  -7.263  -3.533  0.00  0.00    -0.028 A 
HETATM    7  C           1     -21.849  -8.032  -2.339  0.00  0.00    -0.002 A 
HETATM    8  C           1     -22.119  -7.147  -1.295  0.00  0.00     0.042 A 
HETATM    9  C           1     -21.708  -9.402  -2.046  0.00  0.00     0.014 A 
HETATM   10  C           1     -22.256  -7.565   0.035  0.00  0.00     0.030 A 
HETATM   11  N           1     -22.209  -5.888  -1.845  0.00  0.00    -0.365 N 
HETATM   12  C           1     -22.111  -8.930   0.300  0.00  0.00     0.002 A 
HETATM   13  C           1     -21.841  -9.837  -0.722  0.00  0.00     0.001 A 
HETATM   14  H           1     -22.405  -5.009  -1.305  0.00  0.00     0.165 HD
HETATM   15  C           1     -22.005  -5.947  -3.198  0.00  0.00     0.096 A 
ENDBRANCH   5   6
ENDBRANCH   1   5
BRANCH   1  16
HETATM   16  N           1     -20.248  -6.874  -6.768  0.00  0.00    -0.344 N 
HETATM   17  H           1     -20.281  -7.566  -7.506  0.00  0.00     0.163 HD
HETATM   18  C           1     -20.296  -5.542  -7.076  0.00  0.00     0.249 C 
HETATM   19  O           1     -19.273  -4.931  -7.279  0.00  0.00    -0.271 OA
BRANCH  18  20
HETATM   20  C           1     -21.626  -4.834  -7.161  0.00  0.00     0.275 C 
BRANCH  20  21
HETATM   21  C           1     -22.166  -4.937  -8.582  0.00  0.00     0.053 C 
BRANCH  21  22
HETATM   22  C           1     -23.059  -3.739  -8.874  0.00  0.00     0.115 C 
BRANCH  22  23
HETATM   23  C           1     -24.100  -4.123  -9.897  0.00  0.00     0.172 C 
HETATM   24  O           1     -23.994  -5.200 -10.521  0.00  0.00    -0.648 OA
HETATM   25  O           1     -25.067  -3.364 -10.121  0.00  0.00    -0.648 OA
ENDBRANCH  22  23
ENDBRANCH  21  22
ENDBRANCH  20  21
BRANCH  20  26
HETATM   26  N           1     -21.448  -3.389  -6.799  0.00  0.00    -0.066 N 
HETATM   27  H           1     -21.856  -3.214  -5.854  0.00  0.00     0.275 HD
HETATM   28  H           1     -20.428  -3.157  -6.786  0.00  0.00     0.275 HD
HETATM   29  H           1     -21.932  -2.791  -7.505  0.00  0.00     0.275 HD
ENDBRANCH  20  26
ENDBRANCH  18  20
ENDBRANCH   1  16
TORSDOF 9
ENDMDL
MODEL 2
REMARK VINA RESULT:      -7.5      2.601      8.227
REMARK  9 active torsions:
REMARK  status: ('A' for Active; 'I' for Inactive)
REMARK    1  A    between atoms: C_2  and  C_4 
REMARK    2  A    between atoms: C_2  and  C_3 
REMARK    3  A    between atoms: C_4  and  C_19 
REMARK    4  A    between atoms: C_7  and  C_9 
REMARK    5  A    between atoms: C_9  and  C_26 
REMARK    6  A    between atoms: C_9  and  N_11 
REMARK       I    between atoms: N_11  and  C_29 
REMARK    7  A    between atoms: C_19  and  C_29 
REMARK    8  A    between atoms: C_19  and  N_25 
REMARK    9  A    between atoms: C_26  and  C_27 
ROOT
HETATM    1  C           1     -21.437  -4.914  -7.503  0.00  0.00     0.190 C 
ENDROOT
BRANCH   1   2
HETATM    2  C           1     -19.984  -5.316  -7.575  0.00  0.00     0.197 C 
HETATM    3  O           1     -19.095  -4.440  -7.627  0.00  0.00    -0.646 OA
HETATM    4  O           1     -19.671  -6.526  -7.582  0.00  0.00    -0.646 OA
ENDBRANCH   1   2
BRANCH   1   5
HETATM    5  C           1     -21.634  -3.590  -8.231  0.00  0.00     0.077 C 
BRANCH   5   6
HETATM    6  C           1     -22.846  -3.675  -9.104  0.00  0.00    -0.028 A 
HETATM    7  C           1     -22.895  -3.404 -10.500  0.00  0.00    -0.002 A 
HETATM    8  C           1     -24.213  -3.605 -10.911  0.00  0.00     0.042 A 
HETATM    9  C           1     -21.941  -3.005 -11.454  0.00  0.00     0.014 A 
HETATM   10  C           1     -24.626  -3.426 -12.237  0.00  0.00     0.030 A 
HETATM   11  N           1     -24.931  -3.984  -9.800  0.00  0.00    -0.365 N 
HETATM   12  C           1     -23.660  -3.030 -13.167  0.00  0.00     0.002 A 
HETATM   13  C           1     -22.337  -2.822 -12.784  0.00  0.00     0.001 A 
HETATM   14  H           1     -25.957  -4.207  -9.794  0.00  0.00     0.165 HD
HETATM   15  C           1     -24.114  -4.030  -8.701  0.00  0.00     0.096 A 
ENDBRANCH   5   6
ENDBRANCH   1   5
BRANCH   1  16
HETATM   16  N           1     -21.829  -4.765  -6.116  0.00  0.00    -0.344 N 
HETATM   17  H           1     -22.551  -4.102  -5.863  0.00  0.00     0.163 HD
HETATM   18  C           1     -21.224  -5.521  -5.148  0.00  0.00     0.249 C 
HETATM   19  O           1     -20.230  -5.111  -4.596  0.00  0.00    -0.271 OA
BRANCH  18  20
HETATM   20  C           1     -21.796  -6.865  -4.773  0.00  0.00     0.275 C 
BRANCH  20  21
HETATM   21  C           1     -21.322  -7.247  -3.376  0.00  0.00     0.053 C 
BRANCH  21  22
HETATM   22  C           1     -22.122  -6.473  -2.338  0.00  0.00     0.115 C 
BRANCH  22  23
HETATM   23  C           1     -22.104  -7.220  -1.027  0.00  0.00     0.172 C 
HETATM   24  O           1     -21.084  -7.854  -0.683  0.00  0.00    -0.648 OA
HETATM   25  O           1     -23.110  -7.205  -0.285  0.00  0.00    -0.648 OA
ENDBRANCH  22  23
ENDBRANCH  21  22
ENDBRANCH  20  21
BRANCH  20  26
HETATM   26  N           1     -21.333  -7.898  -5.756  0.00  0.00    -0.066 N 
HETATM   27  H           1     -22.158  -8.413  -6.136  0.00  0.00     0.275 HD
HETATM   28  H           1     -20.825  -7.429  -6.540  0.00  0.00     0.275 HD
HETATM   29  H           1     -20.692  -8.572  -5.279  0.00  0.00     0.275 HD
ENDBRANCH  20  26
ENDBRANCH  18  20
ENDBRANCH   1  16
TORSDOF 9
ENDMDL
MODEL 3
REMARK VINA RESULT:      -7.4      2.121      3.199
REMARK  9 active torsions:
REMARK  status: ('A' for Active; 'I' for Inactive)
REMARK    1  A    between atoms: C_2  and  C_4 
REMARK    2  A    between atoms: C_2  and  C_3 
REMARK    3  A    between atoms: C_4  and  C_19 
REMARK    4  A    between atoms: C_7  and  C_9 
REMARK    5  A    between atoms: C_9  and  C_26 
REMARK    6  A    between atoms: C_9  and  N_11 
REMARK       I    between atoms: N_11  and  C_29 
REMARK    7  A    between atoms: C_19  and  C_29 
REMARK    8  A    between atoms: C_19  and  N_25 
REMARK    9  A    between atoms: C_26  and  C_27 
ROOT
HETATM    1  C           1     -20.769  -5.056  -6.373  0.00  0.00     0.190 C 
ENDROOT
BRANCH   1   2
HETATM    2  C           1     -19.657  -5.175  -7.387  0.00  0.00     0.197 C 
HETATM    3  O           1     -19.765  -5.974  -8.341  0.00  0.00    -0.646 OA
HETATM    4  O           1     -18.628  -4.475  -7.271  0.00  0.00    -0.646 OA
ENDBRANCH   1   2
BRANCH   1   5
HETATM    5  C           1     -21.494  -6.390  -6.254  0.00  0.00     0.077 C 
BRANCH   5   6
HETATM    6  C           1     -20.889  -7.190  -5.144  0.00  0.00    -0.028 A 
HETATM    7  C           1     -21.236  -7.110  -3.766  0.00  0.00    -0.002 A 
HETATM    8  C           1     -20.431  -8.024  -3.086  0.00  0.00     0.042 A 
HETATM    9  C           1     -22.160  -6.344  -3.032  0.00  0.00     0.014 A 
HETATM   10  C           1     -20.506  -8.212  -1.700  0.00  0.00     0.030 A 
HETATM   11  N           1     -19.628  -8.633  -4.024  0.00  0.00    -0.365 N 
HETATM   12  C           1     -21.432  -7.440  -0.993  0.00  0.00     0.002 A 
HETATM   13  C           1     -22.248  -6.519  -1.646  0.00  0.00     0.001 A 
HETATM   14  H           1     -18.913  -9.372  -3.814  0.00  0.00     0.165 HD
HETATM   15  C           1     -19.897  -8.136  -5.272  0.00  0.00     0.096 A 
ENDBRANCH   5   6
ENDBRANCH   1   5
BRANCH   1  16
HETATM   16  N           1     -21.705  -4.034  -6.801  0.00  0.00    -0.344 N 
HETATM   17  H           1     -21.457  -3.056  -6.720  0.00  0.00     0.163 HD
HETATM   18  C           1     -22.922  -4.393  -7.314  0.00  0.00     0.249 C 
HETATM   19  O           1     -23.872  -4.527  -6.579  0.00  0.00    -0.271 OA
BRANCH  18  20
HETATM   20  C           1     -23.077  -4.622  -8.797  0.00  0.00     0.275 C 
BRANCH  20  21
HETATM   21  C           1     -22.246  -3.598  -9.560  0.00  0.00     0.053 C 
BRANCH  21  22
HETATM   22  C           1     -22.064  -4.061 -10.999  0.00  0.00     0.115 C 
BRANCH  22  23
HETATM   23  C           1     -22.882  -3.187 -11.917  0.00  0.00     0.172 C 
HETATM   24  O           1     -22.469  -2.934 -13.069  0.00  0.00    -0.648 OA
HETATM   25  O           1     -23.971  -2.716 -11.526  0.00  0.00    -0.648 OA
ENDBRANCH  22  23
ENDBRANCH  21  22
ENDBRANCH  20  21
BRANCH  20  26
HETATM   26  N           1     -24.521  -4.475  -9.177  0.00  0.00    -0.066 N 
HETATM   27  H           1     -25.090  -4.290  -8.321  0.00  0.00     0.275 HD
HETATM   28  H           1     -24.625  -3.675  -9.843  0.00  0.00     0.275 HD
HETATM   29  H           1     -24.853  -5.354  -9.633  0.00  0.00     0.275 HD
ENDBRANCH  20  26
ENDBRANCH  18  20
ENDBRANCH   1  16
TORSDOF 9
ENDMDL
MODEL 4
REMARK VINA RESULT:      -7.3      2.679      7.955
REMARK  9 active torsions:
REMARK  status: ('A' for Active; 'I' for Inactive)
REMARK    1  A    between atoms: C_2  and  C_4 
REMARK    2  A    between atoms: C_2  and  C_3 
REMARK    3  A    between atoms: C_4  and  C_19 
REMARK    4  A    between atoms: C_7  and  C_9 
REMARK    5  A    between atoms: C_9  and  C_26 
REMARK    6  A    between atoms: C_9  and  N_11 
REMARK       I    between atoms: N_11  and  C_29 
REMARK    7  A    between atoms: C_19  and  C_29 
REMARK    8  A    between atoms: C_19  and  N_25 
REMARK    9  A    between atoms: C_26  and  C_27 
ROOT
HETATM    1  C           1     -21.877  -6.606  -5.745  0.00  0.00     0.190 C 
ENDROOT
BRANCH   1   2
HETATM    2  C           1     -20.899  -7.753  -5.663  0.00  0.00     0.197 C 
HETATM    3  O           1     -19.670  -7.527  -5.654  0.00  0.00    -0.646 OA
HETATM    4  O           1     -21.318  -8.928  -5.605  0.00  0.00    -0.646 OA
ENDBRANCH   1   2
BRANCH   1   5
HETATM    5  C           1     -21.171  -5.374  -6.296  0.00  0.00     0.077 C 
BRANCH   5   6
HETATM    6  C           1     -22.000  -4.767  -7.383  0.00  0.00    -0.028 A 
HETATM    7  C           1     -21.567  -4.477  -8.707  0.00  0.00    -0.002 A 
HETATM    8  C           1     -22.653  -3.921  -9.383  0.00  0.00     0.042 A 
HETATM    9  C           1     -20.349  -4.635  -9.395  0.00  0.00     0.014 A 
HETATM   10  C           1     -22.583  -3.514 -10.721  0.00  0.00     0.030 A 
HETATM   11  N           1     -23.704  -3.879  -8.494  0.00  0.00    -0.365 N 
HETATM   12  C           1     -21.363  -3.681 -11.383  0.00  0.00     0.002 A 
HETATM   13  C           1     -20.262  -4.233 -10.733  0.00  0.00     0.001 A 
HETATM   14  H           1     -24.662  -3.510  -8.714  0.00  0.00     0.165 HD
HETATM   15  C           1     -23.320  -4.388  -7.282  0.00  0.00     0.096 A 
ENDBRANCH   5   6
ENDBRANCH   1   5
BRANCH   1  16
HETATM   16  N           1     -22.392  -6.315  -4.421  0.00  0.00    -0.344 N 
HETATM   17  H           1     -23.351  -6.013  -4.307  0.00  0.00     0.163 HD
HETATM   18  C           1     -21.582  -6.450  -3.327  0.00  0.00     0.249 C 
HETATM   19  O           1     -20.922  -5.512  -2.944  0.00  0.00    -0.271 OA
BRANCH  18  20
HETATM   20  C           1     -21.512  -7.769  -2.597  0.00  0.00     0.275 C 
BRANCH  20  21
HETATM   21  C           1     -21.935  -7.571  -1.147  0.00  0.00     0.053 C 
BRANCH  21  22
HETATM   22  C           1     -22.348  -8.910  -0.551  0.00  0.00     0.115 C 
BRANCH  22  23
HETATM   23  C           1     -21.409  -9.273   0.573  0.00  0.00     0.172 C 
HETATM   24  O           1     -20.890 -10.409   0.611  0.00  0.00    -0.648 OA
HETATM   25  O           1     -21.152  -8.439   1.467  0.00  0.00    -0.648 OA
ENDBRANCH  22  23
ENDBRANCH  21  22
ENDBRANCH  20  21
BRANCH  20  26
HETATM   26  N           1     -20.105  -8.290  -2.640  0.00  0.00    -0.066 N 
HETATM   27  H           1     -20.000  -8.944  -3.447  0.00  0.00     0.275 HD
HETATM   28  H           1     -19.442  -7.490  -2.752  0.00  0.00     0.275 HD
HETATM   29  H           1     -19.895  -8.797  -1.751  0.00  0.00     0.275 HD
ENDBRANCH  20  26
ENDBRANCH  18  20
ENDBRANCH   1  16
TORSDOF 9
ENDMDL
MODEL 5
REMARK VINA RESULT:      -7.2      2.146      2.755
REMARK  9 active torsions:
REMARK  status: ('A' for Active; 'I' for Inactive)
REMARK    1  A    between atoms: C_2  and  C_4 
REMARK    2  A    between atoms: C_2  and  C_3 
REMARK    3  A    between atoms: C_4  and  C_19 
REMARK    4  A    between atoms: C_7  and  C_9 
REMARK    5  A    between atoms: C_9  and  C_26 
REMARK    6  A    between atoms: C_9  and  N_11 
REMARK       I    between atoms: N_11  and  C_29 
REMARK    7  A    between atoms: C_19  and  C_29 
REMARK    8  A    between atoms: C_19  and  N_25 
REMARK    9  A    between atoms: C_26  and  C_27 
ROOT
HETATM    1  C           1     -21.301  -7.081  -5.976  0.00  0.00     0.190 C 
ENDROOT
BRANCH   1   2
HETATM    2  C           1     -22.036  -6.165  -5.027  0.00  0.00     0.197 C 
HETATM    3  O           1     -21.407  -5.549  -4.141  0.00  0.00    -0.646 OA
HETATM    4  O           1     -23.273  -6.024  -5.128  0.00  0.00    -0.646 OA
ENDBRANCH   1   2
BRANCH   1   5
HETATM    5  C           1     -20.193  -7.808  -5.225  0.00  0.00     0.077 C 
BRANCH   5   6
HETATM    6  C           1     -20.785  -8.916  -4.412  0.00  0.00    -0.028 A 
HETATM    7  C           1     -20.971  -8.915  -3.001  0.00  0.00    -0.002 A 
HETATM    8  C           1     -21.549 -10.138  -2.662  0.00  0.00     0.042 A 
HETATM    9  C           1     -20.699  -7.986  -1.979  0.00  0.00     0.014 A 
HETATM   10  C           1     -21.873 -10.480  -1.343  0.00  0.00     0.030 A 
HETATM   11  N           1     -21.706 -10.849  -3.830  0.00  0.00    -0.365 N 
HETATM   12  C           1     -21.595  -9.542  -0.345  0.00  0.00     0.002 A 
HETATM   13  C           1     -21.017  -8.313  -0.655  0.00  0.00     0.001 A 
HETATM   14  H           1     -22.118 -11.813  -3.896  0.00  0.00     0.165 HD
HETATM   15  C           1     -21.247 -10.120  -4.894  0.00  0.00     0.096 A 
ENDBRANCH   5   6
ENDBRANCH   1   5
BRANCH   1  16
HETATM   16  N           1     -20.722  -6.298  -7.051  0.00  0.00    -0.344 N 
HETATM   17  H           1     -19.952  -6.673  -7.590  0.00  0.00     0.163 HD
HETATM   18  C           1     -21.217  -5.055  -7.335  0.00  0.00     0.249 C 
HETATM   19  O           1     -20.757  -4.081  -6.787  0.00  0.00    -0.271 OA
BRANCH  18  20
HETATM   20  C           1     -22.338  -4.899  -8.334  0.00  0.00     0.275 C 
BRANCH  20  21
HETATM   21  C           1     -21.854  -4.068  -9.516  0.00  0.00     0.053 C 
BRANCH  21  22
HETATM   22  C           1     -22.667  -4.423 -10.753  0.00  0.00     0.115 C 
BRANCH  22  23
HETATM   23  C           1     -23.572  -3.269 -11.110  0.00  0.00     0.172 C 
HETATM   24  O           1     -23.301  -2.543 -12.090  0.00  0.00    -0.648 OA
HETATM   25  O           1     -24.592  -3.039 -10.425  0.00  0.00    -0.648 OA
ENDBRANCH  22  23
ENDBRANCH  21  22
ENDBRANCH  20  21
BRANCH  20  26
HETATM   26  N           1     -23.497  -4.208  -7.680  0.00  0.00    -0.066 N 
HETATM   27  H           1     -23.532  -4.466  -6.669  0.00  0.00     0.275 HD
HETATM   28  H           1     -23.382  -3.173  -7.771  0.00  0.00     0.275 HD
HETATM   29  H           1     -24.386  -4.502  -8.145  0.00  0.00     0.275 HD
ENDBRANCH  20  26
ENDBRANCH  18  20
ENDBRANCH   1  16
TORSDOF 9
ENDMDL
MODEL 6
REMARK VINA RESULT:      -7.0      2.436      7.966
REMARK  9 active torsions:
REMARK  status: ('A' for Active; 'I' for Inactive)
REMARK    1  A    between atoms: C_2  and  C_4 
REMARK    2  A    between atoms: C_2  and  C_3 
REMARK    3  A    between atoms: C_4  and  C_19 
REMARK    4  A    between atoms: C_7  and  C_9 
REMARK    5  A    between atoms: C_9  and  C_26 
REMARK    6  A    between atoms: C_9  and  N_11 
REMARK       I    between atoms: N_11  and  C_29 
REMARK    7  A    between atoms: C_19  and  C_29 
REMARK    8  A    between atoms: C_19  and  N_25 
REMARK    9  A    between atoms: C_26  and  C_27 
ROOT
HETATM    1  C           1     -20.058  -5.543  -7.163  0.00  0.00     0.190 C 
ENDROOT
BRANCH   1   2
HETATM    2  C           1     -20.286  -4.369  -6.243  0.00  0.00     0.197 C 
HETATM    3  O           1     -19.572  -4.222  -5.228  0.00  0.00    -0.646 OA
HETATM    4  O           1     -21.190  -3.544  -6.496  0.00  0.00    -0.646 OA
ENDBRANCH   1   2
BRANCH   1   5
HETATM    5  C           1     -21.294  -5.763  -8.024  0.00  0.00     0.077 C 
BRANCH   5   6
HETATM    6  C           1     -21.168  -4.974  -9.290  0.00  0.00    -0.028 A 
HETATM    7  C           1     -22.229  -4.335  -9.989  0.00  0.00    -0.002 A 
HETATM    8  C           1     -21.671  -3.718 -11.109  0.00  0.00     0.042 A 
HETATM    9  C           1     -23.616  -4.224  -9.775  0.00  0.00     0.014 A 
HETATM   10  C           1     -22.434  -2.990 -12.030  0.00  0.00     0.030 A 
HETATM   11  N           1     -20.319  -3.978 -11.082  0.00  0.00    -0.365 N 
HETATM   12  C           1     -23.809  -2.893 -11.796  0.00  0.00     0.002 A 
HETATM   13  C           1     -24.394  -3.500 -10.687  0.00  0.00     0.001 A 
HETATM   14  H           1     -19.628  -3.643 -11.798  0.00  0.00     0.165 HD
HETATM   15  C           1     -20.004  -4.737  -9.986  0.00  0.00     0.096 A 
ENDBRANCH   5   6
ENDBRANCH   1   5
BRANCH   1  16
HETATM   16  N           1     -19.802  -6.733  -6.374  0.00  0.00    -0.344 N 
HETATM   17  H           1     -18.865  -7.111  -6.319  0.00  0.00     0.163 HD
HETATM   18  C           1     -20.827  -7.342  -5.703  0.00  0.00     0.249 C 
HETATM   19  O           1     -21.473  -8.209  -6.244  0.00  0.00    -0.271 OA
BRANCH  18  20
HETATM   20  C           1     -21.152  -6.932  -4.288  0.00  0.00     0.275 C 
BRANCH  20  21
HETATM   21  C           1     -21.196  -8.168  -3.397  0.00  0.00     0.053 C 
BRANCH  21  22
HETATM   22  C           1     -20.775  -7.791  -1.984  0.00  0.00     0.115 C 
BRANCH  22  23
HETATM   23  C           1     -21.999  -7.650  -1.113  0.00  0.00     0.172 C 
HETATM   24  O           1     -22.643  -6.579  -1.111  0.00  0.00    -0.648 OA
HETATM   25  O           1     -22.368  -8.603  -0.394  0.00  0.00    -0.648 OA
ENDBRANCH  22  23
ENDBRANCH  21  22
ENDBRANCH  20  21
BRANCH  20  26
HETATM   26  N           1     -22.488  -6.250  -4.259  0.00  0.00    -0.066 N 
HETATM   27  H           1     -22.362  -5.251  -3.981  0.00  0.00     0.275 HD
HETATM   28  H           1     -22.922  -6.295  -5.209  0.00  0.00     0.275 HD
HETATM   29  H           1     -23.109  -6.728  -3.568  0.00  0.00     0.275 HD
ENDBRANCH  20  26
ENDBRANCH  18  20
ENDBRANCH   1  16
TORSDOF 9
ENDMDL
MODEL 7
REMARK VINA RESULT:      -6.9      1.658      2.383
REMARK  9 active torsions:
REMARK  status: ('A' for Active; 'I' for Inactive)
REMARK    1  A    between atoms: C_2  and  C_4 
REMARK    2  A    between atoms: C_2  and  C_3 
REMARK    3  A    between atoms: C_4  and  C_19 
REMARK    4  A    between atoms: C_7  and  C_9 
REMARK    5  A    between atoms: C_9  and  C_26 
REMARK    6  A    between atoms: C_9  and  N_11 
REMARK       I    between atoms: N_11  and  C_29 
REMARK    7  A    between atoms: C_19  and  C_29 
REMARK    8  A    between atoms: C_19  and  N_25 
REMARK    9  A    between atoms: C_26  and  C_27 
ROOT
HETATM    1  C           1     -19.888  -7.959  -5.183  0.00  0.00     0.190 C 
ENDROOT
BRANCH   1   2
HETATM    2  C           1     -18.757  -8.958  -5.140  0.00  0.00     0.197 C 
HETATM    3  O           1     -18.397  -9.541  -6.185  0.00  0.00    -0.646 OA
HETATM    4  O           1     -18.179  -9.201  -4.058  0.00  0.00    -0.646 OA
ENDBRANCH   1   2
BRANCH   1   5
HETATM    5  C           1     -21.219  -8.699  -5.197  0.00  0.00     0.077 C 
BRANCH   5   6
HETATM    6  C           1     -21.516  -9.219  -3.825  0.00  0.00    -0.028 A 
HETATM    7  C           1     -21.787  -8.432  -2.671  0.00  0.00    -0.002 A 
HETATM    8  C           1     -22.007  -9.316  -1.614  0.00  0.00     0.042 A 
HETATM    9  C           1     -21.864  -7.049  -2.424  0.00  0.00     0.014 A 
HETATM   10  C           1     -22.304  -8.883  -0.316  0.00  0.00     0.030 A 
HETATM   11  N           1     -21.874 -10.590  -2.118  0.00  0.00    -0.365 N 
HETATM   12  C           1     -22.376  -7.504  -0.096  0.00  0.00     0.002 A 
HETATM   13  C           1     -22.160  -6.599  -1.132  0.00  0.00     0.001 A 
HETATM   14  H           1     -21.984 -11.473  -1.559  0.00  0.00     0.165 HD
HETATM   15  C           1     -21.577 -10.543  -3.454  0.00  0.00     0.096 A 
ENDBRANCH   5   6
ENDBRANCH   1   5
BRANCH   1  16
HETATM   16  N           1     -19.773  -7.152  -6.382  0.00  0.00    -0.344 N 
HETATM   17  H           1     -19.349  -7.540  -7.215  0.00  0.00     0.163 HD
HETATM   18  C           1     -20.239  -5.864  -6.387  0.00  0.00     0.249 C 
HETATM   19  O           1     -19.507  -4.956  -6.070  0.00  0.00    -0.271 OA
BRANCH  18  20
HETATM   20  C           1     -21.665  -5.580  -6.787  0.00  0.00     0.275 C 
BRANCH  20  21
HETATM   21  C           1     -21.742  -4.215  -7.460  0.00  0.00     0.053 C 
BRANCH  21  22
HETATM   22  C           1     -22.326  -4.369  -8.857  0.00  0.00     0.115 C 
BRANCH  22  23
HETATM   23  C           1     -21.255  -4.098  -9.885  0.00  0.00     0.172 C 
HETATM   24  O           1     -20.130  -4.630  -9.770  0.00  0.00    -0.648 OA
HETATM   25  O           1     -21.492  -3.340 -10.850  0.00  0.00    -0.648 OA
ENDBRANCH  22  23
ENDBRANCH  21  22
ENDBRANCH  20  21
BRANCH  20  26
HETATM   26  N           1     -22.537  -5.583  -5.567  0.00  0.00    -0.066 N 
HETATM   27  H           1     -21.965  -5.832  -4.730  0.00  0.00     0.275 HD
HETATM   28  H           1     -22.954  -4.634  -5.434  0.00  0.00     0.275 HD
HETATM   29  H           1     -23.302  -6.286  -5.687  0.00  0.00     0.275 HD
ENDBRANCH  20  26
ENDBRANCH  18  20
ENDBRANCH   1  16
TORSDOF 9
ENDMDL
MODEL 8
REMARK VINA RESULT:      -6.9      3.399      7.062
REMARK  9 active torsions:
REMARK  status: ('A' for Active; 'I' for Inactive)
REMARK    1  A    between atoms: C_2  and  C_4 
REMARK    2  A    between atoms: C_2  and  C_3 
REMARK    3  A    between atoms: C_4  and  C_19 
REMARK    4  A    between atoms: C_7  and  C_9 
REMARK    5  A    between atoms: C_9  and  C_26 
REMARK    6  A    between atoms: C_9  and  N_11 
REMARK       I    between atoms: N_11  and  C_29 
REMARK    7  A    between atoms: C_19  and  C_29 
REMARK    8  A    between atoms: C_19  and  N_25 
REMARK    9  A    between atoms: C_26  and  C_27 
ROOT
HETATM    1  C           1     -20.396  -9.641  -4.663  0.00  0.00     0.190 C 
ENDROOT
BRANCH   1   2
HETATM    2  C           1     -19.911 -10.712  -5.610  0.00  0.00     0.197 C 
HETATM    3  O           1     -20.667 -11.140  -6.509  0.00  0.00    -0.646 OA
HETATM    4  O           1     -18.755 -11.170  -5.496  0.00  0.00    -0.646 OA
ENDBRANCH   1   2
BRANCH   1   5
HETATM    5  C           1     -19.706  -8.323  -4.990  0.00  0.00     0.077 C 
BRANCH   5   6
HETATM    6  C           1     -20.737  -7.277  -5.277  0.00  0.00    -0.028 A 
HETATM    7  C           1     -20.620  -6.222  -6.224  0.00  0.00    -0.002 A 
HETATM    8  C           1     -21.803  -5.485  -6.166  0.00  0.00     0.042 A 
HETATM    9  C           1     -19.617  -5.823  -7.127  0.00  0.00     0.014 A 
HETATM   10  C           1     -22.034  -4.363  -6.972  0.00  0.00     0.030 A 
HETATM   11  N           1     -22.603  -6.078  -5.216  0.00  0.00    -0.365 N 
HETATM   12  C           1     -21.023  -3.987  -7.861  0.00  0.00     0.002 A 
HETATM   13  C           1     -19.832  -4.704  -7.940  0.00  0.00     0.001 A 
HETATM   14  H           1     -23.563  -5.746  -4.946  0.00  0.00     0.165 HD
HETATM   15  C           1     -21.968  -7.162  -4.671  0.00  0.00     0.096 A 
ENDBRANCH   5   6
ENDBRANCH   1   5
BRANCH   1  16
HETATM   16  N           1     -20.085 -10.025  -3.300  0.00  0.00    -0.344 N 
HETATM   17  H           1     -19.206  -9.743  -2.884  0.00  0.00     0.163 HD
HETATM   18  C           1     -20.978 -10.767  -2.577  0.00  0.00     0.249 C 
HETATM   19  O           1     -20.926 -11.974  -2.607  0.00  0.00    -0.271 OA
BRANCH  18  20
HETATM   20  C           1     -22.030 -10.079  -1.742  0.00  0.00     0.275 C 
BRANCH  20  21
HETATM   21  C           1     -21.478  -9.812  -0.348  0.00  0.00     0.053 C 
BRANCH  21  22
HETATM   22  C           1     -21.213  -8.322  -0.183  0.00  0.00     0.115 C 
BRANCH  22  23
HETATM   23  C           1     -22.521  -7.571  -0.209  0.00  0.00     0.172 C 
HETATM   24  O           1     -23.445  -7.897   0.566  0.00  0.00    -0.648 OA
HETATM   25  O           1     -22.682  -6.623  -1.008  0.00  0.00    -0.648 OA
ENDBRANCH  22  23
ENDBRANCH  21  22
ENDBRANCH  20  21
BRANCH  20  26
HETATM   26  N           1     -23.241 -10.958  -1.639  0.00  0.00    -0.066 N 
HETATM   27  H           1     -23.838 -10.637  -0.845  0.00  0.00     0.275 HD
HETATM   28  H           1     -23.787 -10.903  -2.529  0.00  0.00     0.275 HD
HETATM   29  H           1     -22.942 -11.946  -1.474  0.00  0.00     0.275 HD
ENDBRANCH  20  26
ENDBRANCH  18  20
ENDBRANCH   1  16
TORSDOF 9
ENDMDL
MODEL 9
REMARK VINA RESULT:      -6.9      2.944      4.935
REMARK  9 active torsions:
REMARK  status: ('A' for Active; 'I' for Inactive)
REMARK    1  A    between atoms: C_2  and  C_4 
REMARK    2  A    between atoms: C_2  and  C_3 
REMARK    3  A    between atoms: C_4  and  C_19 
REMARK    4  A    between atoms: C_7  and  C_9 
REMARK    5  A    between atoms: C_9  and  C_26 
REMARK    6  A    between atoms: C_9  and  N_11 
REMARK       I    between atoms: N_11  and  C_29 
REMARK    7  A    between atoms: C_19  and  C_29 
REMARK    8  A    between atoms: C_19  and  N_25 
REMARK    9  A    between atoms: C_26  and  C_27 
ROOT
HETATM    1  C           1     -21.343  -7.838  -2.325  0.00  0.00     0.190 C 
ENDROOT
BRANCH   1   2
HETATM    2  C           1     -22.100  -7.803  -1.020  0.00  0.00     0.197 C 
HETATM    3  O           1     -22.812  -6.815  -0.737  0.00  0.00    -0.646 OA
HETATM    4  O           1     -22.016  -8.761  -0.223  0.00  0.00    -0.646 OA
ENDBRANCH   1   2
BRANCH   1   5
HETATM    5  C           1     -19.916  -8.308  -2.072  0.00  0.00     0.077 C 
BRANCH   5   6
HETATM    6  C           1     -19.507  -9.266  -3.147  0.00  0.00    -0.028 A 
HETATM    7  C           1     -18.179  -9.681  -3.439  0.00  0.00    -0.002 A 
HETATM    8  C           1     -18.253 -10.573  -4.509  0.00  0.00     0.042 A 
HETATM    9  C           1     -16.916  -9.381  -2.894  0.00  0.00     0.014 A 
HETATM   10  C           1     -17.122 -11.185  -5.063  0.00  0.00     0.030 A 
HETATM   11  N           1     -19.582 -10.689  -4.847  0.00  0.00    -0.365 N 
HETATM   12  C           1     -15.879 -10.872  -4.505  0.00  0.00     0.002 A 
HETATM   13  C           1     -15.775  -9.984  -3.436  0.00  0.00     0.001 A 
HETATM   14  H           1     -19.955 -11.294  -5.621  0.00  0.00     0.165 HD
HETATM   15  C           1     -20.350  -9.903  -4.030  0.00  0.00     0.096 A 
ENDBRANCH   5   6
ENDBRANCH   1   5
BRANCH   1  16
HETATM   16  N           1     -21.318  -6.510  -2.905  0.00  0.00    -0.344 N 
HETATM   17  H           1     -21.078  -5.712  -2.331  0.00  0.00     0.163 HD
HETATM   18  C           1     -21.618  -6.335  -4.229  0.00  0.00     0.249 C 
HETATM   19  O           1     -22.760  -6.132  -4.568  0.00  0.00    -0.271 OA
BRANCH  18  20
HETATM   20  C           1     -20.523  -6.398  -5.266  0.00  0.00     0.275 C 
BRANCH  20  21
HETATM   21  C           1     -20.241  -4.996  -5.792  0.00  0.00     0.053 C 
BRANCH  21  22
HETATM   22  C           1     -20.067  -5.046  -7.304  0.00  0.00     0.115 C 
BRANCH  22  23
HETATM   23  C           1     -21.265  -4.417  -7.971  0.00  0.00     0.172 C 
HETATM   24  O           1     -21.152  -3.907  -9.106  0.00  0.00    -0.648 OA
HETATM   25  O           1     -22.371  -4.404  -7.388  0.00  0.00    -0.648 OA
ENDBRANCH  22  23
ENDBRANCH  21  22
ENDBRANCH  20  21
BRANCH  20  26
HETATM   26  N           1     -20.958  -7.278  -6.400  0.00  0.00    -0.066 N 
HETATM   27  H           1     -21.699  -7.934  -6.067  0.00  0.00     0.275 HD
HETATM   28  H           1     -21.339  -6.686  -7.173  0.00  0.00     0.275 HD
HETATM   29  H           1     -20.140  -7.825  -6.750  0.00  0.00     0.275 HD
ENDBRANCH  20  26
ENDBRANCH  18  20
ENDBRANCH   1  16
TORSDOF 9
ENDMDL
