MODEL 1
REMARK VINA RESULT:      -5.7      0.000      0.000
REMARK  8 active torsions:
REMARK  status: ('A' for Active; 'I' for Inactive)
REMARK    1  A    between atoms: N_3  and  C_6 
REMARK    2  A    between atoms: Se_4  and  C_5 
REMARK    3  A    between atoms: C_5  and  C_6 
REMARK    4  A    between atoms: C_6  and  C_7 
REMARK       I    between atoms: C_7  and  N_8 
REMARK    5  A    between atoms: N_8  and  C_12 
REMARK    6  A    between atoms: C_11  and  C_12 
REMARK    7  A    between atoms: C_12  and  C_14 
REMARK    8  A    between atoms: C_14  and  C_15 
ROOT
HETATM    1  H           1     -22.480  -5.838  -9.184  0.00  0.00     0.163 HD
HETATM    2  O           1     -21.548  -3.395  -7.450  0.00  0.00    -0.271 OA
HETATM    3  C           1     -21.693  -4.552  -7.766  0.00  0.00     0.249 C 
HETATM    4  N           1     -22.358  -4.869  -8.920  0.00  0.00    -0.344 N 
ENDROOT
BRANCH   3   5
HETATM    5  C           1     -21.140  -5.648  -6.889  0.00  0.00     0.274 C 
BRANCH   5   6
HETATM    6  N           1     -19.896  -6.209  -7.514  0.00  0.00    -0.067 N 
HETATM    7  H           1     -19.484  -5.502  -8.165  0.00  0.00     0.275 HD
HETATM    8  H           1     -19.204  -6.437  -6.765  0.00  0.00     0.275 HD
HETATM    9  H           1     -20.134  -7.076  -8.046  0.00  0.00     0.275 HD
ENDBRANCH   5   6
BRANCH   5  10
HETATM   10  C           1     -20.805  -5.081  -5.515  0.00  0.00     0.045 C 
BRANCH  10  11
HETATM   11 Se           1     -21.398  -6.323  -4.136  0.00  0.00     0.000 Se
HETATM   12  H           1     -22.744  -6.494  -4.707  0.00  0.00     0.000 HD
ENDBRANCH  10  11
ENDBRANCH   5  10
ENDBRANCH   3   5
BRANCH   4  13
HETATM   13  C           1     -22.890  -3.815  -9.762  0.00  0.00     0.189 C 
BRANCH  13  14
HETATM   14  C           1     -24.397  -3.814  -9.676  0.00  0.00     0.197 C 
HETATM   15  O           1     -25.032  -4.879  -9.838  0.00  0.00    -0.646 OA
HETATM   16  O           1     -25.008  -2.750  -9.442  0.00  0.00    -0.646 OA
ENDBRANCH  13  14
BRANCH  13  17
HETATM   17  C           1     -22.463  -4.056 -11.204  0.00  0.00     0.014 C 
HETATM   18  C           1     -22.878  -2.866 -12.061  0.00  0.00     0.012 C 
BRANCH  17  19
HETATM   19  C           1     -20.951  -4.224 -11.265  0.00  0.00     0.002 C 
HETATM   20  C           1     -20.282  -2.864 -11.113  0.00  0.00     0.005 C 
ENDBRANCH  17  19
ENDBRANCH  13  17
ENDBRANCH   4  13
TORSDOF 8
ENDMDL
MODEL 2
REMARK VINA RESULT:      -4.8      3.813      6.934
REMARK  8 active torsions:
REMARK  status: ('A' for Active; 'I' for Inactive)
REMARK    1  A    between atoms: N_3  and  C_6 
REMARK    2  A    between atoms: Se_4  and  C_5 
REMARK    3  A    between atoms: C_5  and  C_6 
REMARK    4  A    between atoms: C_6  and  C_7 
REMARK       I    between atoms: C_7  and  N_8 
REMARK    5  A    between atoms: N_8  and  C_12 
REMARK    6  A    between atoms: C_11  and  C_12 
REMARK    7  A    between atoms: C_12  and  C_14 
REMARK    8  A    between atoms: C_14  and  C_15 
ROOT
HETATM    1  H           1     -22.485  -6.733  -5.652  0.00  0.00     0.163 HD
HETATM    2  O           1     -19.873  -5.059  -6.120  0.00  0.00    -0.271 OA
HETATM    3  C           1     -21.032  -5.379  -6.236  0.00  0.00     0.249 C 
HETATM    4  N           1     -21.514  -6.464  -5.554  0.00  0.00    -0.344 N 
ENDROOT
BRANCH   3   5
HETATM    5  C           1     -21.948  -4.583  -7.133  0.00  0.00     0.274 C 
BRANCH   5   6
HETATM    6  N           1     -21.606  -3.126  -7.028  0.00  0.00    -0.067 N 
HETATM    7  H           1     -21.483  -2.727  -7.987  0.00  0.00     0.275 HD
HETATM    8  H           1     -22.379  -2.622  -6.539  0.00  0.00     0.275 HD
HETATM    9  H           1     -20.719  -3.014  -6.488  0.00  0.00     0.275 HD
ENDBRANCH   5   6
BRANCH   5  10
HETATM   10  C           1     -21.774  -5.042  -8.575  0.00  0.00     0.045 C 
BRANCH  10  11
HETATM   11 Se           1     -22.940  -3.997  -9.735  0.00  0.00     0.000 Se
HETATM   12  H           1     -21.904  -3.012 -10.084  0.00  0.00     0.000 HD
ENDBRANCH  10  11
ENDBRANCH   5  10
ENDBRANCH   3   5
BRANCH   4  13
HETATM   13  C           1     -20.633  -7.229  -4.693  0.00  0.00     0.189 C 
BRANCH  13  14
HETATM   14  C           1     -20.231  -8.505  -5.392  0.00  0.00     0.197 C 
HETATM   15  O           1     -21.099  -9.354  -5.690  0.00  0.00    -0.646 OA
HETATM   16  O           1     -19.031  -8.712  -5.672  0.00  0.00    -0.646 OA
ENDBRANCH  13  14
BRANCH  13  17
HETATM   17  C           1     -21.358  -7.565  -3.397  0.00  0.00     0.014 C 
HETATM   18  C           1     -20.398  -8.268  -2.446  0.00  0.00     0.012 C 
BRANCH  17  19
HETATM   19  C           1     -21.866  -6.282  -2.751  0.00  0.00     0.002 C 
HETATM   20  C           1     -22.267  -6.564  -1.310  0.00  0.00     0.005 C 
ENDBRANCH  17  19
ENDBRANCH  13  17
ENDBRANCH   4  13
TORSDOF 8
ENDMDL
MODEL 3
REMARK VINA RESULT:      -4.8     17.519     18.844
REMARK  8 active torsions:
REMARK  status: ('A' for Active; 'I' for Inactive)
REMARK    1  A    between atoms: N_3  and  C_6 
REMARK    2  A    between atoms: Se_4  and  C_5 
REMARK    3  A    between atoms: C_5  and  C_6 
REMARK    4  A    between atoms: C_6  and  C_7 
REMARK       I    between atoms: C_7  and  N_8 
REMARK    5  A    between atoms: N_8  and  C_12 
REMARK    6  A    between atoms: C_11  and  C_12 
REMARK    7  A    between atoms: C_12  and  C_14 
REMARK    8  A    between atoms: C_14  and  C_15 
ROOT
HETATM    1  H           1     -12.318   5.891 -19.109  0.00  0.00     0.163 HD
HETATM    2  O           1     -12.421   7.467 -21.819  0.00  0.00    -0.271 OA
HETATM    3  C           1     -12.152   7.248 -20.662  0.00  0.00     0.249 C 
HETATM    4  N           1     -12.542   6.073 -20.079  0.00  0.00    -0.344 N 
ENDROOT
BRANCH   3   5
HETATM    5  C           1     -11.387   8.272 -19.860  0.00  0.00     0.274 C 
BRANCH   5   6
HETATM    6  N           1     -10.187   7.621 -19.236  0.00  0.00    -0.067 N 
HETATM    7  H           1     -10.425   6.641 -18.961  0.00  0.00     0.275 HD
HETATM    8  H           1      -9.401   7.609 -19.925  0.00  0.00     0.275 HD
HETATM    9  H           1      -9.899   8.161 -18.389  0.00  0.00     0.275 HD
ENDBRANCH   5   6
BRANCH   5  10
HETATM   10  C           1     -10.932   9.401 -20.775  0.00  0.00     0.045 C 
BRANCH  10  11
HETATM   11 Se           1      -9.085   9.096 -21.315  0.00  0.00     0.000 Se
HETATM   12  H           1      -9.130   7.646 -21.067  0.00  0.00     0.000 HD
ENDBRANCH  10  11
ENDBRANCH   5  10
ENDBRANCH   3   5
BRANCH   4  13
HETATM   13  C           1     -13.278   5.090 -20.850  0.00  0.00     0.189 C 
BRANCH  13  14
HETATM   14  C           1     -14.758   5.272 -20.614  0.00  0.00     0.197 C 
HETATM   15  O           1     -15.203   5.320 -19.447  0.00  0.00    -0.646 OA
HETATM   16  O           1     -15.537   5.374 -21.586  0.00  0.00    -0.646 OA
ENDBRANCH  13  14
BRANCH  13  17
HETATM   17  C           1     -12.862   3.691 -20.416  0.00  0.00     0.014 C 
HETATM   18  C           1     -13.334   2.678 -21.451  0.00  0.00     0.012 C 
BRANCH  17  19
HETATM   19  C           1     -11.345   3.627 -20.296  0.00  0.00     0.002 C 
HETATM   20  C           1     -10.854   2.269 -20.780  0.00  0.00     0.005 C 
ENDBRANCH  17  19
ENDBRANCH  13  17
ENDBRANCH   4  13
TORSDOF 8
ENDMDL
MODEL 4
REMARK VINA RESULT:      -4.7      2.493      3.411
REMARK  8 active torsions:
REMARK  status: ('A' for Active; 'I' for Inactive)
REMARK    1  A    between atoms: N_3  and  C_6 
REMARK    2  A    between atoms: Se_4  and  C_5 
REMARK    3  A    between atoms: C_5  and  C_6 
REMARK    4  A    between atoms: C_6  and  C_7 
REMARK       I    between atoms: C_7  and  N_8 
REMARK    5  A    between atoms: N_8  and  C_12 
REMARK    6  A    between atoms: C_11  and  C_12 
REMARK    7  A    between atoms: C_12  and  C_14 
REMARK    8  A    between atoms: C_14  and  C_15 
ROOT
HETATM    1  H           1     -22.370  -4.151  -6.914  0.00  0.00     0.163 HD
HETATM    2  O           1     -20.642  -6.755  -7.178  0.00  0.00    -0.271 OA
HETATM    3  C           1     -21.294  -5.895  -6.634  0.00  0.00     0.249 C 
HETATM    4  N           1     -21.825  -4.871  -7.370  0.00  0.00    -0.344 N 
ENDROOT
BRANCH   3   5
HETATM    5  C           1     -21.520  -5.952  -5.143  0.00  0.00     0.274 C 
BRANCH   5   6
HETATM    6  N           1     -22.983  -6.142  -4.868  0.00  0.00    -0.067 N 
HETATM    7  H           1     -23.258  -7.123  -5.104  0.00  0.00     0.275 HD
HETATM    8  H           1     -23.173  -5.962  -3.856  0.00  0.00     0.275 HD
HETATM    9  H           1     -23.537  -5.475  -5.451  0.00  0.00     0.275 HD
ENDBRANCH   5   6
BRANCH   5  10
HETATM   10  C           1     -20.738  -7.117  -4.552  0.00  0.00     0.045 C 
BRANCH  10  11
HETATM   11 Se           1     -21.252  -7.367  -2.689  0.00  0.00     0.000 Se
HETATM   12  H           1     -21.592  -5.951  -2.472  0.00  0.00     0.000 HD
ENDBRANCH  10  11
ENDBRANCH   5  10
ENDBRANCH   3   5
BRANCH   4  13
HETATM   13  C           1     -21.606  -4.817  -8.802  0.00  0.00     0.189 C 
BRANCH  13  14
HETATM   14  C           1     -20.171  -4.439  -9.077  0.00  0.00     0.197 C 
HETATM   15  O           1     -19.568  -4.944 -10.049  0.00  0.00    -0.646 OA
HETATM   16  O           1     -19.587  -3.622  -8.334  0.00  0.00    -0.646 OA
ENDBRANCH  13  14
BRANCH  13  17
HETATM   17  C           1     -22.533  -3.777  -9.417  0.00  0.00     0.014 C 
HETATM   18  C           1     -22.619  -4.001 -10.922  0.00  0.00     0.012 C 
BRANCH  17  19
HETATM   19  C           1     -23.921  -3.908  -8.803  0.00  0.00     0.002 C 
HETATM   20  C           1     -24.954  -3.313  -9.752  0.00  0.00     0.005 C 
ENDBRANCH  17  19
ENDBRANCH  13  17
ENDBRANCH   4  13
TORSDOF 8
ENDMDL
MODEL 5
REMARK VINA RESULT:      -4.6      4.109      7.050
REMARK  8 active torsions:
REMARK  status: ('A' for Active; 'I' for Inactive)
REMARK    1  A    between atoms: N_3  and  C_6 
REMARK    2  A    between atoms: Se_4  and  C_5 
REMARK    3  A    between atoms: C_5  and  C_6 
REMARK    4  A    between atoms: C_6  and  C_7 
REMARK       I    between atoms: C_7  and  N_8 
REMARK    5  A    between atoms: N_8  and  C_12 
REMARK    6  A    between atoms: C_11  and  C_12 
REMARK    7  A    between atoms: C_12  and  C_14 
REMARK    8  A    between atoms: C_14  and  C_15 
ROOT
HETATM    1  H           1     -19.748  -6.836  -4.597  0.00  0.00     0.163 HD
HETATM    2  O           1     -22.583  -5.855  -5.515  0.00  0.00    -0.271 OA
HETATM    3  C           1     -21.377  -5.929  -5.494  0.00  0.00     0.249 C 
HETATM    4  N           1     -20.757  -6.775  -4.615  0.00  0.00    -0.344 N 
ENDROOT
BRANCH   3   5
HETATM    5  C           1     -20.555  -5.088  -6.440  0.00  0.00     0.274 C 
BRANCH   5   6
HETATM    6  N           1     -20.003  -5.958  -7.531  0.00  0.00    -0.067 N 
HETATM    7  H           1     -19.760  -6.897  -7.139  0.00  0.00     0.275 HD
HETATM    8  H           1     -20.720  -6.070  -8.282  0.00  0.00     0.275 HD
HETATM    9  H           1     -19.145  -5.515  -7.930  0.00  0.00     0.275 HD
ENDBRANCH   5   6
BRANCH   5  10
HETATM   10  C           1     -21.432  -4.004  -7.052  0.00  0.00     0.045 C 
BRANCH  10  11
HETATM   11 Se           1     -21.862  -4.477  -8.892  0.00  0.00     0.000 Se
HETATM   12  H           1     -20.456  -4.591  -9.314  0.00  0.00     0.000 HD
ENDBRANCH  10  11
ENDBRANCH   5  10
ENDBRANCH   3   5
BRANCH   4  13
HETATM   13  C           1     -21.548  -7.582  -3.706  0.00  0.00     0.189 C 
BRANCH  13  14
HETATM   14  C           1     -21.608  -6.908  -2.357  0.00  0.00     0.197 C 
HETATM   15  O           1     -22.304  -5.882  -2.202  0.00  0.00    -0.646 OA
HETATM   16  O           1     -20.961  -7.377  -1.396  0.00  0.00    -0.646 OA
ENDBRANCH  13  14
BRANCH  13  17
HETATM   17  C           1     -20.907  -8.956  -3.561  0.00  0.00     0.014 C 
HETATM   18  C           1     -21.827 -10.011  -4.163  0.00  0.00     0.012 C 
BRANCH  17  19
HETATM   19  C           1     -19.569  -8.971  -4.289  0.00  0.00     0.002 C 
HETATM   20  C           1     -18.465  -9.359  -3.314  0.00  0.00     0.005 C 
ENDBRANCH  17  19
ENDBRANCH  13  17
ENDBRANCH   4  13
TORSDOF 8
ENDMDL
MODEL 6
REMARK VINA RESULT:      -4.6      6.761      9.887
REMARK  8 active torsions:
REMARK  status: ('A' for Active; 'I' for Inactive)
REMARK    1  A    between atoms: N_3  and  C_6 
REMARK    2  A    between atoms: Se_4  and  C_5 
REMARK    3  A    between atoms: C_5  and  C_6 
REMARK    4  A    between atoms: C_6  and  C_7 
REMARK       I    between atoms: C_7  and  N_8 
REMARK    5  A    between atoms: N_8  and  C_12 
REMARK    6  A    between atoms: C_11  and  C_12 
REMARK    7  A    between atoms: C_12  and  C_14 
REMARK    8  A    between atoms: C_14  and  C_15 
ROOT
HETATM    1  H           1     -22.035  -9.843  -2.697  0.00  0.00     0.163 HD
HETATM    2  O           1     -20.825  -6.993  -2.191  0.00  0.00    -0.271 OA
HETATM    3  C           1     -21.355  -7.891  -2.801  0.00  0.00     0.249 C 
HETATM    4  N           1     -21.591  -9.091  -2.186  0.00  0.00    -0.344 N 
ENDROOT
BRANCH   3   5
HETATM    5  C           1     -21.758  -7.688  -4.241  0.00  0.00     0.274 C 
BRANCH   5   6
HETATM    6  N           1     -22.349  -6.318  -4.406  0.00  0.00    -0.067 N 
HETATM    7  H           1     -21.581  -5.610  -4.446  0.00  0.00     0.275 HD
HETATM    8  H           1     -22.902  -6.284  -5.292  0.00  0.00     0.275 HD
HETATM    9  H           1     -22.975  -6.109  -3.596  0.00  0.00     0.275 HD
ENDBRANCH   5   6
BRANCH   5  10
HETATM   10  C           1     -20.533  -7.822  -5.136  0.00  0.00     0.045 C 
BRANCH  10  11
HETATM   11 Se           1     -20.321  -6.200  -6.195  0.00  0.00     0.000 Se
HETATM   12  H           1     -21.741  -5.820  -6.110  0.00  0.00     0.000 HD
ENDBRANCH  10  11
ENDBRANCH   5  10
ENDBRANCH   3   5
BRANCH   4  13
HETATM   13  C           1     -21.203  -9.285  -0.803  0.00  0.00     0.189 C 
BRANCH  13  14
HETATM   14  C           1     -20.267 -10.465  -0.704  0.00  0.00     0.197 C 
HETATM   15  O           1     -20.125 -11.060   0.386  0.00  0.00    -0.646 OA
HETATM   16  O           1     -19.635 -10.847  -1.712  0.00  0.00    -0.646 OA
ENDBRANCH  13  14
BRANCH  13  17
HETATM   17  C           1     -22.444  -9.548   0.039  0.00  0.00     0.014 C 
HETATM   18  C           1     -23.103  -8.223   0.400  0.00  0.00     0.012 C 
BRANCH  17  19
HETATM   19  C           1     -23.423 -10.404  -0.754  0.00  0.00     0.002 C 
HETATM   20  C           1     -23.766 -11.655   0.044  0.00  0.00     0.005 C 
ENDBRANCH  17  19
ENDBRANCH  13  17
ENDBRANCH   4  13
TORSDOF 8
ENDMDL
MODEL 7
REMARK VINA RESULT:      -4.5      2.475      3.489
REMARK  8 active torsions:
REMARK  status: ('A' for Active; 'I' for Inactive)
REMARK    1  A    between atoms: N_3  and  C_6 
REMARK    2  A    between atoms: Se_4  and  C_5 
REMARK    3  A    between atoms: C_5  and  C_6 
REMARK    4  A    between atoms: C_6  and  C_7 
REMARK       I    between atoms: C_7  and  N_8 
REMARK    5  A    between atoms: N_8  and  C_12 
REMARK    6  A    between atoms: C_11  and  C_12 
REMARK    7  A    between atoms: C_12  and  C_14 
REMARK    8  A    between atoms: C_14  and  C_15 
ROOT
HETATM    1  H           1     -21.001  -6.681  -7.584  0.00  0.00     0.163 HD
HETATM    2  O           1     -21.007  -5.817  -4.568  0.00  0.00    -0.271 OA
HETATM    3  C           1     -20.969  -6.562  -5.518  0.00  0.00     0.249 C 
HETATM    4  N           1     -21.032  -6.056  -6.788  0.00  0.00    -0.344 N 
ENDROOT
BRANCH   3   5
HETATM    5  C           1     -20.851  -8.051  -5.304  0.00  0.00     0.274 C 
BRANCH   5   6
HETATM    6  N           1     -19.466  -8.500  -5.668  0.00  0.00    -0.067 N 
HETATM    7  H           1     -18.846  -8.432  -4.829  0.00  0.00     0.275 HD
HETATM    8  H           1     -19.498  -9.492  -5.997  0.00  0.00     0.275 HD
HETATM    9  H           1     -19.092  -7.891  -6.429  0.00  0.00     0.275 HD
ENDBRANCH   5   6
BRANCH   5  10
HETATM   10  C           1     -21.121  -8.379  -3.841  0.00  0.00     0.045 C 
BRANCH  10  11
HETATM   11 Se           1     -21.867 -10.173  -3.703  0.00  0.00     0.000 Se
HETATM   12  H           1     -22.929  -9.934  -4.694  0.00  0.00     0.000 HD
ENDBRANCH  10  11
ENDBRANCH   5  10
ENDBRANCH   3   5
BRANCH   4  13
HETATM   13  C           1     -21.146  -4.625  -6.993  0.00  0.00     0.189 C 
BRANCH  13  14
HETATM   14  C           1     -22.557  -4.287  -7.407  0.00  0.00     0.197 C 
HETATM   15  O           1     -22.763  -3.642  -8.458  0.00  0.00    -0.646 OA
HETATM   16  O           1     -23.520  -4.653  -6.699  0.00  0.00    -0.646 OA
ENDBRANCH  13  14
BRANCH  13  17
HETATM   17  C           1     -20.178  -4.192  -8.086  0.00  0.00     0.014 C 
HETATM   18  C           1     -18.763  -4.149  -7.523  0.00  0.00     0.012 C 
BRANCH  17  19
HETATM   19  C           1     -20.237  -5.186  -9.239  0.00  0.00     0.002 C 
HETATM   20  C           1     -20.172  -4.433 -10.562  0.00  0.00     0.005 C 
ENDBRANCH  17  19
ENDBRANCH  13  17
ENDBRANCH   4  13
TORSDOF 8
ENDMDL
MODEL 8
REMARK VINA RESULT:      -4.4      8.763     10.269
REMARK  8 active torsions:
REMARK  status: ('A' for Active; 'I' for Inactive)
REMARK    1  A    between atoms: N_3  and  C_6 
REMARK    2  A    between atoms: Se_4  and  C_5 
REMARK    3  A    between atoms: C_5  and  C_6 
REMARK    4  A    between atoms: C_6  and  C_7 
REMARK       I    between atoms: C_7  and  N_8 
REMARK    5  A    between atoms: N_8  and  C_12 
REMARK    6  A    between atoms: C_11  and  C_12 
REMARK    7  A    between atoms: C_12  and  C_14 
REMARK    8  A    between atoms: C_14  and  C_15 
ROOT
HETATM    1  H           1     -21.041  -9.733  -2.328  0.00  0.00     0.163 HD
HETATM    2  O           1     -19.734 -11.331   0.034  0.00  0.00    -0.271 OA
HETATM    3  C           1     -19.839 -10.854  -1.071  0.00  0.00     0.249 C 
HETATM    4  N           1     -20.953 -10.132  -1.403  0.00  0.00    -0.344 N 
ENDROOT
BRANCH   3   5
HETATM    5  C           1     -18.739 -11.053  -2.085  0.00  0.00     0.274 C 
BRANCH   5   6
HETATM    6  N           1     -18.423  -9.742  -2.744  0.00  0.00    -0.067 N 
HETATM    7  H           1     -18.051  -9.074  -2.030  0.00  0.00     0.275 HD
HETATM    8  H           1     -17.706  -9.891  -3.489  0.00  0.00     0.275 HD
HETATM    9  H           1     -19.292  -9.348  -3.169  0.00  0.00     0.275 HD
ENDBRANCH   5   6
BRANCH   5  10
HETATM   10  C           1     -17.493 -11.583  -1.388  0.00  0.00     0.045 C 
BRANCH  10  11
HETATM   11 Se           1     -15.906 -10.830  -2.233  0.00  0.00     0.000 Se
HETATM   12  H           1     -16.569 -10.582  -3.524  0.00  0.00     0.000 HD
ENDBRANCH  10  11
ENDBRANCH   5  10
ENDBRANCH   3   5
BRANCH   4  13
HETATM   13  C           1     -22.010  -9.942  -0.428  0.00  0.00     0.189 C 
BRANCH  13  14
HETATM   14  C           1     -23.243 -10.692  -0.869  0.00  0.00     0.197 C 
HETATM   15  O           1     -24.186 -10.871  -0.068  0.00  0.00    -0.646 OA
HETATM   16  O           1     -23.320 -11.135  -2.035  0.00  0.00    -0.646 OA
ENDBRANCH  13  14
BRANCH  13  17
HETATM   17  C           1     -22.332  -8.458  -0.314  0.00  0.00     0.014 C 
HETATM   18  C           1     -21.968  -7.965   1.081  0.00  0.00     0.012 C 
BRANCH  17  19
HETATM   19  C           1     -21.530  -7.683  -1.352  0.00  0.00     0.002 C 
HETATM   20  C           1     -22.224  -6.359  -1.645  0.00  0.00     0.005 C 
ENDBRANCH  17  19
ENDBRANCH  13  17
ENDBRANCH   4  13
TORSDOF 8
ENDMDL
MODEL 9
REMARK VINA RESULT:      -4.3      8.353      9.705
REMARK  8 active torsions:
REMARK  status: ('A' for Active; 'I' for Inactive)
REMARK    1  A    between atoms: N_3  and  C_6 
REMARK    2  A    between atoms: Se_4  and  C_5 
REMARK    3  A    between atoms: C_5  and  C_6 
REMARK    4  A    between atoms: C_6  and  C_7 
REMARK       I    between atoms: C_7  and  N_8 
REMARK    5  A    between atoms: N_8  and  C_12 
REMARK    6  A    between atoms: C_11  and  C_12 
REMARK    7  A    between atoms: C_12  and  C_14 
REMARK    8  A    between atoms: C_14  and  C_15 
ROOT
HETATM    1  H           1     -19.824  -9.060  -1.072  0.00  0.00     0.163 HD
HETATM    2  O           1     -21.121 -10.366  -3.613  0.00  0.00    -0.271 OA
HETATM    3  C           1     -20.256 -10.083  -2.818  0.00  0.00     0.249 C 
HETATM    4  N           1     -20.549  -9.296  -1.737  0.00  0.00    -0.344 N 
ENDROOT
BRANCH   3   5
HETATM    5  C           1     -18.852 -10.600  -3.017  0.00  0.00     0.274 C 
BRANCH   5   6
HETATM    6  N           1     -18.714 -11.147  -4.407  0.00  0.00    -0.067 N 
HETATM    7  H           1     -19.125 -12.108  -4.446  0.00  0.00     0.275 HD
HETATM    8  H           1     -19.220 -10.525  -5.077  0.00  0.00     0.275 HD
HETATM    9  H           1     -17.703 -11.190  -4.666  0.00  0.00     0.275 HD
ENDBRANCH   5   6
BRANCH   5  10
HETATM   10  C           1     -17.858  -9.463  -2.819  0.00  0.00     0.045 C 
BRANCH  10  11
HETATM   11 Se           1     -16.045 -10.136  -3.056  0.00  0.00     0.000 Se
HETATM   12  H           1     -15.603  -9.756  -1.704  0.00  0.00     0.000 HD
ENDBRANCH  10  11
ENDBRANCH   5  10
ENDBRANCH   3   5
BRANCH   4  13
HETATM   13  C           1     -21.898  -8.800  -1.547  0.00  0.00     0.189 C 
BRANCH  13  14
HETATM   14  C           1     -21.898  -7.293  -1.642  0.00  0.00     0.197 C 
HETATM   15  O           1     -22.651  -6.620  -0.906  0.00  0.00    -0.646 OA
HETATM   16  O           1     -21.144  -6.720  -2.458  0.00  0.00    -0.646 OA
ENDBRANCH  13  14
BRANCH  13  17
HETATM   17  C           1     -22.404  -9.222  -0.174  0.00  0.00     0.014 C 
HETATM   18  C           1     -23.433 -10.335  -0.333  0.00  0.00     0.012 C 
BRANCH  17  19
HETATM   19  C           1     -21.236  -9.724   0.665  0.00  0.00     0.002 C 
HETATM   20  C           1     -20.888  -8.686   1.723  0.00  0.00     0.005 C 
ENDBRANCH  17  19
ENDBRANCH  13  17
ENDBRANCH   4  13
TORSDOF 8
ENDMDL
