MODEL 1
REMARK VINA RESULT:      -7.2      0.000      0.000
REMARK  11 active torsions:
REMARK  status: ('A' for Active; 'I' for Inactive)
REMARK    1  A    between atoms: C_2  and  C_17 
REMARK    2  A    between atoms: C_2  and  C_14 
REMARK    3  A    between atoms: C_7  and  C_18 
REMARK    4  A    between atoms: C_7  and  C_17 
REMARK    5  A    between atoms: N_8  and  C_30 
REMARK       I    between atoms: N_8  and  C_19 
REMARK    6  A    between atoms: N_12  and  C_14 
REMARK    7  A    between atoms: N_13  and  C_18 
REMARK    8  A    between atoms: C_16  and  C_30 
REMARK    9  A    between atoms: C_18  and  C_19 
REMARK   10  A    between atoms: C_26  and  C_27 
REMARK   11  A    between atoms: C_27  and  C_30 
ROOT
HETATM    1  H           1     -20.218  -7.583  -7.459  0.00  0.00     0.163 HD
HETATM    2  N           1     -20.183  -6.915  -6.701  0.00  0.00    -0.344 N 
HETATM    3  O           1     -19.203  -4.960  -7.152  0.00  0.00    -0.271 OA
HETATM    4  C           1     -20.227  -5.572  -6.968  0.00  0.00     0.249 C 
ENDROOT
BRANCH   2   5
HETATM    5  C           1     -20.088  -7.378  -5.330  0.00  0.00     0.190 C 
BRANCH   5   6
HETATM    6  C           1     -19.083  -8.499  -5.248  0.00  0.00     0.197 C 
HETATM    7  O           1     -18.575  -8.962  -6.292  0.00  0.00    -0.646 OA
HETATM    8  O           1     -18.757  -8.966  -4.134  0.00  0.00    -0.646 OA
ENDBRANCH   5   6
BRANCH   5   9
HETATM    9  C           1     -21.450  -7.881  -4.869  0.00  0.00     0.077 C 
BRANCH   9  10
HETATM   10  C           1     -21.753  -7.330  -3.510  0.00  0.00    -0.021 A 
HETATM   11  C           1     -21.788  -8.068  -2.295  0.00  0.00     0.005 A 
HETATM   12  C           1     -22.107  -7.169  -1.277  0.00  0.00     0.132 A 
HETATM   13  C           1     -21.576  -9.421  -1.963  0.00  0.00     0.014 A 
HETATM   14  N           1     -22.260  -5.933  -1.863  0.00  0.00    -0.077 N 
HETATM   15  C           1     -22.228  -7.557   0.063  0.00  0.00     0.037 A 
HETATM   16  C           1     -22.048  -6.018  -3.214  0.00  0.00     0.195 A 
HETATM   17  H           1     -22.504  -5.051  -1.348  0.00  0.00     0.271 HD
HETATM   18  C           1     -22.014  -8.904   0.367  0.00  0.00     0.002 A 
HETATM   19  C           1     -21.693  -9.825  -0.629  0.00  0.00     0.001 A 
ENDBRANCH   9  10
ENDBRANCH   5   9
ENDBRANCH   2   5
BRANCH   4  20
HETATM   20  C           1     -21.556  -4.859  -7.035  0.00  0.00     0.274 C 
BRANCH  20  21
HETATM   21  C           1     -22.198  -5.109  -8.393  0.00  0.00     0.043 C 
BRANCH  21  22
HETATM   22  C           1     -22.794  -3.811  -8.921  0.00  0.00     0.006 C 
BRANCH  22  23
HETATM   23  C           1     -22.973  -3.912 -10.430  0.00  0.00     0.420 C 
BRANCH  23  24
HETATM   24  C           1     -24.335  -3.354 -10.819  0.00  0.00     0.231 C 
BRANCH  24  25
HETATM   25  N           1     -25.316  -3.609  -9.713  0.00  0.00    -0.079 N 
HETATM   26  H           1     -25.790  -2.715  -9.456  0.00  0.00     0.274 HD
HETATM   27  H           1     -26.029  -4.303 -10.032  0.00  0.00     0.274 HD
HETATM   28  H           1     -24.810  -3.989  -8.881  0.00  0.00     0.274 HD
ENDBRANCH  24  25
ENDBRANCH  23  24
ENDBRANCH  22  23
ENDBRANCH  21  22
ENDBRANCH  20  21
BRANCH  20  29
HETATM   29  N           1     -21.341  -3.386  -6.849  0.00  0.00    -0.067 N 
HETATM   30  H           1     -20.806  -3.219  -5.967  0.00  0.00     0.275 HD
HETATM   31  H           1     -20.801  -3.009  -7.660  0.00  0.00     0.275 HD
HETATM   32  H           1     -22.266  -2.904  -6.791  0.00  0.00     0.275 HD
ENDBRANCH  20  29
ENDBRANCH   4  20
TORSDOF 11
ENDMDL
MODEL 2
REMARK VINA RESULT:      -7.2      2.540      3.106
REMARK  11 active torsions:
REMARK  status: ('A' for Active; 'I' for Inactive)
REMARK    1  A    between atoms: C_2  and  C_17 
REMARK    2  A    between atoms: C_2  and  C_14 
REMARK    3  A    between atoms: C_7  and  C_18 
REMARK    4  A    between atoms: C_7  and  C_17 
REMARK    5  A    between atoms: N_8  and  C_30 
REMARK       I    between atoms: N_8  and  C_19 
REMARK    6  A    between atoms: N_12  and  C_14 
REMARK    7  A    between atoms: N_13  and  C_18 
REMARK    8  A    between atoms: C_16  and  C_30 
REMARK    9  A    between atoms: C_18  and  C_19 
REMARK   10  A    between atoms: C_26  and  C_27 
REMARK   11  A    between atoms: C_27  and  C_30 
ROOT
HETATM    1  H           1     -19.157  -7.279  -5.702  0.00  0.00     0.163 HD
HETATM    2  N           1     -20.068  -6.852  -5.604  0.00  0.00    -0.344 N 
HETATM    3  O           1     -20.109  -4.622  -5.507  0.00  0.00    -0.271 OA
HETATM    4  C           1     -20.312  -5.622  -6.153  0.00  0.00     0.249 C 
ENDROOT
BRANCH   2   5
HETATM    5  C           1     -21.118  -7.543  -4.881  0.00  0.00     0.190 C 
BRANCH   5   6
HETATM    6  C           1     -22.067  -6.533  -4.286  0.00  0.00     0.197 C 
HETATM    7  O           1     -23.101  -6.204  -4.907  0.00  0.00    -0.646 OA
HETATM    8  O           1     -21.820  -6.024  -3.170  0.00  0.00    -0.646 OA
ENDBRANCH   5   6
BRANCH   5   9
HETATM    9  C           1     -20.502  -8.380  -3.767  0.00  0.00     0.077 C 
BRANCH   9  10
HETATM   10  C           1     -21.409  -9.526  -3.442  0.00  0.00    -0.021 A 
HETATM   11  C           1     -22.133  -9.704  -2.231  0.00  0.00     0.005 A 
HETATM   12  C           1     -22.848 -10.897  -2.351  0.00  0.00     0.132 A 
HETATM   13  C           1     -22.252  -8.961  -1.041  0.00  0.00     0.014 A 
HETATM   14  N           1     -22.558 -11.417  -3.593  0.00  0.00    -0.077 N 
HETATM   15  C           1     -23.676 -11.387  -1.335  0.00  0.00     0.037 A 
HETATM   16  C           1     -21.689 -10.596  -4.261  0.00  0.00     0.195 A 
HETATM   17  H           1     -22.949 -12.315  -3.973  0.00  0.00     0.271 HD
HETATM   18  C           1     -23.777 -10.632  -0.163  0.00  0.00     0.002 A 
HETATM   19  C           1     -23.076  -9.436  -0.015  0.00  0.00     0.001 A 
ENDBRANCH   9  10
ENDBRANCH   5   9
ENDBRANCH   2   5
BRANCH   4  20
HETATM   20  C           1     -20.832  -5.516  -7.566  0.00  0.00     0.274 C 
BRANCH  20  21
HETATM   21  C           1     -19.831  -4.748  -8.419  0.00  0.00     0.043 C 
BRANCH  21  22
HETATM   22  C           1     -20.578  -3.843  -9.390  0.00  0.00     0.006 C 
BRANCH  22  23
HETATM   23  C           1     -20.441  -4.391 -10.804  0.00  0.00     0.420 C 
BRANCH  23  24
HETATM   24  C           1     -21.805  -4.400 -11.480  0.00  0.00     0.231 C 
BRANCH  24  25
HETATM   25  N           1     -21.743  -3.594 -12.744  0.00  0.00    -0.079 N 
HETATM   26  H           1     -20.841  -3.788 -13.236  0.00  0.00     0.274 HD
HETATM   27  H           1     -22.541  -3.856 -13.365  0.00  0.00     0.274 HD
HETATM   28  H           1     -21.802  -2.577 -12.511  0.00  0.00     0.274 HD
ENDBRANCH  24  25
ENDBRANCH  23  24
ENDBRANCH  22  23
ENDBRANCH  21  22
ENDBRANCH  20  21
BRANCH  20  29
HETATM   29  N           1     -22.144  -4.788  -7.561  0.00  0.00    -0.067 N 
HETATM   30  H           1     -22.542  -4.790  -6.595  0.00  0.00     0.275 HD
HETATM   31  H           1     -21.996  -3.802  -7.874  0.00  0.00     0.275 HD
HETATM   32  H           1     -22.809  -5.265  -8.211  0.00  0.00     0.275 HD
ENDBRANCH  20  29
ENDBRANCH   4  20
TORSDOF 11
ENDMDL
MODEL 3
REMARK VINA RESULT:      -7.0      2.135      8.047
REMARK  11 active torsions:
REMARK  status: ('A' for Active; 'I' for Inactive)
REMARK    1  A    between atoms: C_2  and  C_17 
REMARK    2  A    between atoms: C_2  and  C_14 
REMARK    3  A    between atoms: C_7  and  C_18 
REMARK    4  A    between atoms: C_7  and  C_17 
REMARK    5  A    between atoms: N_8  and  C_30 
REMARK       I    between atoms: N_8  and  C_19 
REMARK    6  A    between atoms: N_12  and  C_14 
REMARK    7  A    between atoms: N_13  and  C_18 
REMARK    8  A    between atoms: C_16  and  C_30 
REMARK    9  A    between atoms: C_18  and  C_19 
REMARK   10  A    between atoms: C_26  and  C_27 
REMARK   11  A    between atoms: C_27  and  C_30 
ROOT
HETATM    1  H           1     -23.272  -5.829  -4.386  0.00  0.00     0.163 HD
HETATM    2  N           1     -22.340  -6.209  -4.481  0.00  0.00    -0.344 N 
HETATM    3  O           1     -20.816  -5.459  -3.032  0.00  0.00    -0.271 OA
HETATM    4  C           1     -21.545  -6.358  -3.376  0.00  0.00     0.249 C 
ENDROOT
BRANCH   2   5
HETATM    5  C           1     -21.845  -6.599  -5.787  0.00  0.00     0.190 C 
BRANCH   5   6
HETATM    6  C           1     -20.906  -7.770  -5.639  0.00  0.00     0.197 C 
HETATM    7  O           1     -19.671  -7.580  -5.603  0.00  0.00    -0.646 OA
HETATM    8  O           1     -21.362  -8.931  -5.552  0.00  0.00    -0.646 OA
ENDBRANCH   5   6
BRANCH   5   9
HETATM    9  C           1     -21.102  -5.428  -6.418  0.00  0.00     0.077 C 
BRANCH   9  10
HETATM   10  C           1     -21.967  -4.792  -7.462  0.00  0.00    -0.021 A 
HETATM   11  C           1     -21.569  -4.445  -8.783  0.00  0.00     0.005 A 
HETATM   12  C           1     -22.680  -3.882  -9.412  0.00  0.00     0.132 A 
HETATM   13  C           1     -20.366  -4.559  -9.506  0.00  0.00     0.014 A 
HETATM   14  N           1     -23.709  -3.889  -8.497  0.00  0.00    -0.077 N 
HETATM   15  C           1     -22.647  -3.422 -10.734  0.00  0.00     0.037 A 
HETATM   16  C           1     -23.289  -4.438  -7.315  0.00  0.00     0.195 A 
HETATM   17  H           1     -24.677  -3.526  -8.681  0.00  0.00     0.271 HD
HETATM   18  C           1     -21.441  -3.545 -11.431  0.00  0.00     0.002 A 
HETATM   19  C           1     -20.316  -4.105 -10.828  0.00  0.00     0.001 A 
ENDBRANCH   9  10
ENDBRANCH   5   9
ENDBRANCH   2   5
BRANCH   4  20
HETATM   20  C           1     -21.582  -7.644  -2.587  0.00  0.00     0.274 C 
BRANCH  20  21
HETATM   21  C           1     -22.048  -7.355  -1.166  0.00  0.00     0.043 C 
BRANCH  21  22
HETATM   22  C           1     -22.306  -8.667  -0.438  0.00  0.00     0.006 C 
BRANCH  22  23
HETATM   23  C           1     -21.443  -8.731   0.815  0.00  0.00     0.420 C 
BRANCH  23  24
HETATM   24  C           1     -20.821 -10.116   0.933  0.00  0.00     0.231 C 
BRANCH  24  25
HETATM   25  N           1     -21.101 -10.900  -0.314  0.00  0.00    -0.079 N 
HETATM   26  H           1     -20.308 -11.556  -0.498  0.00  0.00     0.274 HD
HETATM   27  H           1     -21.984 -11.445  -0.194  0.00  0.00     0.274 HD
HETATM   28  H           1     -21.205 -10.244  -1.121  0.00  0.00     0.274 HD
ENDBRANCH  24  25
ENDBRANCH  23  24
ENDBRANCH  22  23
ENDBRANCH  21  22
ENDBRANCH  20  21
BRANCH  20  29
HETATM   29  N           1     -20.209  -8.246  -2.549  0.00  0.00    -0.067 N 
HETATM   30  H           1     -20.120  -8.861  -1.709  0.00  0.00     0.275 HD
HETATM   31  H           1     -20.054  -8.814  -3.413  0.00  0.00     0.275 HD
HETATM   32  H           1     -19.496  -7.484  -2.499  0.00  0.00     0.275 HD
ENDBRANCH  20  29
ENDBRANCH   4  20
TORSDOF 11
ENDMDL
MODEL 4
REMARK VINA RESULT:      -6.9      1.967      8.182
REMARK  11 active torsions:
REMARK  status: ('A' for Active; 'I' for Inactive)
REMARK    1  A    between atoms: C_2  and  C_17 
REMARK    2  A    between atoms: C_2  and  C_14 
REMARK    3  A    between atoms: C_7  and  C_18 
REMARK    4  A    between atoms: C_7  and  C_17 
REMARK    5  A    between atoms: N_8  and  C_30 
REMARK       I    between atoms: N_8  and  C_19 
REMARK    6  A    between atoms: N_12  and  C_14 
REMARK    7  A    between atoms: N_13  and  C_18 
REMARK    8  A    between atoms: C_16  and  C_30 
REMARK    9  A    between atoms: C_18  and  C_19 
REMARK   10  A    between atoms: C_26  and  C_27 
REMARK   11  A    between atoms: C_27  and  C_30 
ROOT
HETATM    1  H           1     -23.294  -5.513  -5.618  0.00  0.00     0.163 HD
HETATM    2  N           1     -22.315  -5.762  -5.657  0.00  0.00    -0.344 N 
HETATM    3  O           1     -21.199  -5.682  -3.725  0.00  0.00    -0.271 OA
HETATM    4  C           1     -21.717  -6.359  -4.580  0.00  0.00     0.249 C 
ENDROOT
BRANCH   2   5
HETATM    5  C           1     -21.544  -5.488  -6.854  0.00  0.00     0.190 C 
BRANCH   5   6
HETATM    6  C           1     -20.073  -5.495  -6.516  0.00  0.00     0.197 C 
HETATM    7  O           1     -19.545  -4.484  -6.006  0.00  0.00    -0.646 OA
HETATM    8  O           1     -19.383  -6.512  -6.747  0.00  0.00    -0.646 OA
ENDBRANCH   5   6
BRANCH   5   9
HETATM    9  C           1     -21.932  -4.122  -7.406  0.00  0.00     0.077 C 
BRANCH   9  10
HETATM   10  C           1     -21.631  -4.072  -8.872  0.00  0.00    -0.021 A 
HETATM   11  C           1     -22.566  -3.807  -9.911  0.00  0.00     0.005 A 
HETATM   12  C           1     -21.866  -3.856 -11.117  0.00  0.00     0.132 A 
HETATM   13  C           1     -23.946  -3.526  -9.940  0.00  0.00     0.014 A 
HETATM   14  N           1     -20.554  -4.144 -10.810  0.00  0.00    -0.077 N 
HETATM   15  C           1     -22.480  -3.641 -12.356  0.00  0.00     0.037 A 
HETATM   16  C           1     -20.401  -4.276  -9.456  0.00  0.00     0.195 A 
HETATM   17  H           1     -19.783  -4.247 -11.515  0.00  0.00     0.271 HD
HETATM   18  C           1     -23.850  -3.365 -12.359  0.00  0.00     0.002 A 
HETATM   19  C           1     -24.575  -3.308 -11.170  0.00  0.00     0.001 A 
ENDBRANCH   9  10
ENDBRANCH   5   9
ENDBRANCH   2   5
BRANCH   4  20
HETATM   20  C           1     -21.707  -7.863  -4.460  0.00  0.00     0.274 C 
BRANCH  20  21
HETATM   21  C           1     -20.794  -8.276  -3.312  0.00  0.00     0.043 C 
BRANCH  21  22
HETATM   22  C           1     -21.619  -8.947  -2.222  0.00  0.00     0.006 C 
BRANCH  22  23
HETATM   23  C           1     -21.294  -8.312  -0.876  0.00  0.00     0.420 C 
BRANCH  23  24
HETATM   24  C           1     -22.329  -7.241  -0.557  0.00  0.00     0.231 C 
BRANCH  24  25
HETATM   25  N           1     -23.378  -7.811   0.350  0.00  0.00    -0.079 N 
HETATM   26  H           1     -23.427  -7.242   1.225  0.00  0.00     0.274 HD
HETATM   27  H           1     -24.305  -7.791  -0.131  0.00  0.00     0.274 HD
HETATM   28  H           1     -23.131  -8.798   0.590  0.00  0.00     0.274 HD
ENDBRANCH  24  25
ENDBRANCH  23  24
ENDBRANCH  22  23
ENDBRANCH  21  22
ENDBRANCH  20  21
BRANCH  20  29
HETATM   29  N           1     -21.200  -8.463  -5.739  0.00  0.00    -0.067 N 
HETATM   30  H           1     -21.422  -7.824  -6.536  0.00  0.00     0.275 HD
HETATM   31  H           1     -20.165  -8.593  -5.675  0.00  0.00     0.275 HD
HETATM   32  H           1     -21.660  -9.388  -5.896  0.00  0.00     0.275 HD
ENDBRANCH  20  29
ENDBRANCH   4  20
TORSDOF 11
ENDMDL
MODEL 5
REMARK VINA RESULT:      -6.8      1.684      2.454
REMARK  11 active torsions:
REMARK  status: ('A' for Active; 'I' for Inactive)
REMARK    1  A    between atoms: C_2  and  C_17 
REMARK    2  A    between atoms: C_2  and  C_14 
REMARK    3  A    between atoms: C_7  and  C_18 
REMARK    4  A    between atoms: C_7  and  C_17 
REMARK    5  A    between atoms: N_8  and  C_30 
REMARK       I    between atoms: N_8  and  C_19 
REMARK    6  A    between atoms: N_12  and  C_14 
REMARK    7  A    between atoms: N_13  and  C_18 
REMARK    8  A    between atoms: C_16  and  C_30 
REMARK    9  A    between atoms: C_18  and  C_19 
REMARK   10  A    between atoms: C_26  and  C_27 
REMARK   11  A    between atoms: C_27  and  C_30 
ROOT
HETATM    1  H           1     -21.584  -8.539  -6.298  0.00  0.00     0.163 HD
HETATM    2  N           1     -20.862  -8.084  -5.755  0.00  0.00    -0.344 N 
HETATM    3  O           1     -19.499  -6.717  -6.877  0.00  0.00    -0.271 OA
HETATM    4  C           1     -20.423  -6.836  -6.110  0.00  0.00     0.249 C 
ENDROOT
BRANCH   2   5
HETATM    5  C           1     -20.292  -8.752  -4.602  0.00  0.00     0.190 C 
BRANCH   5   6
HETATM    6  C           1     -19.025  -9.463  -5.009  0.00  0.00     0.197 C 
HETATM    7  O           1     -18.000  -9.367  -4.300  0.00  0.00    -0.646 OA
HETATM    8  O           1     -19.001 -10.147  -6.055  0.00  0.00    -0.646 OA
ENDBRANCH   5   6
BRANCH   5   9
HETATM    9  C           1     -21.291  -9.765  -4.057  0.00  0.00     0.077 C 
BRANCH   9  10
HETATM   10  C           1     -21.014 -10.008  -2.605  0.00  0.00    -0.021 A 
HETATM   11  C           1     -21.404  -9.168  -1.526  0.00  0.00     0.005 A 
HETATM   12  C           1     -20.946  -9.768  -0.352  0.00  0.00     0.132 A 
HETATM   13  C           1     -22.108  -7.951  -1.435  0.00  0.00     0.014 A 
HETATM   14  N           1     -20.301 -10.929  -0.718  0.00  0.00    -0.077 N 
HETATM   15  C           1     -21.155  -9.208   0.913  0.00  0.00     0.037 A 
HETATM   16  C           1     -20.336 -11.083  -2.078  0.00  0.00     0.195 A 
HETATM   17  H           1     -19.847 -11.598  -0.048  0.00  0.00     0.271 HD
HETATM   18  C           1     -21.855  -8.000   0.978  0.00  0.00     0.002 A 
HETATM   19  C           1     -22.326  -7.378  -0.177  0.00  0.00     0.001 A 
ENDBRANCH   9  10
ENDBRANCH   5   9
ENDBRANCH   2   5
BRANCH   4  20
HETATM   20  C           1     -21.096  -5.610  -5.542  0.00  0.00     0.274 C 
BRANCH  20  21
HETATM   21  C           1     -22.274  -5.222  -6.426  0.00  0.00     0.043 C 
BRANCH  21  22
HETATM   22  C           1     -21.859  -4.095  -7.362  0.00  0.00     0.006 C 
BRANCH  22  23
HETATM   23  C           1     -22.001  -4.556  -8.806  0.00  0.00     0.420 C 
BRANCH  23  24
HETATM   24  C           1     -22.985  -3.650  -9.535  0.00  0.00     0.231 C 
BRANCH  24  25
HETATM   25  N           1     -24.280  -3.606  -8.779  0.00  0.00    -0.079 N 
HETATM   26  H           1     -24.888  -4.400  -9.083  0.00  0.00     0.274 HD
HETATM   27  H           1     -24.090  -3.686  -7.755  0.00  0.00     0.274 HD
HETATM   28  H           1     -24.765  -2.701  -8.973  0.00  0.00     0.274 HD
ENDBRANCH  24  25
ENDBRANCH  23  24
ENDBRANCH  22  23
ENDBRANCH  21  22
ENDBRANCH  20  21
BRANCH  20  29
HETATM   29  N           1     -20.113  -4.477  -5.497  0.00  0.00    -0.067 N 
HETATM   30  H           1     -19.162  -4.848  -5.272  0.00  0.00     0.275 HD
HETATM   31  H           1     -20.089  -4.000  -6.427  0.00  0.00     0.275 HD
HETATM   32  H           1     -20.403  -3.794  -4.761  0.00  0.00     0.275 HD
ENDBRANCH  20  29
ENDBRANCH   4  20
TORSDOF 11
ENDMDL
MODEL 6
REMARK VINA RESULT:      -6.8      2.765      5.186
REMARK  11 active torsions:
REMARK  status: ('A' for Active; 'I' for Inactive)
REMARK    1  A    between atoms: C_2  and  C_17 
REMARK    2  A    between atoms: C_2  and  C_14 
REMARK    3  A    between atoms: C_7  and  C_18 
REMARK    4  A    between atoms: C_7  and  C_17 
REMARK    5  A    between atoms: N_8  and  C_30 
REMARK       I    between atoms: N_8  and  C_19 
REMARK    6  A    between atoms: N_12  and  C_14 
REMARK    7  A    between atoms: N_13  and  C_18 
REMARK    8  A    between atoms: C_16  and  C_30 
REMARK    9  A    between atoms: C_18  and  C_19 
REMARK   10  A    between atoms: C_26  and  C_27 
REMARK   11  A    between atoms: C_27  and  C_30 
ROOT
HETATM    1  H           1     -20.003  -7.273  -2.268  0.00  0.00     0.163 HD
HETATM    2  N           1     -20.945  -7.561  -2.496  0.00  0.00    -0.344 N 
HETATM    3  O           1     -22.464  -5.933  -2.657  0.00  0.00    -0.271 OA
HETATM    4  C           1     -21.758  -6.733  -3.222  0.00  0.00     0.249 C 
ENDROOT
BRANCH   2   5
HETATM    5  C           1     -21.435  -8.852  -2.054  0.00  0.00     0.190 C 
BRANCH   5   6
HETATM    6  C           1     -21.986  -8.729  -0.655  0.00  0.00     0.197 C 
HETATM    7  O           1     -22.861  -9.527  -0.255  0.00  0.00    -0.646 OA
HETATM    8  O           1     -21.568  -7.828   0.104  0.00  0.00    -0.646 OA
ENDBRANCH   5   6
BRANCH   5   9
HETATM    9  C           1     -20.291  -9.859  -2.063  0.00  0.00     0.077 C 
BRANCH   9  10
HETATM   10  C           1     -19.736  -9.973  -3.449  0.00  0.00    -0.021 A 
HETATM   11  C           1     -18.363  -9.895  -3.811  0.00  0.00     0.005 A 
HETATM   12  C           1     -18.294 -10.052  -5.196  0.00  0.00     0.132 A 
HETATM   13  C           1     -17.168  -9.708  -3.090  0.00  0.00     0.014 A 
HETATM   14  N           1     -19.584 -10.216  -5.649  0.00  0.00    -0.077 N 
HETATM   15  C           1     -17.084 -10.028  -5.899  0.00  0.00     0.037 A 
HETATM   16  C           1     -20.465 -10.170  -4.601  0.00  0.00     0.195 A 
HETATM   17  H           1     -19.853 -10.357  -6.654  0.00  0.00     0.271 HD
HETATM   18  C           1     -15.912  -9.840  -5.162  0.00  0.00     0.002 A 
HETATM   19  C           1     -15.950  -9.682  -3.778  0.00  0.00     0.001 A 
ENDBRANCH   9  10
ENDBRANCH   5   9
ENDBRANCH   2   5
BRANCH   4  20
HETATM   20  C           1     -21.770  -6.819  -4.729  0.00  0.00     0.274 C 
BRANCH  20  21
HETATM   21  C           1     -20.424  -6.363  -5.275  0.00  0.00     0.043 C 
BRANCH  21  22
HETATM   22  C           1     -20.501  -4.891  -5.658  0.00  0.00     0.006 C 
BRANCH  22  23
HETATM   23  C           1     -19.939  -4.701  -7.060  0.00  0.00     0.420 C 
BRANCH  23  24
HETATM   24  C           1     -21.081  -4.454  -8.036  0.00  0.00     0.231 C 
BRANCH  24  25
HETATM   25  N           1     -21.948  -3.343  -7.524  0.00  0.00    -0.079 N 
HETATM   26  H           1     -21.728  -2.462  -8.041  0.00  0.00     0.274 HD
HETATM   27  H           1     -22.953  -3.589  -7.668  0.00  0.00     0.274 HD
HETATM   28  H           1     -21.767  -3.203  -6.504  0.00  0.00     0.274 HD
ENDBRANCH  24  25
ENDBRANCH  23  24
ENDBRANCH  22  23
ENDBRANCH  21  22
ENDBRANCH  20  21
BRANCH  20  29
HETATM   29  N           1     -22.854  -5.934  -5.271  0.00  0.00    -0.067 N 
HETATM   30  H           1     -23.062  -6.201  -6.259  0.00  0.00     0.275 HD
HETATM   31  H           1     -23.716  -6.046  -4.691  0.00  0.00     0.275 HD
HETATM   32  H           1     -22.538  -4.938  -5.239  0.00  0.00     0.275 HD
ENDBRANCH  20  29
ENDBRANCH   4  20
TORSDOF 11
ENDMDL
MODEL 7
REMARK VINA RESULT:      -6.4     14.146     16.283
REMARK  11 active torsions:
REMARK  status: ('A' for Active; 'I' for Inactive)
REMARK    1  A    between atoms: C_2  and  C_17 
REMARK    2  A    between atoms: C_2  and  C_14 
REMARK    3  A    between atoms: C_7  and  C_18 
REMARK    4  A    between atoms: C_7  and  C_17 
REMARK    5  A    between atoms: N_8  and  C_30 
REMARK       I    between atoms: N_8  and  C_19 
REMARK    6  A    between atoms: N_12  and  C_14 
REMARK    7  A    between atoms: N_13  and  C_18 
REMARK    8  A    between atoms: C_16  and  C_30 
REMARK    9  A    between atoms: C_18  and  C_19 
REMARK   10  A    between atoms: C_26  and  C_27 
REMARK   11  A    between atoms: C_27  and  C_30 
ROOT
HETATM    1  H           1     -34.022  -1.459 -13.097  0.00  0.00     0.163 HD
HETATM    2  N           1     -34.878  -1.229 -12.610  0.00  0.00    -0.344 N 
HETATM    3  O           1     -35.402   0.939 -12.507  0.00  0.00    -0.271 OA
HETATM    4  C           1     -35.616  -0.143 -12.998  0.00  0.00     0.249 C 
ENDROOT
BRANCH   2   5
HETATM    5  C           1     -35.324  -2.049 -11.500  0.00  0.00     0.190 C 
BRANCH   5   6
HETATM    6  C           1     -36.366  -1.298 -10.708  0.00  0.00     0.197 C 
HETATM    7  O           1     -37.578  -1.433 -10.984  0.00  0.00    -0.646 OA
HETATM    8  O           1     -36.018  -0.540  -9.777  0.00  0.00    -0.646 OA
ENDBRANCH   5   6
BRANCH   5   9
HETATM    9  C           1     -34.139  -2.374 -10.600  0.00  0.00     0.077 C 
BRANCH   9  10
HETATM   10  C           1     -33.565  -3.702 -10.989  0.00  0.00    -0.021 A 
HETATM   11  C           1     -34.040  -4.975 -10.570  0.00  0.00     0.005 A 
HETATM   12  C           1     -33.221  -5.935 -11.165  0.00  0.00     0.132 A 
HETATM   13  C           1     -35.094  -5.404  -9.740  0.00  0.00     0.014 A 
HETATM   14  N           1     -32.284  -5.258 -11.914  0.00  0.00    -0.077 N 
HETATM   15  C           1     -33.402  -7.309 -10.968  0.00  0.00     0.037 A 
HETATM   16  C           1     -32.484  -3.907 -11.815  0.00  0.00     0.195 A 
HETATM   17  H           1     -31.526  -5.715 -12.480  0.00  0.00     0.271 HD
HETATM   18  C           1     -34.454  -7.710 -10.140  0.00  0.00     0.002 A 
HETATM   19  C           1     -35.290  -6.774  -9.533  0.00  0.00     0.001 A 
ENDBRANCH   9  10
ENDBRANCH   5   9
ENDBRANCH   2   5
BRANCH   4  20
HETATM   20  C           1     -36.696  -0.299 -14.041  0.00  0.00     0.274 C 
BRANCH  20  21
HETATM   21  C           1     -36.343   0.536 -15.265  0.00  0.00     0.043 C 
BRANCH  21  22
HETATM   22  C           1     -35.185  -0.114 -16.009  0.00  0.00     0.006 C 
BRANCH  22  23
HETATM   23  C           1     -35.690  -1.331 -16.772  0.00  0.00     0.420 C 
BRANCH  23  24
HETATM   24  C           1     -34.861  -2.550 -16.390  0.00  0.00     0.231 C 
BRANCH  24  25
HETATM   25  N           1     -33.797  -2.778 -17.422  0.00  0.00    -0.079 N 
HETATM   26  H           1     -33.040  -3.371 -17.016  0.00  0.00     0.274 HD
HETATM   27  H           1     -34.212  -3.260 -18.251  0.00  0.00     0.274 HD
HETATM   28  H           1     -33.399  -1.858 -17.719  0.00  0.00     0.274 HD
ENDBRANCH  24  25
ENDBRANCH  23  24
ENDBRANCH  22  23
ENDBRANCH  21  22
ENDBRANCH  20  21
BRANCH  20  29
HETATM   29  N           1     -38.005   0.170 -13.478  0.00  0.00    -0.067 N 
HETATM   30  H           1     -38.093  -0.149 -12.487  0.00  0.00     0.275 HD
HETATM   31  H           1     -38.044   1.214 -13.513  0.00  0.00     0.275 HD
HETATM   32  H           1     -38.789  -0.228 -14.043  0.00  0.00     0.275 HD
ENDBRANCH  20  29
ENDBRANCH   4  20
TORSDOF 11
ENDMDL
MODEL 8
REMARK VINA RESULT:      -6.4      3.932      6.898
REMARK  11 active torsions:
REMARK  status: ('A' for Active; 'I' for Inactive)
REMARK    1  A    between atoms: C_2  and  C_17 
REMARK    2  A    between atoms: C_2  and  C_14 
REMARK    3  A    between atoms: C_7  and  C_18 
REMARK    4  A    between atoms: C_7  and  C_17 
REMARK    5  A    between atoms: N_8  and  C_30 
REMARK       I    between atoms: N_8  and  C_19 
REMARK    6  A    between atoms: N_12  and  C_14 
REMARK    7  A    between atoms: N_13  and  C_18 
REMARK    8  A    between atoms: C_16  and  C_30 
REMARK    9  A    between atoms: C_18  and  C_19 
REMARK   10  A    between atoms: C_26  and  C_27 
REMARK   11  A    between atoms: C_27  and  C_30 
ROOT
HETATM    1  H           1     -18.197  -8.231  -6.071  0.00  0.00     0.163 HD
HETATM    2  N           1     -18.698  -9.029  -5.704  0.00  0.00    -0.344 N 
HETATM    3  O           1     -18.525 -10.923  -6.873  0.00  0.00    -0.271 OA
HETATM    4  C           1     -18.206 -10.293  -5.895  0.00  0.00     0.249 C 
ENDROOT
BRANCH   2   5
HETATM    5  C           1     -19.937  -8.837  -4.976  0.00  0.00     0.190 C 
BRANCH   5   6
HETATM    6  C           1     -20.673  -7.649  -5.545  0.00  0.00     0.197 C 
HETATM    7  O           1     -20.168  -6.988  -6.477  0.00  0.00    -0.646 OA
HETATM    8  O           1     -21.790  -7.326  -5.083  0.00  0.00    -0.646 OA
ENDBRANCH   5   6
BRANCH   5   9
HETATM    9  C           1     -19.628  -8.587  -3.506  0.00  0.00     0.077 C 
BRANCH   9  10
HETATM   10  C           1     -20.585  -9.363  -2.655  0.00  0.00    -0.021 A 
HETATM   11  C           1     -21.439  -8.828  -1.652  0.00  0.00     0.005 A 
HETATM   12  C           1     -22.157  -9.895  -1.111  0.00  0.00     0.132 A 
HETATM   13  C           1     -21.673  -7.532  -1.153  0.00  0.00     0.014 A 
HETATM   14  N           1     -21.744 -11.033  -1.767  0.00  0.00    -0.077 N 
HETATM   15  C           1     -23.099  -9.731  -0.089  0.00  0.00     0.037 A 
HETATM   16  C           1     -20.794 -10.723  -2.703  0.00  0.00     0.195 A 
HETATM   17  H           1     -22.107 -12.000  -1.577  0.00  0.00     0.271 HD
HETATM   18  C           1     -23.313  -8.435   0.390  0.00  0.00     0.002 A 
HETATM   19  C           1     -22.612  -7.350  -0.132  0.00  0.00     0.001 A 
ENDBRANCH   9  10
ENDBRANCH   5   9
ENDBRANCH   2   5
BRANCH   4  20
HETATM   20  C           1     -17.263 -10.896  -4.882  0.00  0.00     0.274 C 
BRANCH  20  21
HETATM   21  C           1     -16.129  -9.919  -4.599  0.00  0.00     0.043 C 
BRANCH  21  22
HETATM   22  C           1     -16.086  -9.607  -3.109  0.00  0.00     0.006 C 
BRANCH  22  23
HETATM   23  C           1     -16.893 -10.651  -2.348  0.00  0.00     0.420 C 
BRANCH  23  24
HETATM   24  C           1     -15.983 -11.385  -1.373  0.00  0.00     0.231 C 
BRANCH  24  25
HETATM   25  N           1     -15.375 -12.576  -2.054  0.00  0.00    -0.079 N 
HETATM   26  H           1     -14.657 -12.254  -2.742  0.00  0.00     0.274 HD
HETATM   27  H           1     -14.923 -13.193  -1.342  0.00  0.00     0.274 HD
HETATM   28  H           1     -16.122 -13.109  -2.554  0.00  0.00     0.274 HD
ENDBRANCH  24  25
ENDBRANCH  23  24
ENDBRANCH  22  23
ENDBRANCH  21  22
ENDBRANCH  20  21
BRANCH  20  29
HETATM   29  N           1     -16.695 -12.173  -5.428  0.00  0.00    -0.067 N 
HETATM   30  H           1     -16.451 -12.045  -6.436  0.00  0.00     0.275 HD
HETATM   31  H           1     -15.835 -12.428  -4.892  0.00  0.00     0.275 HD
HETATM   32  H           1     -17.403 -12.936  -5.336  0.00  0.00     0.275 HD
ENDBRANCH  20  29
ENDBRANCH   4  20
TORSDOF 11
ENDMDL
MODEL 9
REMARK VINA RESULT:      -6.3      2.447      7.059
REMARK  11 active torsions:
REMARK  status: ('A' for Active; 'I' for Inactive)
REMARK    1  A    between atoms: C_2  and  C_17 
REMARK    2  A    between atoms: C_2  and  C_14 
REMARK    3  A    between atoms: C_7  and  C_18 
REMARK    4  A    between atoms: C_7  and  C_17 
REMARK    5  A    between atoms: N_8  and  C_30 
REMARK       I    between atoms: N_8  and  C_19 
REMARK    6  A    between atoms: N_12  and  C_14 
REMARK    7  A    between atoms: N_13  and  C_18 
REMARK    8  A    between atoms: C_16  and  C_30 
REMARK    9  A    between atoms: C_18  and  C_19 
REMARK   10  A    between atoms: C_26  and  C_27 
REMARK   11  A    between atoms: C_27  and  C_30 
ROOT
HETATM    1  H           1     -19.136  -9.859  -2.984  0.00  0.00     0.163 HD
HETATM    2  N           1     -20.080 -10.061  -3.284  0.00  0.00    -0.344 N 
HETATM    3  O           1     -20.851 -12.101  -2.810  0.00  0.00    -0.271 OA
HETATM    4  C           1     -20.861 -10.921  -2.559  0.00  0.00     0.249 C 
ENDROOT
BRANCH   2   5
HETATM    5  C           1     -20.609  -9.439  -4.482  0.00  0.00     0.190 C 
BRANCH   5   6
HETATM    6  C           1     -20.377 -10.348  -5.664  0.00  0.00     0.197 C 
HETATM    7  O           1     -21.351 -10.818  -6.291  0.00  0.00    -0.646 OA
HETATM    8  O           1     -19.211 -10.631  -6.016  0.00  0.00    -0.646 OA
ENDBRANCH   5   6
BRANCH   5   9
HETATM    9  C           1     -19.902  -8.110  -4.718  0.00  0.00     0.077 C 
BRANCH   9  10
HETATM   10  C           1     -20.889  -7.102  -5.222  0.00  0.00    -0.021 A 
HETATM   11  C           1     -20.621  -6.060  -6.152  0.00  0.00     0.005 A 
HETATM   12  C           1     -21.815  -5.361  -6.340  0.00  0.00     0.132 A 
HETATM   13  C           1     -19.475  -5.645  -6.857  0.00  0.00     0.014 A 
HETATM   14  N           1     -22.765  -5.964  -5.546  0.00  0.00    -0.077 N 
HETATM   15  C           1     -21.918  -4.261  -7.200  0.00  0.00     0.037 A 
HETATM   16  C           1     -22.216  -7.018  -4.866  0.00  0.00     0.195 A 
HETATM   17  H           1     -23.767  -5.658  -5.474  0.00  0.00     0.271 HD
HETATM   18  C           1     -20.766  -3.868  -7.887  0.00  0.00     0.002 A 
HETATM   19  C           1     -19.561  -4.547  -7.720  0.00  0.00     0.001 A 
ENDBRANCH   9  10
ENDBRANCH   5   9
ENDBRANCH   2   5
BRANCH   4  20
HETATM   20  C           1     -21.730 -10.393  -1.444  0.00  0.00     0.274 C 
BRANCH  20  21
HETATM   21  C           1     -20.876  -9.596  -0.467  0.00  0.00     0.043 C 
BRANCH  21  22
HETATM   22  C           1     -21.776  -8.768   0.440  0.00  0.00     0.006 C 
BRANCH  22  23
HETATM   23  C           1     -22.588  -7.793  -0.403  0.00  0.00     0.420 C 
BRANCH  23  24
HETATM   24  C           1     -21.659  -7.045  -1.349  0.00  0.00     0.231 C 
BRANCH  24  25
HETATM   25  N           1     -22.307  -5.761  -1.777  0.00  0.00    -0.079 N 
HETATM   26  H           1     -22.969  -5.951  -2.563  0.00  0.00     0.274 HD
HETATM   27  H           1     -22.830  -5.349  -0.973  0.00  0.00     0.274 HD
HETATM   28  H           1     -21.571  -5.090  -2.095  0.00  0.00     0.274 HD
ENDBRANCH  24  25
ENDBRANCH  23  24
ENDBRANCH  22  23
ENDBRANCH  21  22
ENDBRANCH  20  21
BRANCH  20  29
HETATM   29  N           1     -22.370 -11.542  -0.723  0.00  0.00    -0.067 N 
HETATM   30  H           1     -23.407 -11.413  -0.708  0.00  0.00     0.275 HD
HETATM   31  H           1     -22.138 -12.434  -1.216  0.00  0.00     0.275 HD
HETATM   32  H           1     -22.010 -11.582   0.258  0.00  0.00     0.275 HD
ENDBRANCH  20  29
ENDBRANCH   4  20
TORSDOF 11
ENDMDL
