MODEL 1
REMARK VINA RESULT:      -5.9      0.000      0.000
REMARK  10 active torsions:
REMARK  status: ('A' for Active; 'I' for Inactive)
REMARK    1  A    between atoms: C_1  and  C_2 
REMARK    2  A    between atoms: C_1  and  C_23 
REMARK    3  A    between atoms: C_1  and  N_20 
REMARK    4  A    between atoms: C_2  and  S_3 
REMARK    5  A    between atoms: N_11  and  C_18 
REMARK    6  A    between atoms: O_14  and  P_15 
REMARK    7  A    between atoms: P_15  and  O_16 
REMARK    8  A    between atoms: O_16  and  C_17 
REMARK    9  A    between atoms: C_17  and  C_18 
REMARK   10  A    between atoms: C_18  and  C_19 
REMARK       I    between atoms: C_19  and  N_20 
ROOT
HETATM    1  C           1     -33.145  -4.516 -16.779  0.00  0.00     0.298 C 
ENDROOT
BRANCH   1   2
HETATM    2  N           1     -33.210  -3.130 -17.350  0.00  0.00    -0.064 N 
HETATM    3  H           1     -32.240  -2.762 -17.478  0.00  0.00     0.275 HD
HETATM    4  H           1     -33.737  -2.508 -16.697  0.00  0.00     0.275 HD
HETATM    5  H           1     -33.696  -3.156 -18.275  0.00  0.00     0.275 HD
ENDBRANCH   1   2
BRANCH   1   6
HETATM    6  C           1     -31.694  -4.882 -16.497  0.00  0.00     0.224 C 
BRANCH   6   7
HETATM    7  O           1     -31.375  -6.076 -17.160  0.00  0.00    -0.287 OA
BRANCH   7   8
HETATM    8  P           1     -29.807  -6.455 -17.220  0.00  0.00     0.406 P 
HETATM    9  O           1     -29.145  -6.012 -15.972  0.00  0.00    -0.624 OA
HETATM   10  O           1     -29.180  -5.780 -18.378  0.00  0.00    -0.624 OA
BRANCH   8  11
HETATM   11  O           1     -29.644  -8.054 -17.376  0.00  0.00    -0.300 OA
HETATM   12  H           1     -30.102  -8.420 -16.639  0.00  0.00     0.223 HD
ENDBRANCH   8  11
ENDBRANCH   7   8
ENDBRANCH   6   7
ENDBRANCH   1   6
BRANCH   1  13
HETATM   13  C           1     -33.937  -4.567 -15.496  0.00  0.00     0.251 C 
HETATM   14  O           1     -35.023  -5.098 -15.477  0.00  0.00    -0.271 OA
HETATM   15  N           1     -33.427  -4.012 -14.353  0.00  0.00    -0.344 N 
HETATM   16  H           1     -32.517  -3.568 -14.369  0.00  0.00     0.163 HD
BRANCH  15  17
HETATM   17  C           1     -34.188  -4.062 -13.120  0.00  0.00     0.194 C 
BRANCH  17  18
HETATM   18  C           1     -33.249  -4.350 -11.956  0.00  0.00     0.106 C 
BRANCH  18  19
HETATM   19  S           1     -33.916  -5.716 -10.965  0.00  0.00    -0.180 SA
HETATM   20  H           1     -32.940  -5.708 -10.039  0.00  0.00     0.101 HD
ENDBRANCH  18  19
ENDBRANCH  17  18
BRANCH  17  21
HETATM   21  C           1     -34.872  -2.735 -12.899  0.00  0.00     0.197 C 
HETATM   22  O           1     -34.808  -1.845 -13.775  0.00  0.00    -0.646 OA
HETATM   23  O           1     -35.501  -2.526 -11.840  0.00  0.00    -0.646 OA
ENDBRANCH  17  21
ENDBRANCH  15  17
ENDBRANCH   1  13
TORSDOF 10
ENDMDL
MODEL 2
REMARK VINA RESULT:      -5.8      4.573      6.454
REMARK  10 active torsions:
REMARK  status: ('A' for Active; 'I' for Inactive)
REMARK    1  A    between atoms: C_1  and  C_2 
REMARK    2  A    between atoms: C_1  and  C_23 
REMARK    3  A    between atoms: C_1  and  N_20 
REMARK    4  A    between atoms: C_2  and  S_3 
REMARK    5  A    between atoms: N_11  and  C_18 
REMARK    6  A    between atoms: O_14  and  P_15 
REMARK    7  A    between atoms: P_15  and  O_16 
REMARK    8  A    between atoms: O_16  and  C_17 
REMARK    9  A    between atoms: C_17  and  C_18 
REMARK   10  A    between atoms: C_18  and  C_19 
REMARK       I    between atoms: C_19  and  N_20 
ROOT
HETATM    1  C           1     -36.317  -1.089 -10.769  0.00  0.00     0.298 C 
ENDROOT
BRANCH   1   2
HETATM    2  N           1     -36.188  -0.208  -9.561  0.00  0.00    -0.064 N 
HETATM    3  H           1     -35.790  -0.761  -8.768  0.00  0.00     0.275 HD
HETATM    4  H           1     -37.129   0.158  -9.294  0.00  0.00     0.275 HD
HETATM    5  H           1     -35.552   0.593  -9.780  0.00  0.00     0.275 HD
ENDBRANCH   1   2
BRANCH   1   6
HETATM    6  C           1     -36.188  -0.244 -12.029  0.00  0.00     0.224 C 
BRANCH   6   7
HETATM    7  O           1     -36.405  -1.049 -13.157  0.00  0.00    -0.287 OA
BRANCH   7   8
HETATM    8  P           1     -35.704  -0.556 -14.525  0.00  0.00     0.406 P 
HETATM    9  O           1     -34.590   0.364 -14.204  0.00  0.00    -0.624 OA
HETATM   10  O           1     -36.701   0.148 -15.363  0.00  0.00    -0.624 OA
BRANCH   8  11
HETATM   11  O           1     -35.132  -1.834 -15.329  0.00  0.00    -0.300 OA
HETATM   12  H           1     -34.349  -2.082 -14.869  0.00  0.00     0.223 HD
ENDBRANCH   8  11
ENDBRANCH   7   8
ENDBRANCH   6   7
ENDBRANCH   1   6
BRANCH   1  13
HETATM   13  C           1     -35.227  -2.132 -10.748  0.00  0.00     0.251 C 
HETATM   14  O           1     -34.166  -1.886 -10.225  0.00  0.00    -0.271 OA
HETATM   15  N           1     -35.440  -3.357 -11.320  0.00  0.00    -0.344 N 
HETATM   16  H           1     -36.329  -3.564 -11.757  0.00  0.00     0.163 HD
BRANCH  15  17
HETATM   17  C           1     -34.392  -4.359 -11.299  0.00  0.00     0.194 C 
BRANCH  17  18
HETATM   18  C           1     -35.000  -5.732 -11.556  0.00  0.00     0.106 C 
BRANCH  18  19
HETATM   19  S           1     -34.581  -6.845 -10.185  0.00  0.00    -0.180 SA
HETATM   20  H           1     -33.655  -6.043  -9.630  0.00  0.00     0.101 HD
ENDBRANCH  18  19
ENDBRANCH  17  18
BRANCH  17  21
HETATM   21  C           1     -33.379  -4.048 -12.373  0.00  0.00     0.197 C 
HETATM   22  O           1     -32.157  -4.149 -12.127  0.00  0.00    -0.646 OA
HETATM   23  O           1     -33.761  -3.691 -13.507  0.00  0.00    -0.646 OA
ENDBRANCH  17  21
ENDBRANCH  15  17
ENDBRANCH   1  13
TORSDOF 10
ENDMDL
MODEL 3
REMARK VINA RESULT:      -5.8     10.862     12.432
REMARK  10 active torsions:
REMARK  status: ('A' for Active; 'I' for Inactive)
REMARK    1  A    between atoms: C_1  and  C_2 
REMARK    2  A    between atoms: C_1  and  C_23 
REMARK    3  A    between atoms: C_1  and  N_20 
REMARK    4  A    between atoms: C_2  and  S_3 
REMARK    5  A    between atoms: N_11  and  C_18 
REMARK    6  A    between atoms: O_14  and  P_15 
REMARK    7  A    between atoms: P_15  and  O_16 
REMARK    8  A    between atoms: O_16  and  C_17 
REMARK    9  A    between atoms: C_17  and  C_18 
REMARK   10  A    between atoms: C_18  and  C_19 
REMARK       I    between atoms: C_19  and  N_20 
ROOT
HETATM    1  C           1     -23.861  -4.304  -9.940  0.00  0.00     0.298 C 
ENDROOT
BRANCH   1   2
HETATM    2  N           1     -25.287  -3.890  -9.724  0.00  0.00    -0.064 N 
HETATM    3  H           1     -25.667  -3.479 -10.607  0.00  0.00     0.275 HD
HETATM    4  H           1     -25.332  -3.180  -8.959  0.00  0.00     0.275 HD
HETATM    5  H           1     -25.856  -4.725  -9.457  0.00  0.00     0.275 HD
ENDBRANCH   1   2
BRANCH   1   6
HETATM    6  C           1     -23.159  -3.271 -10.810  0.00  0.00     0.224 C 
BRANCH   6   7
HETATM    7  O           1     -24.067  -2.751 -11.744  0.00  0.00    -0.287 OA
BRANCH   7   8
HETATM    8  P           1     -23.718  -3.020 -13.297  0.00  0.00     0.406 P 
HETATM    9  O           1     -24.093  -1.835 -14.099  0.00  0.00    -0.624 OA
HETATM   10  O           1     -24.473  -4.200 -13.774  0.00  0.00    -0.624 OA
BRANCH   8  11
HETATM   11  O           1     -22.134  -3.296 -13.454  0.00  0.00    -0.300 OA
HETATM   12  H           1     -22.040  -3.705 -14.296  0.00  0.00     0.223 HD
ENDBRANCH   8  11
ENDBRANCH   7   8
ENDBRANCH   6   7
ENDBRANCH   1   6
BRANCH   1  13
HETATM   13  C           1     -23.160  -4.401  -8.607  0.00  0.00     0.251 C 
HETATM   14  O           1     -23.754  -4.127  -7.591  0.00  0.00    -0.271 OA
HETATM   15  N           1     -21.852  -4.801  -8.548  0.00  0.00    -0.344 N 
HETATM   16  H           1     -21.355  -5.032  -9.399  0.00  0.00     0.163 HD
BRANCH  15  17
HETATM   17  C           1     -21.179  -4.894  -7.267  0.00  0.00     0.194 C 
BRANCH  17  18
HETATM   18  C           1     -21.154  -6.348  -6.813  0.00  0.00     0.106 C 
BRANCH  18  19
HETATM   19  S           1     -21.859  -6.474  -5.145  0.00  0.00    -0.180 SA
HETATM   20  H           1     -22.107  -7.795  -5.196  0.00  0.00     0.101 HD
ENDBRANCH  18  19
ENDBRANCH  17  18
BRANCH  17  21
HETATM   21  C           1     -19.766  -4.385  -7.404  0.00  0.00     0.197 C 
HETATM   22  O           1     -19.450  -3.673  -8.382  0.00  0.00    -0.646 OA
HETATM   23  O           1     -18.911  -4.675  -6.540  0.00  0.00    -0.646 OA
ENDBRANCH  17  21
ENDBRANCH  15  17
ENDBRANCH   1  13
TORSDOF 10
ENDMDL
MODEL 4
REMARK VINA RESULT:      -5.7     11.097     12.344
REMARK  10 active torsions:
REMARK  status: ('A' for Active; 'I' for Inactive)
REMARK    1  A    between atoms: C_1  and  C_2 
REMARK    2  A    between atoms: C_1  and  C_23 
REMARK    3  A    between atoms: C_1  and  N_20 
REMARK    4  A    between atoms: C_2  and  S_3 
REMARK    5  A    between atoms: N_11  and  C_18 
REMARK    6  A    between atoms: O_14  and  P_15 
REMARK    7  A    between atoms: P_15  and  O_16 
REMARK    8  A    between atoms: O_16  and  C_17 
REMARK    9  A    between atoms: C_17  and  C_18 
REMARK   10  A    between atoms: C_18  and  C_19 
REMARK       I    between atoms: C_19  and  N_20 
ROOT
HETATM    1  C           1     -21.464  -3.289 -11.218  0.00  0.00     0.298 C 
ENDROOT
BRANCH   1   2
HETATM    2  N           1     -20.056  -3.590 -11.640  0.00  0.00    -0.064 N 
HETATM    3  H           1     -19.878  -3.171 -12.581  0.00  0.00     0.275 HD
HETATM    4  H           1     -19.920  -4.625 -11.687  0.00  0.00     0.275 HD
HETATM    5  H           1     -19.389  -3.183 -10.946  0.00  0.00     0.275 HD
ENDBRANCH   1   2
BRANCH   1   6
HETATM    6  C           1     -22.414  -3.589 -12.370  0.00  0.00     0.224 C 
BRANCH   6   7
HETATM    7  O           1     -22.756  -2.394 -13.019  0.00  0.00    -0.287 OA
BRANCH   7   8
HETATM    8  P           1     -23.391  -2.546 -14.495  0.00  0.00     0.406 P 
HETATM    9  O           1     -22.322  -2.401 -15.509  0.00  0.00    -0.624 OA
HETATM   10  O           1     -24.415  -1.499 -14.702  0.00  0.00    -0.624 OA
BRANCH   8  11
HETATM   11  O           1     -24.075  -4.003 -14.641  0.00  0.00    -0.300 OA
HETATM   12  H           1     -23.417  -4.611 -14.352  0.00  0.00     0.223 HD
ENDBRANCH   8  11
ENDBRANCH   7   8
ENDBRANCH   6   7
ENDBRANCH   1   6
BRANCH   1  13
HETATM   13  C           1     -21.826  -4.144 -10.029  0.00  0.00     0.251 C 
HETATM   14  O           1     -22.953  -4.562  -9.907  0.00  0.00    -0.271 OA
HETATM   15  N           1     -20.878  -4.447  -9.089  0.00  0.00    -0.344 N 
HETATM   16  H           1     -19.933  -4.098  -9.192  0.00  0.00     0.163 HD
BRANCH  15  17
HETATM   17  C           1     -21.226  -5.269  -7.947  0.00  0.00     0.194 C 
BRANCH  17  18
HETATM   18  C           1     -19.956  -5.824  -7.316  0.00  0.00     0.106 C 
BRANCH  18  19
HETATM   19  S           1     -20.381  -6.757  -5.818  0.00  0.00    -0.180 SA
HETATM   20  H           1     -21.561  -7.220  -6.270  0.00  0.00     0.101 HD
ENDBRANCH  18  19
ENDBRANCH  17  18
BRANCH  17  21
HETATM   21  C           1     -21.968  -4.433  -6.933  0.00  0.00     0.197 C 
HETATM   22  O           1     -21.433  -3.408  -6.458  0.00  0.00    -0.646 OA
HETATM   23  O           1     -23.116  -4.765  -6.570  0.00  0.00    -0.646 OA
ENDBRANCH  17  21
ENDBRANCH  15  17
ENDBRANCH   1  13
TORSDOF 10
ENDMDL
MODEL 5
REMARK VINA RESULT:      -5.4      5.087      5.928
REMARK  10 active torsions:
REMARK  status: ('A' for Active; 'I' for Inactive)
REMARK    1  A    between atoms: C_1  and  C_2 
REMARK    2  A    between atoms: C_1  and  C_23 
REMARK    3  A    between atoms: C_1  and  N_20 
REMARK    4  A    between atoms: C_2  and  S_3 
REMARK    5  A    between atoms: N_11  and  C_18 
REMARK    6  A    between atoms: O_14  and  P_15 
REMARK    7  A    between atoms: P_15  and  O_16 
REMARK    8  A    between atoms: O_16  and  C_17 
REMARK    9  A    between atoms: C_17  and  C_18 
REMARK   10  A    between atoms: C_18  and  C_19 
REMARK       I    between atoms: C_19  and  N_20 
ROOT
HETATM    1  C           1     -34.146  -3.852 -12.368  0.00  0.00     0.298 C 
ENDROOT
BRANCH   1   2
HETATM    2  N           1     -33.487  -4.019 -13.706  0.00  0.00    -0.064 N 
HETATM    3  H           1     -33.253  -3.079 -14.098  0.00  0.00     0.275 HD
HETATM    4  H           1     -34.138  -4.516 -14.355  0.00  0.00     0.275 HD
HETATM    5  H           1     -32.611  -4.578 -13.596  0.00  0.00     0.275 HD
ENDBRANCH   1   2
BRANCH   1   6
HETATM    6  C           1     -33.285  -4.503 -11.294  0.00  0.00     0.224 C 
BRANCH   6   7
HETATM    7  O           1     -34.110  -5.124 -10.346  0.00  0.00    -0.287 OA
BRANCH   7   8
HETATM    8  P           1     -34.371  -6.703 -10.560  0.00  0.00     0.406 P 
HETATM    9  O           1     -33.074  -7.413 -10.620  0.00  0.00    -0.624 OA
HETATM   10  O           1     -35.109  -6.913 -11.826  0.00  0.00    -0.624 OA
BRANCH   8  11
HETATM   11  O           1     -35.243  -7.278  -9.328  0.00  0.00    -0.300 OA
HETATM   12  H           1     -35.463  -6.523  -8.812  0.00  0.00     0.223 HD
ENDBRANCH   8  11
ENDBRANCH   7   8
ENDBRANCH   6   7
ENDBRANCH   1   6
BRANCH   1  13
HETATM   13  C           1     -34.302  -2.382 -12.066  0.00  0.00     0.251 C 
HETATM   14  O           1     -33.841  -1.922 -11.049  0.00  0.00    -0.271 OA
HETATM   15  N           1     -34.966  -1.569 -12.946  0.00  0.00    -0.344 N 
HETATM   16  H           1     -35.351  -1.954 -13.799  0.00  0.00     0.163 HD
BRANCH  15  17
HETATM   17  C           1     -35.115  -0.156 -12.655  0.00  0.00     0.194 C 
BRANCH  17  18
HETATM   18  C           1     -35.241   0.619 -13.961  0.00  0.00     0.106 C 
BRANCH  18  19
HETATM   19  S           1     -35.641  -0.528 -15.309  0.00  0.00    -0.180 SA
HETATM   20  H           1     -36.027   0.415 -16.187  0.00  0.00     0.101 HD
ENDBRANCH  18  19
ENDBRANCH  17  18
BRANCH  17  21
HETATM   21  C           1     -36.356   0.057 -11.822  0.00  0.00     0.197 C 
HETATM   22  O           1     -37.467  -0.327 -12.247  0.00  0.00    -0.646 OA
HETATM   23  O           1     -36.271   0.616 -10.709  0.00  0.00    -0.646 OA
ENDBRANCH  17  21
ENDBRANCH  15  17
ENDBRANCH   1  13
TORSDOF 10
ENDMDL
MODEL 6
REMARK VINA RESULT:      -5.4      5.906      8.698
REMARK  10 active torsions:
REMARK  status: ('A' for Active; 'I' for Inactive)
REMARK    1  A    between atoms: C_1  and  C_2 
REMARK    2  A    between atoms: C_1  and  C_23 
REMARK    3  A    between atoms: C_1  and  N_20 
REMARK    4  A    between atoms: C_2  and  S_3 
REMARK    5  A    between atoms: N_11  and  C_18 
REMARK    6  A    between atoms: O_14  and  P_15 
REMARK    7  A    between atoms: P_15  and  O_16 
REMARK    8  A    between atoms: O_16  and  C_17 
REMARK    9  A    between atoms: C_17  and  C_18 
REMARK   10  A    between atoms: C_18  and  C_19 
REMARK       I    between atoms: C_19  and  N_20 
ROOT
HETATM    1  C           1     -35.651  -1.767 -11.535  0.00  0.00     0.298 C 
ENDROOT
BRANCH   1   2
HETATM    2  N           1     -34.287  -1.192 -11.295  0.00  0.00    -0.064 N 
HETATM    3  H           1     -34.380  -0.215 -10.934  0.00  0.00     0.275 HD
HETATM    4  H           1     -33.749  -1.184 -12.191  0.00  0.00     0.275 HD
HETATM    5  H           1     -33.781  -1.776 -10.591  0.00  0.00     0.275 HD
ENDBRANCH   1   2
BRANCH   1   6
HETATM    6  C           1     -36.516  -1.554 -10.300  0.00  0.00     0.224 C 
BRANCH   6   7
HETATM    7  O           1     -36.002  -0.488  -9.547  0.00  0.00    -0.287 OA
BRANCH   7   8
HETATM    8  P           1     -37.092   0.498  -8.879  0.00  0.00     0.406 P 
HETATM    9  O           1     -37.910  -0.260  -7.905  0.00  0.00    -0.624 OA
HETATM   10  O           1     -37.967   1.053  -9.935  0.00  0.00    -0.624 OA
BRANCH   8  11
HETATM   11  O           1     -36.334   1.705  -8.119  0.00  0.00    -0.300 OA
HETATM   12  H           1     -35.454   1.397  -7.990  0.00  0.00     0.223 HD
ENDBRANCH   8  11
ENDBRANCH   7   8
ENDBRANCH   6   7
ENDBRANCH   1   6
BRANCH   1  13
HETATM   13  C           1     -36.285  -1.079 -12.719  0.00  0.00     0.251 C 
HETATM   14  O           1     -37.424  -0.684 -12.649  0.00  0.00    -0.271 OA
HETATM   15  N           1     -35.568  -0.902 -13.872  0.00  0.00    -0.344 N 
HETATM   16  H           1     -34.613  -1.232 -13.930  0.00  0.00     0.163 HD
BRANCH  15  17
HETATM   17  C           1     -36.178  -0.241 -15.010  0.00  0.00     0.194 C 
BRANCH  17  18
HETATM   18  C           1     -35.563   1.143 -15.179  0.00  0.00     0.106 C 
BRANCH  18  19
HETATM   19  S           1     -34.451   1.486 -13.787  0.00  0.00    -0.180 SA
HETATM   20  H           1     -34.826   0.430 -13.043  0.00  0.00     0.101 HD
ENDBRANCH  18  19
ENDBRANCH  17  18
BRANCH  17  21
HETATM   21  C           1     -35.933  -1.057 -16.255  0.00  0.00     0.197 C 
HETATM   22  O           1     -36.571  -0.807 -17.301  0.00  0.00    -0.646 OA
HETATM   23  O           1     -35.093  -1.982 -16.241  0.00  0.00    -0.646 OA
ENDBRANCH  17  21
ENDBRANCH  15  17
ENDBRANCH   1  13
TORSDOF 10
ENDMDL
MODEL 7
REMARK VINA RESULT:      -5.3     13.238     14.691
REMARK  10 active torsions:
REMARK  status: ('A' for Active; 'I' for Inactive)
REMARK    1  A    between atoms: C_1  and  C_2 
REMARK    2  A    between atoms: C_1  and  C_23 
REMARK    3  A    between atoms: C_1  and  N_20 
REMARK    4  A    between atoms: C_2  and  S_3 
REMARK    5  A    between atoms: N_11  and  C_18 
REMARK    6  A    between atoms: O_14  and  P_15 
REMARK    7  A    between atoms: P_15  and  O_16 
REMARK    8  A    between atoms: O_16  and  C_17 
REMARK    9  A    between atoms: C_17  and  C_18 
REMARK   10  A    between atoms: C_18  and  C_19 
REMARK       I    between atoms: C_19  and  N_20 
ROOT
HETATM    1  C           1     -20.997  -4.613  -6.845  0.00  0.00     0.298 C 
ENDROOT
BRANCH   1   2
HETATM    2  N           1     -19.528  -4.693  -6.547  0.00  0.00    -0.064 N 
HETATM    3  H           1     -19.365  -4.456  -5.542  0.00  0.00     0.275 HD
HETATM    4  H           1     -19.012  -4.016  -7.153  0.00  0.00     0.275 HD
HETATM    5  H           1     -19.186  -5.661  -6.736  0.00  0.00     0.275 HD
ENDBRANCH   1   2
BRANCH   1   6
HETATM    6  C           1     -21.245  -5.039  -8.286  0.00  0.00     0.224 C 
BRANCH   6   7
HETATM    7  O           1     -21.745  -3.950  -9.016  0.00  0.00    -0.287 OA
BRANCH   7   8
HETATM    8  P           1     -23.297  -4.043  -9.451  0.00  0.00     0.406 P 
HETATM    9  O           1     -23.526  -5.303 -10.193  0.00  0.00    -0.624 OA
HETATM   10  O           1     -23.636  -2.891 -10.317  0.00  0.00    -0.624 OA
BRANCH   8  11
HETATM   11  O           1     -24.230  -4.018  -8.133  0.00  0.00    -0.300 OA
HETATM   12  H           1     -24.761  -4.792  -8.196  0.00  0.00     0.223 HD
ENDBRANCH   8  11
ENDBRANCH   7   8
ENDBRANCH   6   7
ENDBRANCH   1   6
BRANCH   1  13
HETATM   13  C           1     -21.748  -5.530  -5.912  0.00  0.00     0.251 C 
HETATM   14  O           1     -22.956  -5.503  -5.882  0.00  0.00    -0.271 OA
HETATM   15  N           1     -21.063  -6.393  -5.099  0.00  0.00    -0.344 N 
HETATM   16  H           1     -20.051  -6.416  -5.125  0.00  0.00     0.163 HD
BRANCH  15  17
HETATM   17  C           1     -21.786  -7.273  -4.203  0.00  0.00     0.194 C 
BRANCH  17  18
HETATM   18  C           1     -21.210  -8.680  -4.301  0.00  0.00     0.106 C 
BRANCH  18  19
HETATM   19  S           1     -19.565  -8.608  -5.064  0.00  0.00    -0.180 SA
HETATM   20  H           1     -19.495  -9.916  -5.371  0.00  0.00     0.101 HD
ENDBRANCH  18  19
ENDBRANCH  17  18
BRANCH  17  21
HETATM   21  C           1     -21.650  -6.771  -2.787  0.00  0.00     0.197 C 
HETATM   22  O           1     -22.370  -5.831  -2.385  0.00  0.00    -0.646 OA
HETATM   23  O           1     -20.817  -7.293  -2.016  0.00  0.00    -0.646 OA
ENDBRANCH  17  21
ENDBRANCH  15  17
ENDBRANCH   1  13
TORSDOF 10
ENDMDL
MODEL 8
REMARK VINA RESULT:      -5.3     12.625     14.158
REMARK  10 active torsions:
REMARK  status: ('A' for Active; 'I' for Inactive)
REMARK    1  A    between atoms: C_1  and  C_2 
REMARK    2  A    between atoms: C_1  and  C_23 
REMARK    3  A    between atoms: C_1  and  N_20 
REMARK    4  A    between atoms: C_2  and  S_3 
REMARK    5  A    between atoms: N_11  and  C_18 
REMARK    6  A    between atoms: O_14  and  P_15 
REMARK    7  A    between atoms: P_15  and  O_16 
REMARK    8  A    between atoms: O_16  and  C_17 
REMARK    9  A    between atoms: C_17  and  C_18 
REMARK   10  A    between atoms: C_18  and  C_19 
REMARK       I    between atoms: C_19  and  N_20 
ROOT
HETATM    1  C           1     -21.509  -5.431  -6.042  0.00  0.00     0.298 C 
ENDROOT
BRANCH   1   2
HETATM    2  N           1     -22.803  -5.775  -5.363  0.00  0.00    -0.064 N 
HETATM    3  H           1     -23.353  -4.901  -5.201  0.00  0.00     0.275 HD
HETATM    4  H           1     -22.604  -6.238  -4.448  0.00  0.00     0.275 HD
HETATM    5  H           1     -23.353  -6.424  -5.970  0.00  0.00     0.275 HD
ENDBRANCH   1   2
BRANCH   1   6
HETATM    6  C           1     -20.905  -6.689  -6.651  0.00  0.00     0.224 C 
BRANCH   6   7
HETATM    7  O           1     -19.851  -7.140  -5.844  0.00  0.00    -0.287 OA
BRANCH   7   8
HETATM    8  P           1     -20.171  -8.418  -4.911  0.00  0.00     0.406 P 
HETATM    9  O           1     -18.925  -8.873  -4.255  0.00  0.00    -0.624 OA
HETATM   10  O           1     -20.719  -9.512  -5.744  0.00  0.00    -0.624 OA
BRANCH   8  11
HETATM   11  O           1     -21.252  -8.007  -3.783  0.00  0.00    -0.300 OA
HETATM   12  H           1     -20.847  -7.308  -3.300  0.00  0.00     0.223 HD
ENDBRANCH   8  11
ENDBRANCH   7   8
ENDBRANCH   6   7
ENDBRANCH   1   6
BRANCH   1  13
HETATM   13  C           1     -21.768  -4.418  -7.130  0.00  0.00     0.251 C 
HETATM   14  O           1     -21.261  -3.322  -7.067  0.00  0.00    -0.271 OA
HETATM   15  N           1     -22.576  -4.739  -8.187  0.00  0.00    -0.344 N 
HETATM   16  H           1     -22.999  -5.657  -8.240  0.00  0.00     0.163 HD
BRANCH  15  17
HETATM   17  C           1     -22.824  -3.765  -9.232  0.00  0.00     0.194 C 
BRANCH  17  18
HETATM   18  C           1     -21.957  -4.089 -10.442  0.00  0.00     0.106 C 
BRANCH  18  19
HETATM   19  S           1     -22.264  -2.870 -11.751  0.00  0.00    -0.180 SA
HETATM   20  H           1     -22.198  -1.788 -10.955  0.00  0.00     0.101 HD
ENDBRANCH  18  19
ENDBRANCH  17  18
BRANCH  17  21
HETATM   21  C           1     -24.279  -3.812  -9.628  0.00  0.00     0.197 C 
HETATM   22  O           1     -24.775  -4.875 -10.059  0.00  0.00    -0.646 OA
HETATM   23  O           1     -24.987  -2.788  -9.525  0.00  0.00    -0.646 OA
ENDBRANCH  17  21
ENDBRANCH  15  17
ENDBRANCH   1  13
TORSDOF 10
ENDMDL
MODEL 9
REMARK VINA RESULT:      -5.2     12.153     13.885
REMARK  10 active torsions:
REMARK  status: ('A' for Active; 'I' for Inactive)
REMARK    1  A    between atoms: C_1  and  C_2 
REMARK    2  A    between atoms: C_1  and  C_23 
REMARK    3  A    between atoms: C_1  and  N_20 
REMARK    4  A    between atoms: C_2  and  S_3 
REMARK    5  A    between atoms: N_11  and  C_18 
REMARK    6  A    between atoms: O_14  and  P_15 
REMARK    7  A    between atoms: P_15  and  O_16 
REMARK    8  A    between atoms: O_16  and  C_17 
REMARK    9  A    between atoms: C_17  and  C_18 
REMARK   10  A    between atoms: C_18  and  C_19 
REMARK       I    between atoms: C_19  and  N_20 
ROOT
HETATM    1  C           1     -20.075  -4.289  -7.918  0.00  0.00     0.298 C 
ENDROOT
BRANCH   1   2
HETATM    2  N           1     -21.122  -3.514  -7.174  0.00  0.00    -0.064 N 
HETATM    3  H           1     -21.045  -3.717  -6.152  0.00  0.00     0.275 HD
HETATM    4  H           1     -22.070  -3.793  -7.515  0.00  0.00     0.275 HD
HETATM    5  H           1     -20.981  -2.491  -7.337  0.00  0.00     0.275 HD
ENDBRANCH   1   2
BRANCH   1   6
HETATM    6  C           1     -19.810  -5.604  -7.198  0.00  0.00     0.224 C 
BRANCH   6   7
HETATM    7  O           1     -21.023  -6.280  -6.997  0.00  0.00    -0.287 OA
BRANCH   7   8
HETATM    8  P           1     -21.521  -6.400  -5.466  0.00  0.00     0.406 P 
HETATM    9  O           1     -21.323  -7.788  -4.991  0.00  0.00    -0.624 OA
HETATM   10  O           1     -22.957  -6.050  -5.387  0.00  0.00    -0.624 OA
BRANCH   8  11
HETATM   11  O           1     -20.669  -5.388  -4.540  0.00  0.00    -0.300 OA
HETATM   12  H           1     -21.305  -4.969  -3.987  0.00  0.00     0.223 HD
ENDBRANCH   8  11
ENDBRANCH   7   8
ENDBRANCH   6   7
ENDBRANCH   1   6
BRANCH   1  13
HETATM   13  C           1     -20.558  -4.569  -9.319  0.00  0.00     0.251 C 
HETATM   14  O           1     -19.836  -5.136 -10.105  0.00  0.00    -0.271 OA
HETATM   15  N           1     -21.815  -4.182  -9.701  0.00  0.00    -0.344 N 
HETATM   16  H           1     -22.420  -3.708  -9.043  0.00  0.00     0.163 HD
BRANCH  15  17
HETATM   17  C           1     -22.279  -4.452 -11.048  0.00  0.00     0.194 C 
BRANCH  17  18
HETATM   18  C           1     -23.774  -4.740 -11.020  0.00  0.00     0.106 C 
BRANCH  18  19
HETATM   19  S           1     -24.597  -3.563  -9.909  0.00  0.00    -0.180 SA
HETATM   20  H           1     -25.629  -4.366  -9.592  0.00  0.00     0.101 HD
ENDBRANCH  18  19
ENDBRANCH  17  18
BRANCH  17  21
HETATM   21  C           1     -22.014  -3.250 -11.921  0.00  0.00     0.197 C 
HETATM   22  O           1     -21.258  -2.339 -11.517  0.00  0.00    -0.646 OA
HETATM   23  O           1     -22.549  -3.165 -13.046  0.00  0.00    -0.646 OA
ENDBRANCH  17  21
ENDBRANCH  15  17
ENDBRANCH   1  13
TORSDOF 10
ENDMDL
