MODEL 1
REMARK VINA RESULT:      -5.8      0.000      0.000
REMARK  7 active torsions:
REMARK  status: ('A' for Active; 'I' for Inactive)
REMARK    1  A    between atoms: S_2  and  C_8 
REMARK    2  A    between atoms: N_6  and  C_16 
REMARK    3  A    between atoms: C_8  and  C_14 
REMARK    4  A    between atoms: N_9  and  C_13 
REMARK       I    between atoms: N_9  and  C_15 
REMARK    5  A    between atoms: C_12  and  C_13 
REMARK    6  A    between atoms: C_13  and  C_14 
REMARK    7  A    between atoms: C_15  and  C_16 
ROOT
HETATM    1  O           1     -22.975  -3.020 -14.909  0.00  0.00    -0.272 OA
HETATM    2  N           1     -23.506  -2.209 -12.897  0.00  0.00    -0.345 N 
HETATM    3  C           1     -23.457  -2.121 -14.262  0.00  0.00     0.243 C 
HETATM    4  H           1     -23.909  -1.456 -12.355  0.00  0.00     0.163 HD
ENDROOT
BRANCH   2   5
HETATM    5  C           1     -22.979  -3.383 -12.228  0.00  0.00     0.186 C 
BRANCH   5   6
HETATM    6  C           1     -24.037  -3.961 -11.321  0.00  0.00     0.196 C 
HETATM    7  O           1     -24.951  -3.231 -10.880  0.00  0.00    -0.646 OA
HETATM    8  O           1     -24.002  -5.172 -11.013  0.00  0.00    -0.646 OA
ENDBRANCH   5   6
BRANCH   5   9
HETATM    9  C           1     -21.761  -2.991 -11.402  0.00  0.00     0.046 C 
BRANCH   9  10
HETATM   10  C           1     -20.914  -4.226 -11.129  0.00  0.00     0.076 C 
BRANCH  10  11
HETATM   11  S           1     -20.214  -4.124  -9.457  0.00  0.00    -0.173 SA
HETATM   12  C           1     -21.800  -4.174  -8.575  0.00  0.00     0.089 C 
ENDBRANCH  10  11
ENDBRANCH   9  10
ENDBRANCH   5   9
ENDBRANCH   2   5
BRANCH   3  13
HETATM   13  C           1     -24.004  -0.899 -14.959  0.00  0.00     0.332 C 
BRANCH  13  14
HETATM   14  N           1     -23.047  -0.460 -16.027  0.00  0.00    -0.071 N 
HETATM   15  H           1     -23.371  -0.817 -16.954  0.00  0.00     0.274 HD
HETATM   16  H           1     -22.096  -0.843 -15.820  0.00  0.00     0.274 HD
HETATM   17  H           1     -23.006   0.583 -16.050  0.00  0.00     0.274 HD
ENDBRANCH  13  14
ENDBRANCH   3  13
TORSDOF 7
ENDMDL
MODEL 2
REMARK VINA RESULT:      -5.4     12.809     14.226
REMARK  7 active torsions:
REMARK  status: ('A' for Active; 'I' for Inactive)
REMARK    1  A    between atoms: S_2  and  C_8 
REMARK    2  A    between atoms: N_6  and  C_16 
REMARK    3  A    between atoms: C_8  and  C_14 
REMARK    4  A    between atoms: N_9  and  C_13 
REMARK       I    between atoms: N_9  and  C_15 
REMARK    5  A    between atoms: C_12  and  C_13 
REMARK    6  A    between atoms: C_13  and  C_14 
REMARK    7  A    between atoms: C_15  and  C_16 
ROOT
HETATM    1  O           1     -38.026  -0.701 -11.544  0.00  0.00    -0.272 OA
HETATM    2  N           1     -36.053   0.336 -11.402  0.00  0.00    -0.345 N 
HETATM    3  C           1     -37.295   0.026 -10.915  0.00  0.00     0.243 C 
HETATM    4  H           1     -35.441   0.944 -10.874  0.00  0.00     0.163 HD
ENDROOT
BRANCH   2   5
HETATM    5  C           1     -35.616  -0.210 -12.672  0.00  0.00     0.186 C 
BRANCH   5   6
HETATM    6  C           1     -34.784  -1.445 -12.429  0.00  0.00     0.196 C 
HETATM    7  O           1     -34.750  -2.355 -13.286  0.00  0.00    -0.646 OA
HETATM    8  O           1     -34.127  -1.558 -11.372  0.00  0.00    -0.646 OA
ENDBRANCH   5   6
BRANCH   5   9
HETATM    9  C           1     -34.782   0.828 -13.409  0.00  0.00     0.046 C 
BRANCH   9  10
HETATM   10  C           1     -35.178   0.849 -14.879  0.00  0.00     0.076 C 
BRANCH  10  11
HETATM   11  S           1     -36.827   0.118 -15.073  0.00  0.00    -0.173 SA
HETATM   12  C           1     -36.433  -0.878 -16.539  0.00  0.00     0.089 C 
ENDBRANCH  10  11
ENDBRANCH   9  10
ENDBRANCH   5   9
ENDBRANCH   2   5
BRANCH   3  13
HETATM   13  C           1     -37.750   0.593  -9.593  0.00  0.00     0.332 C 
BRANCH  13  14
HETATM   14  N           1     -36.623   1.354  -8.960  0.00  0.00    -0.071 N 
HETATM   15  H           1     -36.247   0.810  -8.150  0.00  0.00     0.274 HD
HETATM   16  H           1     -36.973   2.279  -8.624  0.00  0.00     0.274 HD
HETATM   17  H           1     -35.865   1.501  -9.662  0.00  0.00     0.274 HD
ENDBRANCH  13  14
ENDBRANCH   3  13
TORSDOF 7
ENDMDL
MODEL 3
REMARK VINA RESULT:      -5.2      3.604      5.894
REMARK  7 active torsions:
REMARK  status: ('A' for Active; 'I' for Inactive)
REMARK    1  A    between atoms: S_2  and  C_8 
REMARK    2  A    between atoms: N_6  and  C_16 
REMARK    3  A    between atoms: C_8  and  C_14 
REMARK    4  A    between atoms: N_9  and  C_13 
REMARK       I    between atoms: N_9  and  C_15 
REMARK    5  A    between atoms: C_12  and  C_13 
REMARK    6  A    between atoms: C_13  and  C_14 
REMARK    7  A    between atoms: C_15  and  C_16 
ROOT
HETATM    1  O           1     -21.510  -3.297  -7.294  0.00  0.00    -0.272 OA
HETATM    2  N           1     -22.144  -4.791  -8.828  0.00  0.00    -0.345 N 
HETATM    3  C           1     -21.581  -4.456  -7.626  0.00  0.00     0.243 C 
HETATM    4  H           1     -22.205  -5.762  -9.106  0.00  0.00     0.163 HD
ENDROOT
BRANCH   2   5
HETATM    5  C           1     -22.655  -3.753  -9.703  0.00  0.00     0.186 C 
BRANCH   5   6
HETATM    6  C           1     -24.163  -3.804  -9.716  0.00  0.00     0.196 C 
HETATM    7  O           1     -24.750  -4.890  -9.914  0.00  0.00    -0.646 OA
HETATM    8  O           1     -24.825  -2.760  -9.528  0.00  0.00    -0.646 OA
ENDBRANCH   5   6
BRANCH   5   9
HETATM    9  C           1     -22.126  -3.975 -11.114  0.00  0.00     0.046 C 
BRANCH   9  10
HETATM   10  C           1     -22.562  -2.821 -12.007  0.00  0.00     0.076 C 
BRANCH  10  11
HETATM   11  S           1     -23.746  -3.426 -13.243  0.00  0.00    -0.173 SA
HETATM   12  C           1     -23.250  -2.287 -14.566  0.00  0.00     0.089 C 
ENDBRANCH  10  11
ENDBRANCH   9  10
ENDBRANCH   5   9
ENDBRANCH   2   5
BRANCH   3  13
HETATM   13  C           1     -21.050  -5.536  -6.715  0.00  0.00     0.332 C 
BRANCH  13  14
HETATM   14  N           1     -19.898  -6.230  -7.379  0.00  0.00    -0.071 N 
HETATM   15  H           1     -20.033  -7.264  -7.318  0.00  0.00     0.274 HD
HETATM   16  H           1     -19.009  -5.965  -6.898  0.00  0.00     0.274 HD
HETATM   17  H           1     -19.852  -5.943  -8.383  0.00  0.00     0.274 HD
ENDBRANCH  13  14
ENDBRANCH   3  13
TORSDOF 7
ENDMDL
MODEL 4
REMARK VINA RESULT:      -5.0     12.005     13.225
REMARK  7 active torsions:
REMARK  status: ('A' for Active; 'I' for Inactive)
REMARK    1  A    between atoms: S_2  and  C_8 
REMARK    2  A    between atoms: N_6  and  C_16 
REMARK    3  A    between atoms: C_8  and  C_14 
REMARK    4  A    between atoms: N_9  and  C_13 
REMARK       I    between atoms: N_9  and  C_15 
REMARK    5  A    between atoms: C_12  and  C_13 
REMARK    6  A    between atoms: C_13  and  C_14 
REMARK    7  A    between atoms: C_15  and  C_16 
ROOT
HETATM    1  O           1     -34.530  -3.318 -13.482  0.00  0.00    -0.272 OA
HETATM    2  N           1     -34.763  -1.556 -12.130  0.00  0.00    -0.345 N 
HETATM    3  C           1     -34.216  -2.768 -12.453  0.00  0.00     0.243 C 
HETATM    4  H           1     -34.500  -1.096 -11.268  0.00  0.00     0.163 HD
ENDROOT
BRANCH   2   5
HETATM    5  C           1     -35.720  -0.931 -13.023  0.00  0.00     0.186 C 
BRANCH   5   6
HETATM    6  C           1     -35.012   0.082 -13.888  0.00  0.00     0.196 C 
HETATM    7  O           1     -34.793  -0.169 -15.093  0.00  0.00    -0.646 OA
HETATM    8  O           1     -34.647   1.173 -13.401  0.00  0.00    -0.646 OA
ENDBRANCH   5   6
BRANCH   5   9
HETATM    9  C           1     -36.798  -0.235 -12.203  0.00  0.00     0.046 C 
BRANCH   9  10
HETATM   10  C           1     -36.639  -0.605 -10.735  0.00  0.00     0.076 C 
BRANCH  10  11
HETATM   11  S           1     -37.226   0.764  -9.698  0.00  0.00    -0.173 SA
HETATM   12  C           1     -37.517  -0.227  -8.206  0.00  0.00     0.089 C 
ENDBRANCH  10  11
ENDBRANCH   9  10
ENDBRANCH   5   9
ENDBRANCH   2   5
BRANCH   3  13
HETATM   13  C           1     -33.220  -3.419 -11.524  0.00  0.00     0.332 C 
BRANCH  13  14
HETATM   14  N           1     -32.537  -4.549 -12.234  0.00  0.00    -0.071 N 
HETATM   15  H           1     -32.807  -5.455 -11.789  0.00  0.00     0.274 HD
HETATM   16  H           1     -31.501  -4.425 -12.169  0.00  0.00     0.274 HD
HETATM   17  H           1     -32.825  -4.555 -13.238  0.00  0.00     0.274 HD
ENDBRANCH  13  14
ENDBRANCH   3  13
TORSDOF 7
ENDMDL
MODEL 5
REMARK VINA RESULT:      -4.8      8.313      9.390
REMARK  7 active torsions:
REMARK  status: ('A' for Active; 'I' for Inactive)
REMARK    1  A    between atoms: S_2  and  C_8 
REMARK    2  A    between atoms: N_6  and  C_16 
REMARK    3  A    between atoms: C_8  and  C_14 
REMARK    4  A    between atoms: N_9  and  C_13 
REMARK       I    between atoms: N_9  and  C_15 
REMARK    5  A    between atoms: C_12  and  C_13 
REMARK    6  A    between atoms: C_13  and  C_14 
REMARK    7  A    between atoms: C_15  and  C_16 
ROOT
HETATM    1  O           1     -29.886  -8.176 -18.388  0.00  0.00    -0.272 OA
HETATM    2  N           1     -29.042  -6.427 -17.284  0.00  0.00    -0.345 N 
HETATM    3  C           1     -30.092  -7.191 -17.719  0.00  0.00     0.243 C 
HETATM    4  H           1     -29.215  -5.602 -16.723  0.00  0.00     0.163 HD
ENDROOT
BRANCH   2   5
HETATM    5  C           1     -27.683  -6.801 -17.626  0.00  0.00     0.186 C 
BRANCH   5   6
HETATM    6  C           1     -26.795  -6.629 -16.418  0.00  0.00     0.196 C 
HETATM    7  O           1     -26.920  -7.392 -15.436  0.00  0.00    -0.646 OA
HETATM    8  O           1     -25.934  -5.723 -16.400  0.00  0.00    -0.646 OA
ENDBRANCH   5   6
BRANCH   5   9
HETATM    9  C           1     -27.182  -5.912 -18.756  0.00  0.00     0.046 C 
BRANCH   9  10
HETATM   10  C           1     -26.746  -6.778 -19.929  0.00  0.00     0.076 C 
BRANCH  10  11
HETATM   11  S           1     -24.949  -7.022 -19.867  0.00  0.00    -0.173 SA
HETATM   12  C           1     -24.811  -7.889 -21.456  0.00  0.00     0.089 C 
ENDBRANCH  10  11
ENDBRANCH   9  10
ENDBRANCH   5   9
ENDBRANCH   2   5
BRANCH   3  13
HETATM   13  C           1     -31.506  -6.802 -17.363  0.00  0.00     0.332 C 
BRANCH  13  14
HETATM   14  N           1     -31.499  -5.479 -16.657  0.00  0.00    -0.071 N 
HETATM   15  H           1     -31.023  -5.580 -15.733  0.00  0.00     0.274 HD
HETATM   16  H           1     -32.483  -5.160 -16.508  0.00  0.00     0.274 HD
HETATM   17  H           1     -30.988  -4.777 -17.238  0.00  0.00     0.274 HD
ENDBRANCH  13  14
ENDBRANCH   3  13
TORSDOF 7
ENDMDL
MODEL 6
REMARK VINA RESULT:      -4.7      4.569      7.117
REMARK  7 active torsions:
REMARK  status: ('A' for Active; 'I' for Inactive)
REMARK    1  A    between atoms: S_2  and  C_8 
REMARK    2  A    between atoms: N_6  and  C_16 
REMARK    3  A    between atoms: C_8  and  C_14 
REMARK    4  A    between atoms: N_9  and  C_13 
REMARK       I    between atoms: N_9  and  C_15 
REMARK    5  A    between atoms: C_12  and  C_13 
REMARK    6  A    between atoms: C_13  and  C_14 
REMARK    7  A    between atoms: C_15  and  C_16 
ROOT
HETATM    1  O           1     -21.135  -6.839  -6.849  0.00  0.00    -0.272 OA
HETATM    2  N           1     -21.451  -4.632  -6.980  0.00  0.00    -0.345 N 
HETATM    3  C           1     -21.221  -5.781  -6.273  0.00  0.00     0.243 C 
HETATM    4  H           1     -21.522  -3.746  -6.497  0.00  0.00     0.163 HD
ENDROOT
BRANCH   2   5
HETATM    5  C           1     -21.592  -4.686  -8.423  0.00  0.00     0.186 C 
BRANCH   5   6
HETATM    6  C           1     -20.271  -4.351  -9.070  0.00  0.00     0.196 C 
HETATM    7  O           1     -19.412  -3.698  -8.437  0.00  0.00    -0.646 OA
HETATM    8  O           1     -20.035  -4.726 -10.238  0.00  0.00    -0.646 OA
ENDBRANCH   5   6
BRANCH   5   9
HETATM    9  C           1     -22.645  -3.680  -8.866  0.00  0.00     0.046 C 
BRANCH   9  10
HETATM   10  C           1     -23.820  -4.417  -9.494  0.00  0.00     0.076 C 
BRANCH  10  11
HETATM   11  S           1     -23.500  -4.671 -11.263  0.00  0.00    -0.173 SA
HETATM   12  C           1     -23.027  -2.957 -11.628  0.00  0.00     0.089 C 
ENDBRANCH  10  11
ENDBRANCH   9  10
ENDBRANCH   5   9
ENDBRANCH   2   5
BRANCH   3  13
HETATM   13  C           1     -21.074  -5.726  -4.772  0.00  0.00     0.332 C 
BRANCH  13  14
HETATM   14  N           1     -22.303  -6.293  -4.127  0.00  0.00    -0.071 N 
HETATM   15  H           1     -22.548  -7.201  -4.581  0.00  0.00     0.274 HD
HETATM   16  H           1     -23.097  -5.622  -4.241  0.00  0.00     0.274 HD
HETATM   17  H           1     -22.122  -6.449  -3.110  0.00  0.00     0.274 HD
ENDBRANCH  13  14
ENDBRANCH   3  13
TORSDOF 7
ENDMDL
MODEL 7
REMARK VINA RESULT:      -4.6      5.775      7.747
REMARK  7 active torsions:
REMARK  status: ('A' for Active; 'I' for Inactive)
REMARK    1  A    between atoms: S_2  and  C_8 
REMARK    2  A    between atoms: N_6  and  C_16 
REMARK    3  A    between atoms: C_8  and  C_14 
REMARK    4  A    between atoms: N_9  and  C_13 
REMARK       I    between atoms: N_9  and  C_15 
REMARK    5  A    between atoms: C_12  and  C_13 
REMARK    6  A    between atoms: C_13  and  C_14 
REMARK    7  A    between atoms: C_15  and  C_16 
ROOT
HETATM    1  O           1     -20.722  -3.704  -7.033  0.00  0.00    -0.272 OA
HETATM    2  N           1     -22.099  -5.422  -6.661  0.00  0.00    -0.345 N 
HETATM    3  C           1     -21.734  -4.290  -7.338  0.00  0.00     0.243 C 
HETATM    4  H           1     -22.946  -5.914  -6.917  0.00  0.00     0.163 HD
ENDROOT
BRANCH   2   5
HETATM    5  C           1     -21.272  -5.918  -5.578  0.00  0.00     0.186 C 
BRANCH   5   6
HETATM    6  C           1     -20.436  -7.072  -6.072  0.00  0.00     0.196 C 
HETATM    7  O           1     -19.420  -6.857  -6.768  0.00  0.00    -0.646 OA
HETATM    8  O           1     -20.758  -8.245  -5.783  0.00  0.00    -0.646 OA
ENDBRANCH   5   6
BRANCH   5   9
HETATM    9  C           1     -22.162  -6.386  -4.435  0.00  0.00     0.046 C 
BRANCH   9  10
HETATM   10  C           1     -21.460  -6.134  -3.108  0.00  0.00     0.076 C 
BRANCH  10  11
HETATM   11  S           1     -21.401  -7.675  -2.151  0.00  0.00    -0.173 SA
HETATM   12  C           1     -22.378  -7.074  -0.744  0.00  0.00     0.089 C 
ENDBRANCH  10  11
ENDBRANCH   9  10
ENDBRANCH   5   9
ENDBRANCH   2   5
BRANCH   3  13
HETATM   13  C           1     -22.594  -3.774  -8.466  0.00  0.00     0.332 C 
BRANCH  13  14
HETATM   14  N           1     -24.038  -4.028  -8.150  0.00  0.00    -0.071 N 
HETATM   15  H           1     -24.628  -3.297  -8.608  0.00  0.00     0.274 HD
HETATM   16  H           1     -24.179  -3.992  -7.115  0.00  0.00     0.274 HD
HETATM   17  H           1     -24.312  -4.970  -8.508  0.00  0.00     0.274 HD
ENDBRANCH  13  14
ENDBRANCH   3  13
TORSDOF 7
ENDMDL
MODEL 8
REMARK VINA RESULT:      -4.4      6.205      8.738
REMARK  7 active torsions:
REMARK  status: ('A' for Active; 'I' for Inactive)
REMARK    1  A    between atoms: S_2  and  C_8 
REMARK    2  A    between atoms: N_6  and  C_16 
REMARK    3  A    between atoms: C_8  and  C_14 
REMARK    4  A    between atoms: N_9  and  C_13 
REMARK       I    between atoms: N_9  and  C_15 
REMARK    5  A    between atoms: C_12  and  C_13 
REMARK    6  A    between atoms: C_13  and  C_14 
REMARK    7  A    between atoms: C_15  and  C_16 
ROOT
HETATM    1  O           1     -21.419  -8.050  -4.661  0.00  0.00    -0.272 OA
HETATM    2  N           1     -21.582  -5.826  -4.786  0.00  0.00    -0.345 N 
HETATM    3  C           1     -21.535  -6.997  -4.080  0.00  0.00     0.243 C 
HETATM    4  H           1     -21.679  -4.944  -4.299  0.00  0.00     0.163 HD
ENDROOT
BRANCH   2   5
HETATM    5  C           1     -21.491  -5.849  -6.233  0.00  0.00     0.186 C 
BRANCH   5   6
HETATM    6  C           1     -20.045  -5.737  -6.648  0.00  0.00     0.196 C 
HETATM    7  O           1     -19.405  -4.689  -6.412  0.00  0.00    -0.646 OA
HETATM    8  O           1     -19.485  -6.693  -7.227  0.00  0.00    -0.646 OA
ENDBRANCH   5   6
BRANCH   5   9
HETATM    9  C           1     -22.276  -4.678  -6.809  0.00  0.00     0.046 C 
BRANCH   9  10
HETATM   10  C           1     -22.201  -4.713  -8.329  0.00  0.00     0.076 C 
BRANCH  10  11
HETATM   11  S           1     -23.675  -3.916  -9.027  0.00  0.00    -0.173 SA
HETATM   12  C           1     -23.582  -4.716 -10.653  0.00  0.00     0.089 C 
ENDBRANCH  10  11
ENDBRANCH   9  10
ENDBRANCH   5   9
ENDBRANCH   2   5
BRANCH   3  13
HETATM   13  C           1     -21.630  -6.974  -2.574  0.00  0.00     0.332 C 
BRANCH  13  14
HETATM   14  N           1     -22.353  -5.735  -2.136  0.00  0.00    -0.071 N 
HETATM   15  H           1     -22.569  -5.800  -1.116  0.00  0.00     0.274 HD
HETATM   16  H           1     -23.245  -5.645  -2.675  0.00  0.00     0.274 HD
HETATM   17  H           1     -21.752  -4.900  -2.313  0.00  0.00     0.274 HD
ENDBRANCH  13  14
ENDBRANCH   3  13
TORSDOF 7
ENDMDL
MODEL 9
REMARK VINA RESULT:      -4.2      4.280      6.629
REMARK  7 active torsions:
REMARK  status: ('A' for Active; 'I' for Inactive)
REMARK    1  A    between atoms: S_2  and  C_8 
REMARK    2  A    between atoms: N_6  and  C_16 
REMARK    3  A    between atoms: C_8  and  C_14 
REMARK    4  A    between atoms: N_9  and  C_13 
REMARK       I    between atoms: N_9  and  C_15 
REMARK    5  A    between atoms: C_12  and  C_13 
REMARK    6  A    between atoms: C_13  and  C_14 
REMARK    7  A    between atoms: C_15  and  C_16 
ROOT
HETATM    1  O           1     -20.358  -4.307  -6.271  0.00  0.00    -0.272 OA
HETATM    2  N           1     -21.312  -5.583  -7.838  0.00  0.00    -0.345 N 
HETATM    3  C           1     -20.565  -5.417  -6.703  0.00  0.00     0.243 C 
HETATM    4  H           1     -21.485  -6.512  -8.199  0.00  0.00     0.163 HD
ENDROOT
BRANCH   2   5
HETATM    5  C           1     -21.856  -4.426  -8.522  0.00  0.00     0.186 C 
BRANCH   5   6
HETATM    6  C           1     -23.258  -4.164  -8.031  0.00  0.00     0.196 C 
HETATM    7  O           1     -24.088  -3.602  -8.778  0.00  0.00    -0.646 OA
HETATM    8  O           1     -23.591  -4.511  -6.877  0.00  0.00    -0.646 OA
ENDBRANCH   5   6
BRANCH   5   9
HETATM    9  C           1     -21.884  -4.691 -10.021  0.00  0.00     0.046 C 
BRANCH   9  10
HETATM   10  C           1     -21.249  -3.519 -10.757  0.00  0.00     0.076 C 
BRANCH  10  11
HETATM   11  S           1     -22.361  -2.957 -12.076  0.00  0.00    -0.173 SA
HETATM   12  C           1     -23.501  -4.366 -11.990  0.00  0.00     0.089 C 
ENDBRANCH  10  11
ENDBRANCH   9  10
ENDBRANCH   5   9
ENDBRANCH   2   5
BRANCH   3  13
HETATM   13  C           1     -19.998  -6.620  -5.990  0.00  0.00     0.332 C 
BRANCH  13  14
HETATM   14  N           1     -20.999  -7.737  -6.021  0.00  0.00    -0.071 N 
HETATM   15  H           1     -21.767  -7.535  -5.343  0.00  0.00     0.274 HD
HETATM   16  H           1     -20.528  -8.633  -5.757  0.00  0.00     0.274 HD
HETATM   17  H           1     -21.396  -7.822  -6.983  0.00  0.00     0.274 HD
ENDBRANCH  13  14
ENDBRANCH   3  13
TORSDOF 7
ENDMDL
