MODEL 1
REMARK VINA RESULT:      -7.3      0.000      0.000
REMARK  18 active torsions:
REMARK  status: ('A' for Active; 'I' for Inactive)
REMARK    1  A    between atoms: C_1  and  C_37 
REMARK    2  A    between atoms: C_1  and  C_2 
REMARK    3  A    between atoms: C_1  and  N_39 
REMARK    4  A    between atoms: C_2  and  C_3 
REMARK    5  A    between atoms: C_3  and  C_41 
REMARK    6  A    between atoms: N_4  and  C_5 
REMARK    7  A    between atoms: C_5  and  C_6 
REMARK    8  A    between atoms: C_6  and  C_7 
REMARK    9  A    between atoms: C_7  and  C_8 
REMARK   10  A    between atoms: C_8  and  C_9 
REMARK   11  A    between atoms: C_9  and  C_10 
REMARK   12  A    between atoms: C_9  and  N_13 
REMARK   13  A    between atoms: N_13  and  C_14 
REMARK   14  A    between atoms: C_14  and  C_15 
REMARK   15  A    between atoms: C_15  and  C_24 
REMARK   16  A    between atoms: C_17  and  C_24 
REMARK       I    between atoms: C_21  and  N_22 
REMARK       I    between atoms: C_21  and  N_23 
REMARK   17  A    between atoms: C_24  and  N_36 
REMARK       I    between atoms: N_36  and  C_37 
REMARK   18  A    between atoms: N_40  and  C_41 
ROOT
HETATM    1  H           1     -34.471  -1.336 -17.298  0.00  0.00     0.163 HD
HETATM    2  O           1     -34.591  -3.626 -15.156  0.00  0.00    -0.271 OA
HETATM    3  N           1     -34.736  -1.804 -16.439  0.00  0.00    -0.345 N 
HETATM    4  C           1     -34.275  -3.067 -16.180  0.00  0.00     0.249 C 
ENDROOT
BRANCH   3   5
HETATM    5  C           1     -35.601  -1.138 -15.487  0.00  0.00     0.187 C 
BRANCH   5   6
HETATM    6  C           1     -34.768  -0.224 -14.598  0.00  0.00     0.066 C 
BRANCH   6   7
HETATM    7  C           1     -35.445  -0.080 -13.240  0.00  0.00     0.273 C 
BRANCH   7   8
HETATM    8  N           1     -34.488  -0.334 -12.198  0.00  0.00     0.098 N 
HETATM    9  H           1     -34.624   0.337 -11.440  0.00  0.00     0.317 HD
BRANCH   8  10
HETATM   10  C           1     -34.720  -1.665 -11.706  0.00  0.00     0.320 C 
BRANCH  10  11
HETATM   11  C           1     -33.457  -2.184 -11.032  0.00  0.00     0.047 C 
BRANCH  11  12
HETATM   12  C           1     -33.162  -3.596 -11.523  0.00  0.00     0.004 C 
BRANCH  12  13
HETATM   13  C           1     -33.797  -4.606 -10.578  0.00  0.00     0.027 C 
BRANCH  13  14
HETATM   14  C           1     -34.277  -5.813 -11.373  0.00  0.00     0.229 C 
BRANCH  14  15
HETATM   15  N           1     -34.779  -5.364 -12.713  0.00  0.00    -0.079 N 
HETATM   16  H           1     -35.424  -4.551 -12.589  0.00  0.00     0.274 HD
HETATM   17  H           1     -33.970  -5.078 -13.309  0.00  0.00     0.274 HD
HETATM   18  H           1     -35.293  -6.148 -13.173  0.00  0.00     0.274 HD
ENDBRANCH  14  15
ENDBRANCH  13  14
ENDBRANCH  12  13
ENDBRANCH  11  12
ENDBRANCH  10  11
BRANCH  10  19
HETATM   19  C           1     -35.851  -1.641 -10.707  0.00  0.00     0.207 C 
HETATM   20  O           1     -35.924  -0.716  -9.870  0.00  0.00    -0.646 OA
HETATM   21  O           1     -36.713  -2.546 -10.717  0.00  0.00    -0.646 OA
ENDBRANCH  10  19
ENDBRANCH   8  10
ENDBRANCH   7   8
ENDBRANCH   6   7
ENDBRANCH   5   6
BRANCH   5  22
HETATM   22  C           1     -36.628  -0.319 -16.229  0.00  0.00     0.196 C 
HETATM   23  O           1     -37.583  -0.885 -16.803  0.00  0.00    -0.646 OA
HETATM   24  O           1     -36.524   0.927 -16.270  0.00  0.00    -0.646 OA
ENDBRANCH   5  22
ENDBRANCH   3   5
BRANCH   4  25
HETATM   25  C           1     -33.374  -3.761 -17.172  0.00  0.00     0.274 C 
BRANCH  25  26
HETATM   26  C           1     -32.840  -5.049 -16.559  0.00  0.00     0.044 C 
BRANCH  26  27
HETATM   27  C           1     -31.323  -5.087 -16.697  0.00  0.00     0.023 C 
BRANCH  27  28
HETATM   28  C           1     -30.901  -6.424 -17.291  0.00  0.00     0.138 C 
BRANCH  28  29
HETATM   29  N           1     -29.763  -6.220 -18.199  0.00  0.00    -0.227 N 
HETATM   30  C           1     -28.618  -6.665 -17.890  0.00  0.00     0.665 C 
HETATM   31  N           1     -27.638  -6.488 -18.672  0.00  0.00    -0.235 N 
HETATM   32  N           1     -28.450  -7.304 -16.770  0.00  0.00    -0.235 N 
HETATM   33  H           1     -26.690  -6.858 -18.416  0.00  0.00     0.174 HD
HETATM   34  H           1     -27.775  -5.973 -19.577  0.00  0.00     0.174 HD
HETATM   35  H           1     -27.506  -7.671 -16.515  0.00  0.00     0.174 HD
HETATM   36  H           1     -29.260  -7.449 -16.125  0.00  0.00     0.174 HD
HETATM   37  H           1     -29.899  -5.705 -19.104  0.00  0.00     0.177 HD
ENDBRANCH  28  29
ENDBRANCH  27  28
ENDBRANCH  26  27
ENDBRANCH  25  26
BRANCH  25  38
HETATM   38  N           1     -32.226  -2.860 -17.519  0.00  0.00    -0.067 N 
HETATM   39  H           1     -32.542  -2.145 -18.212  0.00  0.00     0.275 HD
HETATM   40  H           1     -31.886  -2.381 -16.655  0.00  0.00     0.275 HD
HETATM   41  H           1     -31.451  -3.426 -17.933  0.00  0.00     0.275 HD
ENDBRANCH  25  38
ENDBRANCH   4  25
TORSDOF 18
ENDMDL
MODEL 2
REMARK VINA RESULT:      -6.9     13.451     16.036
REMARK  18 active torsions:
REMARK  status: ('A' for Active; 'I' for Inactive)
REMARK    1  A    between atoms: C_1  and  C_37 
REMARK    2  A    between atoms: C_1  and  C_2 
REMARK    3  A    between atoms: C_1  and  N_39 
REMARK    4  A    between atoms: C_2  and  C_3 
REMARK    5  A    between atoms: C_3  and  C_41 
REMARK    6  A    between atoms: N_4  and  C_5 
REMARK    7  A    between atoms: C_5  and  C_6 
REMARK    8  A    between atoms: C_6  and  C_7 
REMARK    9  A    between atoms: C_7  and  C_8 
REMARK   10  A    between atoms: C_8  and  C_9 
REMARK   11  A    between atoms: C_9  and  C_10 
REMARK   12  A    between atoms: C_9  and  N_13 
REMARK   13  A    between atoms: N_13  and  C_14 
REMARK   14  A    between atoms: C_14  and  C_15 
REMARK   15  A    between atoms: C_15  and  C_24 
REMARK   16  A    between atoms: C_17  and  C_24 
REMARK       I    between atoms: C_21  and  N_22 
REMARK       I    between atoms: C_21  and  N_23 
REMARK   17  A    between atoms: C_24  and  N_36 
REMARK       I    between atoms: N_36  and  C_37 
REMARK   18  A    between atoms: N_40  and  C_41 
ROOT
HETATM    1  H           1     -20.259  -4.939  -4.345  0.00  0.00     0.163 HD
HETATM    2  O           1     -22.175  -7.411  -4.592  0.00  0.00    -0.271 OA
HETATM    3  N           1     -20.847  -5.628  -4.798  0.00  0.00    -0.345 N 
HETATM    4  C           1     -21.473  -6.589  -4.051  0.00  0.00     0.249 C 
ENDROOT
BRANCH   3   5
HETATM    5  C           1     -21.024  -5.596  -6.236  0.00  0.00     0.187 C 
BRANCH   5   6
HETATM    6  C           1     -21.658  -4.271  -6.639  0.00  0.00     0.066 C 
BRANCH   6   7
HETATM    7  C           1     -22.509  -4.472  -7.887  0.00  0.00     0.273 C 
BRANCH   7   8
HETATM    8  N           1     -22.891  -3.192  -8.419  0.00  0.00     0.098 N 
HETATM    9  H           1     -22.095  -2.554  -8.374  0.00  0.00     0.317 HD
BRANCH   8  10
HETATM   10  C           1     -23.273  -3.386  -9.791  0.00  0.00     0.320 C 
BRANCH  10  11
HETATM   11  C           1     -22.387  -4.452 -10.419  0.00  0.00     0.047 C 
BRANCH  11  12
HETATM   12  C           1     -22.602  -4.470 -11.927  0.00  0.00     0.004 C 
BRANCH  12  13
HETATM   13  C           1     -22.330  -3.085 -12.496  0.00  0.00     0.027 C 
BRANCH  13  14
HETATM   14  C           1     -23.219  -2.850 -13.710  0.00  0.00     0.229 C 
BRANCH  14  15
HETATM   15  N           1     -22.389  -2.909 -14.958  0.00  0.00    -0.079 N 
HETATM   16  H           1     -22.278  -3.905 -15.255  0.00  0.00     0.274 HD
HETATM   17  H           1     -22.865  -2.371 -15.717  0.00  0.00     0.274 HD
HETATM   18  H           1     -21.449  -2.494 -14.772  0.00  0.00     0.274 HD
ENDBRANCH  14  15
ENDBRANCH  13  14
ENDBRANCH  12  13
ENDBRANCH  11  12
ENDBRANCH  10  11
BRANCH  10  19
HETATM   19  C           1     -24.715  -3.829  -9.852  0.00  0.00     0.207 C 
HETATM   20  O           1     -24.995  -5.047  -9.830  0.00  0.00    -0.646 OA
HETATM   21  O           1     -25.628  -2.979  -9.924  0.00  0.00    -0.646 OA
ENDBRANCH  10  19
ENDBRANCH   8  10
ENDBRANCH   7   8
ENDBRANCH   6   7
ENDBRANCH   5   6
BRANCH   5  22
HETATM   22  C           1     -19.683  -5.739  -6.911  0.00  0.00     0.196 C 
HETATM   23  O           1     -19.039  -4.721  -7.245  0.00  0.00    -0.646 OA
HETATM   24  O           1     -19.215  -6.876  -7.136  0.00  0.00    -0.646 OA
ENDBRANCH   5  22
ENDBRANCH   3   5
BRANCH   4  25
HETATM   25  C           1     -21.288  -6.623  -2.554  0.00  0.00     0.274 C 
BRANCH  25  26
HETATM   26  C           1     -21.334  -8.065  -2.068  0.00  0.00     0.044 C 
BRANCH  26  27
HETATM   27  C           1     -19.931  -8.658  -2.102  0.00  0.00     0.023 C 
BRANCH  27  28
HETATM   28  C           1     -19.917  -9.876  -3.018  0.00  0.00     0.138 C 
BRANCH  28  29
HETATM   29  N           1     -18.829  -9.740  -3.997  0.00  0.00    -0.227 N 
HETATM   30  C           1     -19.098  -9.578  -5.224  0.00  0.00     0.665 C 
HETATM   31  N           1     -18.160  -9.460  -6.067  0.00  0.00    -0.235 N 
HETATM   32  N           1     -20.336  -9.529  -5.616  0.00  0.00    -0.235 N 
HETATM   33  H           1     -18.384  -9.325  -7.084  0.00  0.00     0.174 HD
HETATM   34  H           1     -17.160  -9.498  -5.749  0.00  0.00     0.174 HD
HETATM   35  H           1     -20.559  -9.396  -6.628  0.00  0.00     0.174 HD
HETATM   36  H           1     -21.109  -9.626  -4.920  0.00  0.00     0.174 HD
HETATM   37  H           1     -17.829  -9.778  -3.679  0.00  0.00     0.177 HD
ENDBRANCH  28  29
ENDBRANCH  27  28
ENDBRANCH  26  27
ENDBRANCH  25  26
BRANCH  25  38
HETATM   38  N           1     -22.387  -5.840  -1.898  0.00  0.00    -0.067 N 
HETATM   39  H           1     -22.720  -5.094  -2.549  0.00  0.00     0.275 HD
HETATM   40  H           1     -23.179  -6.479  -1.666  0.00  0.00     0.275 HD
HETATM   41  H           1     -22.025  -5.400  -1.022  0.00  0.00     0.275 HD
ENDBRANCH  25  38
ENDBRANCH   4  25
TORSDOF 18
ENDMDL
MODEL 3
REMARK VINA RESULT:      -6.9     14.460     16.504
REMARK  18 active torsions:
REMARK  status: ('A' for Active; 'I' for Inactive)
REMARK    1  A    between atoms: C_1  and  C_37 
REMARK    2  A    between atoms: C_1  and  C_2 
REMARK    3  A    between atoms: C_1  and  N_39 
REMARK    4  A    between atoms: C_2  and  C_3 
REMARK    5  A    between atoms: C_3  and  C_41 
REMARK    6  A    between atoms: N_4  and  C_5 
REMARK    7  A    between atoms: C_5  and  C_6 
REMARK    8  A    between atoms: C_6  and  C_7 
REMARK    9  A    between atoms: C_7  and  C_8 
REMARK   10  A    between atoms: C_8  and  C_9 
REMARK   11  A    between atoms: C_9  and  C_10 
REMARK   12  A    between atoms: C_9  and  N_13 
REMARK   13  A    between atoms: N_13  and  C_14 
REMARK   14  A    between atoms: C_14  and  C_15 
REMARK   15  A    between atoms: C_15  and  C_24 
REMARK   16  A    between atoms: C_17  and  C_24 
REMARK       I    between atoms: C_21  and  N_22 
REMARK       I    between atoms: C_21  and  N_23 
REMARK   17  A    between atoms: C_24  and  N_36 
REMARK       I    between atoms: N_36  and  C_37 
REMARK   18  A    between atoms: N_40  and  C_41 
ROOT
HETATM    1  H           1     -22.722  -5.941  -6.463  0.00  0.00     0.163 HD
HETATM    2  O           1     -19.781  -5.003  -7.025  0.00  0.00    -0.271 OA
HETATM    3  N           1     -21.730  -5.818  -6.301  0.00  0.00    -0.345 N 
HETATM    4  C           1     -20.964  -5.150  -7.219  0.00  0.00     0.249 C 
ENDROOT
BRANCH   3   5
HETATM    5  C           1     -21.120  -6.349  -5.098  0.00  0.00     0.187 C 
BRANCH   5   6
HETATM    6  C           1     -22.123  -6.289  -3.953  0.00  0.00     0.066 C 
BRANCH   6   7
HETATM    7  C           1     -21.378  -6.203  -2.627  0.00  0.00     0.273 C 
BRANCH   7   8
HETATM    8  N           1     -22.263  -6.567  -1.554  0.00  0.00     0.098 N 
HETATM    9  H           1     -23.227  -6.554  -1.890  0.00  0.00     0.317 HD
BRANCH   8  10
HETATM   10  C           1     -21.919  -7.899  -1.137  0.00  0.00     0.320 C 
BRANCH  10  11
HETATM   11  C           1     -20.424  -8.120  -1.326  0.00  0.00     0.047 C 
BRANCH  11  12
HETATM   12  C           1     -20.183  -9.513  -1.892  0.00  0.00     0.004 C 
BRANCH  12  13
HETATM   13  C           1     -18.846  -9.542  -2.619  0.00  0.00     0.027 C 
BRANCH  13  14
HETATM   14  C           1     -18.661 -10.897  -3.288  0.00  0.00     0.229 C 
BRANCH  14  15
HETATM   15  N           1     -19.363 -10.902  -4.614  0.00  0.00    -0.079 N 
HETATM   16  H           1     -20.208 -11.514  -4.558  0.00  0.00     0.274 HD
HETATM   17  H           1     -19.653  -9.928  -4.857  0.00  0.00     0.274 HD
HETATM   18  H           1     -18.717 -11.269  -5.348  0.00  0.00     0.274 HD
ENDBRANCH  14  15
ENDBRANCH  13  14
ENDBRANCH  12  13
ENDBRANCH  11  12
ENDBRANCH  10  11
BRANCH  10  19
HETATM   19  C           1     -22.274  -8.076   0.320  0.00  0.00     0.207 C 
HETATM   20  O           1     -23.465  -7.986   0.688  0.00  0.00    -0.646 OA
HETATM   21  O           1     -21.377  -8.314   1.157  0.00  0.00    -0.646 OA
ENDBRANCH  10  19
ENDBRANCH   8  10
ENDBRANCH   7   8
ENDBRANCH   6   7
ENDBRANCH   5   6
BRANCH   5  22
HETATM   22  C           1     -20.708  -7.781  -5.333  0.00  0.00     0.196 C 
HETATM   23  O           1     -21.503  -8.710  -5.076  0.00  0.00    -0.646 OA
HETATM   24  O           1     -19.572  -8.038  -5.786  0.00  0.00    -0.646 OA
ENDBRANCH   5  22
ENDBRANCH   3   5
BRANCH   4  25
HETATM   25  C           1     -21.599  -4.597  -8.472  0.00  0.00     0.274 C 
BRANCH  25  26
HETATM   26  C           1     -20.532  -3.934  -9.332  0.00  0.00     0.044 C 
BRANCH  26  27
HETATM   27  C           1     -20.741  -4.321 -10.790  0.00  0.00     0.023 C 
BRANCH  27  28
HETATM   28  C           1     -21.897  -3.516 -11.369  0.00  0.00     0.138 C 
BRANCH  28  29
HETATM   29  N           1     -21.828  -3.544 -12.836  0.00  0.00    -0.227 N 
HETATM   30  C           1     -22.699  -2.933 -13.524  0.00  0.00     0.665 C 
HETATM   31  N           1     -22.639  -2.957 -14.788  0.00  0.00    -0.235 N 
HETATM   32  N           1     -23.652  -2.278 -12.930  0.00  0.00    -0.235 N 
HETATM   33  H           1     -23.361  -2.449 -15.357  0.00  0.00     0.174 HD
HETATM   34  H           1     -21.868  -3.486 -15.267  0.00  0.00     0.174 HD
HETATM   35  H           1     -24.371  -1.773 -13.496  0.00  0.00     0.174 HD
HETATM   36  H           1     -23.700  -2.258 -11.886  0.00  0.00     0.174 HD
HETATM   37  H           1     -21.058  -4.072 -13.316  0.00  0.00     0.177 HD
ENDBRANCH  28  29
ENDBRANCH  27  28
ENDBRANCH  26  27
ENDBRANCH  25  26
BRANCH  25  38
HETATM   38  N           1     -22.641  -3.584  -8.098  0.00  0.00    -0.067 N 
HETATM   39  H           1     -22.173  -2.709  -7.772  0.00  0.00     0.275 HD
HETATM   40  H           1     -23.234  -3.372  -8.931  0.00  0.00     0.275 HD
HETATM   41  H           1     -23.239  -3.966  -7.332  0.00  0.00     0.275 HD
ENDBRANCH  25  38
ENDBRANCH   4  25
TORSDOF 18
ENDMDL
MODEL 4
REMARK VINA RESULT:      -6.8     13.232     15.163
REMARK  18 active torsions:
REMARK  status: ('A' for Active; 'I' for Inactive)
REMARK    1  A    between atoms: C_1  and  C_37 
REMARK    2  A    between atoms: C_1  and  C_2 
REMARK    3  A    between atoms: C_1  and  N_39 
REMARK    4  A    between atoms: C_2  and  C_3 
REMARK    5  A    between atoms: C_3  and  C_41 
REMARK    6  A    between atoms: N_4  and  C_5 
REMARK    7  A    between atoms: C_5  and  C_6 
REMARK    8  A    between atoms: C_6  and  C_7 
REMARK    9  A    between atoms: C_7  and  C_8 
REMARK   10  A    between atoms: C_8  and  C_9 
REMARK   11  A    between atoms: C_9  and  C_10 
REMARK   12  A    between atoms: C_9  and  N_13 
REMARK   13  A    between atoms: N_13  and  C_14 
REMARK   14  A    between atoms: C_14  and  C_15 
REMARK   15  A    between atoms: C_15  and  C_24 
REMARK   16  A    between atoms: C_17  and  C_24 
REMARK       I    between atoms: C_21  and  N_22 
REMARK       I    between atoms: C_21  and  N_23 
REMARK   17  A    between atoms: C_24  and  N_36 
REMARK       I    between atoms: N_36  and  C_37 
REMARK   18  A    between atoms: N_40  and  C_41 
ROOT
HETATM    1  H           1     -21.969  -5.851  -8.646  0.00  0.00     0.163 HD
HETATM    2  O           1     -23.096  -2.923  -8.651  0.00  0.00    -0.271 OA
HETATM    3  N           1     -22.025  -4.868  -8.410  0.00  0.00    -0.345 N 
HETATM    4  C           1     -23.029  -4.096  -8.932  0.00  0.00     0.249 C 
ENDROOT
BRANCH   3   5
HETATM    5  C           1     -21.044  -4.278  -7.522  0.00  0.00     0.187 C 
BRANCH   5   6
HETATM    6  C           1     -21.059  -5.015  -6.189  0.00  0.00     0.066 C 
BRANCH   6   7
HETATM    7  C           1     -21.262  -6.505  -6.435  0.00  0.00     0.273 C 
BRANCH   7   8
HETATM    8  N           1     -20.006  -7.191  -6.291  0.00  0.00     0.098 N 
HETATM    9  H           1     -19.242  -6.520  -6.368  0.00  0.00     0.317 HD
BRANCH   8  10
HETATM   10  C           1     -19.985  -7.795  -4.986  0.00  0.00     0.320 C 
BRANCH  10  11
HETATM   11  C           1     -21.380  -8.294  -4.635  0.00  0.00     0.047 C 
BRANCH  11  12
HETATM   12  C           1     -21.604  -8.164  -3.134  0.00  0.00     0.004 C 
BRANCH  12  13
HETATM   13  C           1     -21.494  -6.700  -2.729  0.00  0.00     0.027 C 
BRANCH  13  14
HETATM   14  C           1     -22.327  -6.456  -1.477  0.00  0.00     0.229 C 
BRANCH  14  15
HETATM   15  N           1     -21.913  -7.417  -0.404  0.00  0.00    -0.079 N 
HETATM   16  H           1     -22.595  -7.372   0.386  0.00  0.00     0.274 HD
HETATM   17  H           1     -21.895  -8.387  -0.794  0.00  0.00     0.274 HD
HETATM   18  H           1     -20.961  -7.163  -0.057  0.00  0.00     0.274 HD
ENDBRANCH  14  15
ENDBRANCH  13  14
ENDBRANCH  12  13
ENDBRANCH  11  12
ENDBRANCH  10  11
BRANCH  10  19
HETATM   19  C           1     -19.020  -8.956  -4.986  0.00  0.00     0.207 C 
HETATM   20  O           1     -18.901  -9.668  -6.006  0.00  0.00    -0.646 OA
HETATM   21  O           1     -18.341  -9.204  -3.967  0.00  0.00    -0.646 OA
ENDBRANCH  10  19
ENDBRANCH   8  10
ENDBRANCH   7   8
ENDBRANCH   6   7
ENDBRANCH   5   6
BRANCH   5  22
HETATM   22  C           1     -19.674  -4.387  -8.143  0.00  0.00     0.196 C 
HETATM   23  O           1     -19.552  -4.420  -9.386  0.00  0.00    -0.646 OA
HETATM   24  O           1     -18.660  -4.444  -7.414  0.00  0.00    -0.646 OA
ENDBRANCH   5  22
ENDBRANCH   3   5
BRANCH   4  25
HETATM   25  C           1     -24.051  -4.711  -9.857  0.00  0.00     0.274 C 
BRANCH  25  26
HETATM   26  C           1     -23.526  -4.681 -11.287  0.00  0.00     0.044 C 
BRANCH  26  27
HETATM   27  C           1     -23.272  -3.239 -11.705  0.00  0.00     0.023 C 
BRANCH  27  28
HETATM   28  C           1     -23.341  -3.131 -13.223  0.00  0.00     0.138 C 
BRANCH  28  29
HETATM   29  N           1     -24.080  -1.916 -13.595  0.00  0.00    -0.227 N 
HETATM   30  C           1     -23.814  -1.320 -14.681  0.00  0.00     0.665 C 
HETATM   31  N           1     -24.451  -0.274 -15.001  0.00  0.00    -0.235 N 
HETATM   32  N           1     -22.889  -1.785 -15.466  0.00  0.00    -0.235 N 
HETATM   33  H           1     -24.230   0.219 -15.901  0.00  0.00     0.174 HD
HETATM   34  H           1     -25.199   0.101 -14.366  0.00  0.00     0.174 HD
HETATM   35  H           1     -22.669  -1.294 -16.362  0.00  0.00     0.174 HD
HETATM   36  H           1     -22.364  -2.649 -15.201  0.00  0.00     0.174 HD
HETATM   37  H           1     -24.828  -1.541 -12.961  0.00  0.00     0.177 HD
ENDBRANCH  28  29
ENDBRANCH  27  28
ENDBRANCH  26  27
ENDBRANCH  25  26
BRANCH  25  38
HETATM   38  N           1     -25.329  -3.930  -9.778  0.00  0.00    -0.067 N 
HETATM   39  H           1     -25.272  -3.103 -10.413  0.00  0.00     0.275 HD
HETATM   40  H           1     -26.127  -4.538 -10.070  0.00  0.00     0.275 HD
HETATM   41  H           1     -25.479  -3.606  -8.796  0.00  0.00     0.275 HD
ENDBRANCH  25  38
ENDBRANCH   4  25
TORSDOF 18
ENDMDL
MODEL 5
REMARK VINA RESULT:      -6.6     13.678     16.442
REMARK  18 active torsions:
REMARK  status: ('A' for Active; 'I' for Inactive)
REMARK    1  A    between atoms: C_1  and  C_37 
REMARK    2  A    between atoms: C_1  and  C_2 
REMARK    3  A    between atoms: C_1  and  N_39 
REMARK    4  A    between atoms: C_2  and  C_3 
REMARK    5  A    between atoms: C_3  and  C_41 
REMARK    6  A    between atoms: N_4  and  C_5 
REMARK    7  A    between atoms: C_5  and  C_6 
REMARK    8  A    between atoms: C_6  and  C_7 
REMARK    9  A    between atoms: C_7  and  C_8 
REMARK   10  A    between atoms: C_8  and  C_9 
REMARK   11  A    between atoms: C_9  and  C_10 
REMARK   12  A    between atoms: C_9  and  N_13 
REMARK   13  A    between atoms: N_13  and  C_14 
REMARK   14  A    between atoms: C_14  and  C_15 
REMARK   15  A    between atoms: C_15  and  C_24 
REMARK   16  A    between atoms: C_17  and  C_24 
REMARK       I    between atoms: C_21  and  N_22 
REMARK       I    between atoms: C_21  and  N_23 
REMARK   17  A    between atoms: C_24  and  N_36 
REMARK       I    between atoms: N_36  and  C_37 
REMARK   18  A    between atoms: N_40  and  C_41 
ROOT
HETATM    1  H           1     -22.290  -5.872  -4.532  0.00  0.00     0.163 HD
HETATM    2  O           1     -20.811  -8.301  -5.857  0.00  0.00    -0.271 OA
HETATM    3  N           1     -21.788  -6.389  -5.243  0.00  0.00    -0.345 N 
HETATM    4  C           1     -21.410  -7.684  -5.008  0.00  0.00     0.249 C 
ENDROOT
BRANCH   3   5
HETATM    5  C           1     -21.468  -5.759  -6.508  0.00  0.00     0.187 C 
BRANCH   5   6
HETATM    6  C           1     -22.548  -4.743  -6.855  0.00  0.00     0.066 C 
BRANCH   6   7
HETATM    7  C           1     -22.063  -3.853  -7.993  0.00  0.00     0.273 C 
BRANCH   7   8
HETATM    8  N           1     -22.160  -4.568  -9.236  0.00  0.00     0.098 N 
HETATM    9  H           1     -22.674  -5.438  -9.089  0.00  0.00     0.317 HD
BRANCH   8  10
HETATM   10  C           1     -22.880  -3.738 -10.163  0.00  0.00     0.320 C 
BRANCH  10  11
HETATM   11  C           1     -22.602  -4.205 -11.586  0.00  0.00     0.047 C 
BRANCH  11  12
HETATM   12  C           1     -22.390  -2.996 -12.487  0.00  0.00     0.004 C 
BRANCH  12  13
HETATM   13  C           1     -23.700  -2.642 -13.179  0.00  0.00     0.027 C 
BRANCH  13  14
HETATM   14  C           1     -23.405  -2.039 -14.546  0.00  0.00     0.229 C 
BRANCH  14  15
HETATM   15  N           1     -24.158  -0.750 -14.698  0.00  0.00    -0.079 N 
HETATM   16  H           1     -24.903  -0.694 -13.967  0.00  0.00     0.274 HD
HETATM   17  H           1     -23.499   0.052 -14.585  0.00  0.00     0.274 HD
HETATM   18  H           1     -24.597  -0.713 -15.645  0.00  0.00     0.274 HD
ENDBRANCH  14  15
ENDBRANCH  13  14
ENDBRANCH  12  13
ENDBRANCH  11  12
ENDBRANCH  10  11
BRANCH  10  19
HETATM   19  C           1     -24.360  -3.837  -9.882  0.00  0.00     0.207 C 
HETATM   20  O           1     -25.020  -2.804  -9.638  0.00  0.00    -0.646 OA
HETATM   21  O           1     -24.925  -4.952  -9.893  0.00  0.00    -0.646 OA
ENDBRANCH  10  19
ENDBRANCH   8  10
ENDBRANCH   7   8
ENDBRANCH   6   7
ENDBRANCH   5   6
BRANCH   5  22
HETATM   22  C           1     -20.135  -5.060  -6.399  0.00  0.00     0.196 C 
HETATM   23  O           1     -19.327  -5.104  -7.351  0.00  0.00    -0.646 OA
HETATM   24  O           1     -19.840  -4.438  -5.356  0.00  0.00    -0.646 OA
ENDBRANCH   5  22
ENDBRANCH   3   5
BRANCH   4  25
HETATM   25  C           1     -21.743  -8.341  -3.691  0.00  0.00     0.274 C 
BRANCH  25  26
HETATM   26  C           1     -20.905  -7.714  -2.584  0.00  0.00     0.044 C 
BRANCH  26  27
HETATM   27  C           1     -21.764  -6.747  -1.781  0.00  0.00     0.023 C 
BRANCH  27  28
HETATM   28  C           1     -22.450  -7.497  -0.647  0.00  0.00     0.138 C 
BRANCH  28  29
HETATM   29  N           1     -21.443  -8.233   0.133  0.00  0.00    -0.227 N 
HETATM   30  C           1     -21.602  -9.467   0.368  0.00  0.00     0.665 C 
HETATM   31  N           1     -20.735 -10.100   1.039  0.00  0.00    -0.235 N 
HETATM   32  N           1     -22.654 -10.083  -0.082  0.00  0.00    -0.235 N 
HETATM   33  H           1     -20.867 -11.123   1.233  0.00  0.00     0.174 HD
HETATM   34  H           1     -19.884  -9.601   1.401  0.00  0.00     0.174 HD
HETATM   35  H           1     -22.786 -11.102   0.113  0.00  0.00     0.174 HD
HETATM   36  H           1     -23.370  -9.560  -0.635  0.00  0.00     0.174 HD
HETATM   37  H           1     -20.593  -7.735   0.495  0.00  0.00     0.177 HD
ENDBRANCH  28  29
ENDBRANCH  27  28
ENDBRANCH  26  27
ENDBRANCH  25  26
BRANCH  25  38
HETATM   38  N           1     -21.444  -9.808  -3.774  0.00  0.00    -0.067 N 
HETATM   39  H           1     -21.261 -10.070  -4.769  0.00  0.00     0.275 HD
HETATM   40  H           1     -20.601 -10.025  -3.197  0.00  0.00     0.275 HD
HETATM   41  H           1     -22.261 -10.351  -3.416  0.00  0.00     0.275 HD
ENDBRANCH  25  38
ENDBRANCH   4  25
TORSDOF 18
ENDMDL
MODEL 6
REMARK VINA RESULT:      -6.5     13.694     16.267
REMARK  18 active torsions:
REMARK  status: ('A' for Active; 'I' for Inactive)
REMARK    1  A    between atoms: C_1  and  C_37 
REMARK    2  A    between atoms: C_1  and  C_2 
REMARK    3  A    between atoms: C_1  and  N_39 
REMARK    4  A    between atoms: C_2  and  C_3 
REMARK    5  A    between atoms: C_3  and  C_41 
REMARK    6  A    between atoms: N_4  and  C_5 
REMARK    7  A    between atoms: C_5  and  C_6 
REMARK    8  A    between atoms: C_6  and  C_7 
REMARK    9  A    between atoms: C_7  and  C_8 
REMARK   10  A    between atoms: C_8  and  C_9 
REMARK   11  A    between atoms: C_9  and  C_10 
REMARK   12  A    between atoms: C_9  and  N_13 
REMARK   13  A    between atoms: N_13  and  C_14 
REMARK   14  A    between atoms: C_14  and  C_15 
REMARK   15  A    between atoms: C_15  and  C_24 
REMARK   16  A    between atoms: C_17  and  C_24 
REMARK       I    between atoms: C_21  and  N_22 
REMARK       I    between atoms: C_21  and  N_23 
REMARK   17  A    between atoms: C_24  and  N_36 
REMARK       I    between atoms: N_36  and  C_37 
REMARK   18  A    between atoms: N_40  and  C_41 
ROOT
HETATM    1  H           1     -20.255  -4.895  -4.328  0.00  0.00     0.163 HD
HETATM    2  O           1     -22.186  -7.349  -4.636  0.00  0.00    -0.271 OA
HETATM    3  N           1     -20.852  -5.566  -4.797  0.00  0.00    -0.345 N 
HETATM    4  C           1     -21.474  -6.549  -4.076  0.00  0.00     0.249 C 
ENDROOT
BRANCH   3   5
HETATM    5  C           1     -21.045  -5.485  -6.231  0.00  0.00     0.187 C 
BRANCH   5   6
HETATM    6  C           1     -21.612  -4.118  -6.590  0.00  0.00     0.066 C 
BRANCH   6   7
HETATM    7  C           1     -22.745  -4.285  -7.596  0.00  0.00     0.273 C 
BRANCH   7   8
HETATM    8  N           1     -22.574  -3.344  -8.670  0.00  0.00     0.098 N 
HETATM    9  H           1     -21.705  -2.827  -8.534  0.00  0.00     0.317 HD
BRANCH   8  10
HETATM   10  C           1     -22.500  -4.091  -9.897  0.00  0.00     0.320 C 
BRANCH  10  11
HETATM   11  C           1     -23.598  -3.623 -10.842  0.00  0.00     0.047 C 
BRANCH  11  12
HETATM   12  C           1     -23.761  -4.630 -11.973  0.00  0.00     0.004 C 
BRANCH  12  13
HETATM   13  C           1     -23.859  -3.893 -13.301  0.00  0.00     0.027 C 
BRANCH  13  14
HETATM   14  C           1     -24.051  -2.405 -13.044  0.00  0.00     0.229 C 
BRANCH  14  15
HETATM   15  N           1     -23.816  -1.642 -14.314  0.00  0.00    -0.079 N 
HETATM   16  H           1     -24.257  -0.698 -14.239  0.00  0.00     0.274 HD
HETATM   17  H           1     -22.788  -1.535 -14.469  0.00  0.00     0.274 HD
HETATM   18  H           1     -24.238  -2.161 -15.115  0.00  0.00     0.274 HD
ENDBRANCH  14  15
ENDBRANCH  13  14
ENDBRANCH  12  13
ENDBRANCH  11  12
ENDBRANCH  10  11
BRANCH  10  19
HETATM   19  C           1     -21.153  -3.867 -10.540  0.00  0.00     0.207 C 
HETATM   20  O           1     -20.947  -2.836 -11.215  0.00  0.00    -0.646 OA
HETATM   21  O           1     -20.244  -4.713 -10.397  0.00  0.00    -0.646 OA
ENDBRANCH  10  19
ENDBRANCH   8  10
ENDBRANCH   7   8
ENDBRANCH   6   7
ENDBRANCH   5   6
BRANCH   5  22
HETATM   22  C           1     -19.722  -5.681  -6.929  0.00  0.00     0.196 C 
HETATM   23  O           1     -19.300  -6.835  -7.156  0.00  0.00    -0.646 OA
HETATM   24  O           1     -19.047  -4.689  -7.279  0.00  0.00    -0.646 OA
ENDBRANCH   5  22
ENDBRANCH   3   5
BRANCH   4  25
HETATM   25  C           1     -21.273  -6.633  -2.583  0.00  0.00     0.274 C 
BRANCH  25  26
HETATM   26  C           1     -21.326  -8.090  -2.143  0.00  0.00     0.044 C 
BRANCH  26  27
HETATM   27  C           1     -19.916  -8.665  -2.114  0.00  0.00     0.023 C 
BRANCH  27  28
HETATM   28  C           1     -19.842  -9.875  -3.037  0.00  0.00     0.138 C 
BRANCH  28  29
HETATM   29  N           1     -18.781  -9.668  -4.032  0.00  0.00    -0.227 N 
HETATM   30  C           1     -19.080  -9.505  -5.252  0.00  0.00     0.665 C 
HETATM   31  N           1     -18.165  -9.327  -6.110  0.00  0.00    -0.235 N 
HETATM   32  N           1     -20.326  -9.519  -5.623  0.00  0.00    -0.235 N 
HETATM   33  H           1     -18.414  -9.191  -7.121  0.00  0.00     0.174 HD
HETATM   34  H           1     -17.159  -9.314  -5.809  0.00  0.00     0.174 HD
HETATM   35  H           1     -20.573  -9.385  -6.629  0.00  0.00     0.174 HD
HETATM   36  H           1     -21.080  -9.667  -4.915  0.00  0.00     0.174 HD
HETATM   37  H           1     -17.775  -9.656  -3.733  0.00  0.00     0.177 HD
ENDBRANCH  28  29
ENDBRANCH  27  28
ENDBRANCH  26  27
ENDBRANCH  25  26
BRANCH  25  38
HETATM   38  N           1     -22.356  -5.862  -1.889  0.00  0.00    -0.067 N 
HETATM   39  H           1     -21.938  -5.282  -1.127  0.00  0.00     0.275 HD
HETATM   40  H           1     -22.835  -5.239  -2.577  0.00  0.00     0.275 HD
HETATM   41  H           1     -23.049  -6.527  -1.479  0.00  0.00     0.275 HD
ENDBRANCH  25  38
ENDBRANCH   4  25
TORSDOF 18
ENDMDL
MODEL 7
REMARK VINA RESULT:      -6.5     13.642     16.351
REMARK  18 active torsions:
REMARK  status: ('A' for Active; 'I' for Inactive)
REMARK    1  A    between atoms: C_1  and  C_37 
REMARK    2  A    between atoms: C_1  and  C_2 
REMARK    3  A    between atoms: C_1  and  N_39 
REMARK    4  A    between atoms: C_2  and  C_3 
REMARK    5  A    between atoms: C_3  and  C_41 
REMARK    6  A    between atoms: N_4  and  C_5 
REMARK    7  A    between atoms: C_5  and  C_6 
REMARK    8  A    between atoms: C_6  and  C_7 
REMARK    9  A    between atoms: C_7  and  C_8 
REMARK   10  A    between atoms: C_8  and  C_9 
REMARK   11  A    between atoms: C_9  and  C_10 
REMARK   12  A    between atoms: C_9  and  N_13 
REMARK   13  A    between atoms: N_13  and  C_14 
REMARK   14  A    between atoms: C_14  and  C_15 
REMARK   15  A    between atoms: C_15  and  C_24 
REMARK   16  A    between atoms: C_17  and  C_24 
REMARK       I    between atoms: C_21  and  N_22 
REMARK       I    between atoms: C_21  and  N_23 
REMARK   17  A    between atoms: C_24  and  N_36 
REMARK       I    between atoms: N_36  and  C_37 
REMARK   18  A    between atoms: N_40  and  C_41 
ROOT
HETATM    1  H           1     -21.880  -7.774  -6.460  0.00  0.00     0.163 HD
HETATM    2  O           1     -19.269  -8.547  -4.900  0.00  0.00    -0.271 OA
HETATM    3  N           1     -20.956  -7.657  -6.061  0.00  0.00    -0.345 N 
HETATM    4  C           1     -20.371  -8.687  -5.376  0.00  0.00     0.249 C 
ENDROOT
BRANCH   3   5
HETATM    5  C           1     -20.255  -6.398  -6.216  0.00  0.00     0.187 C 
BRANCH   5   6
HETATM    6  C           1     -20.532  -5.830  -7.601  0.00  0.00     0.066 C 
BRANCH   6   7
HETATM    7  C           1     -21.263  -4.500  -7.469  0.00  0.00     0.273 C 
BRANCH   7   8
HETATM    8  N           1     -22.606  -4.640  -7.965  0.00  0.00     0.098 N 
HETATM    9  H           1     -23.267  -4.379  -7.232  0.00  0.00     0.317 HD
BRANCH   8  10
HETATM   10  C           1     -22.754  -3.749  -9.084  0.00  0.00     0.320 C 
BRANCH  10  11
HETATM   11  C           1     -21.820  -4.184 -10.205  0.00  0.00     0.047 C 
BRANCH  11  12
HETATM   12  C           1     -21.697  -3.062 -11.229  0.00  0.00     0.004 C 
BRANCH  12  13
HETATM   13  C           1     -22.285  -3.519 -12.557  0.00  0.00     0.027 C 
BRANCH  13  14
HETATM   14  C           1     -23.324  -2.510 -13.027  0.00  0.00     0.229 C 
BRANCH  14  15
HETATM   15  N           1     -24.696  -2.997 -12.665  0.00  0.00    -0.079 N 
HETATM   16  H           1     -24.684  -3.379 -11.692  0.00  0.00     0.274 HD
HETATM   17  H           1     -25.372  -2.202 -12.719  0.00  0.00     0.274 HD
HETATM   18  H           1     -24.985  -3.748 -13.330  0.00  0.00     0.274 HD
ENDBRANCH  14  15
ENDBRANCH  13  14
ENDBRANCH  12  13
ENDBRANCH  11  12
ENDBRANCH  10  11
BRANCH  10  19
HETATM   19  C           1     -24.181  -3.790  -9.573  0.00  0.00     0.207 C 
HETATM   20  O           1     -24.632  -4.833 -10.095  0.00  0.00    -0.646 OA
HETATM   21  O           1     -24.912  -2.784  -9.455  0.00  0.00    -0.646 OA
ENDBRANCH  10  19
ENDBRANCH   8  10
ENDBRANCH   7   8
ENDBRANCH   6   7
ENDBRANCH   5   6
BRANCH   5  22
HETATM   22  C           1     -20.733  -5.424  -5.167  0.00  0.00     0.196 C 
HETATM   23  O           1     -21.813  -5.627  -4.572  0.00  0.00    -0.646 OA
HETATM   24  O           1     -20.049  -4.414  -4.893  0.00  0.00    -0.646 OA
ENDBRANCH   5  22
ENDBRANCH   3   5
BRANCH   4  25
HETATM   25  C           1     -21.102  -9.999  -5.216  0.00  0.00     0.274 C 
BRANCH  25  26
HETATM   26  C           1     -20.837 -10.561  -3.826  0.00  0.00     0.044 C 
BRANCH  26  27
HETATM   27  C           1     -21.914 -10.073  -2.866  0.00  0.00     0.023 C 
BRANCH  27  28
HETATM   28  C           1     -21.285  -9.162  -1.818  0.00  0.00     0.138 C 
BRANCH  28  29
HETATM   29  N           1     -21.483  -7.758  -2.206  0.00  0.00    -0.227 N 
HETATM   30  C           1     -22.111  -6.971  -1.438  0.00  0.00     0.665 C 
HETATM   31  N           1     -22.282  -5.762  -1.772  0.00  0.00    -0.235 N 
HETATM   32  N           1     -22.578  -7.405  -0.305  0.00  0.00    -0.235 N 
HETATM   33  H           1     -22.802  -5.110  -1.134  0.00  0.00     0.174 HD
HETATM   34  H           1     -21.904  -5.412  -2.687  0.00  0.00     0.174 HD
HETATM   35  H           1     -23.096  -6.757   0.330  0.00  0.00     0.174 HD
HETATM   36  H           1     -22.436  -8.403  -0.030  0.00  0.00     0.174 HD
HETATM   37  H           1     -21.106  -7.408  -3.121  0.00  0.00     0.177 HD
ENDBRANCH  28  29
ENDBRANCH  27  28
ENDBRANCH  26  27
ENDBRANCH  25  26
BRANCH  25  38
HETATM   38  N           1     -20.615 -10.971  -6.249  0.00  0.00    -0.067 N 
HETATM   39  H           1     -21.333 -11.716  -6.391  0.00  0.00     0.275 HD
HETATM   40  H           1     -20.452 -10.468  -7.150  0.00  0.00     0.275 HD
HETATM   41  H           1     -19.722 -11.405  -5.925  0.00  0.00     0.275 HD
ENDBRANCH  25  38
ENDBRANCH   4  25
TORSDOF 18
ENDMDL
MODEL 8
REMARK VINA RESULT:      -6.4     14.034     16.682
REMARK  18 active torsions:
REMARK  status: ('A' for Active; 'I' for Inactive)
REMARK    1  A    between atoms: C_1  and  C_37 
REMARK    2  A    between atoms: C_1  and  C_2 
REMARK    3  A    between atoms: C_1  and  N_39 
REMARK    4  A    between atoms: C_2  and  C_3 
REMARK    5  A    between atoms: C_3  and  C_41 
REMARK    6  A    between atoms: N_4  and  C_5 
REMARK    7  A    between atoms: C_5  and  C_6 
REMARK    8  A    between atoms: C_6  and  C_7 
REMARK    9  A    between atoms: C_7  and  C_8 
REMARK   10  A    between atoms: C_8  and  C_9 
REMARK   11  A    between atoms: C_9  and  C_10 
REMARK   12  A    between atoms: C_9  and  N_13 
REMARK   13  A    between atoms: N_13  and  C_14 
REMARK   14  A    between atoms: C_14  and  C_15 
REMARK   15  A    between atoms: C_15  and  C_24 
REMARK   16  A    between atoms: C_17  and  C_24 
REMARK       I    between atoms: C_21  and  N_22 
REMARK       I    between atoms: C_21  and  N_23 
REMARK   17  A    between atoms: C_24  and  N_36 
REMARK       I    between atoms: N_36  and  C_37 
REMARK   18  A    between atoms: N_40  and  C_41 
ROOT
HETATM    1  H           1     -20.430  -4.829  -4.375  0.00  0.00     0.163 HD
HETATM    2  O           1     -22.073  -7.468  -4.797  0.00  0.00    -0.271 OA
HETATM    3  N           1     -20.929  -5.551  -4.878  0.00  0.00    -0.345 N 
HETATM    4  C           1     -21.476  -6.605  -4.197  0.00  0.00     0.249 C 
ENDROOT
BRANCH   3   5
HETATM    5  C           1     -21.065  -5.470  -6.319  0.00  0.00     0.187 C 
BRANCH   5   6
HETATM    6  C           1     -21.516  -4.068  -6.707  0.00  0.00     0.066 C 
BRANCH   6   7
HETATM    7  C           1     -22.764  -4.157  -7.576  0.00  0.00     0.273 C 
BRANCH   7   8
HETATM    8  N           1     -22.389  -4.502  -8.921  0.00  0.00     0.098 N 
HETATM    9  H           1     -22.690  -5.456  -9.123  0.00  0.00     0.317 HD
BRANCH   8  10
HETATM   10  C           1     -23.057  -3.590  -9.809  0.00  0.00     0.320 C 
BRANCH  10  11
HETATM   11  C           1     -22.459  -3.711 -11.204  0.00  0.00     0.047 C 
BRANCH  11  12
HETATM   12  C           1     -22.857  -2.499 -12.036  0.00  0.00     0.004 C 
BRANCH  12  13
HETATM   13  C           1     -23.769  -2.940 -13.173  0.00  0.00     0.027 C 
BRANCH  13  14
HETATM   14  C           1     -23.378  -2.209 -14.450  0.00  0.00     0.229 C 
BRANCH  14  15
HETATM   15  N           1     -22.318  -2.989 -15.169  0.00  0.00    -0.079 N 
HETATM   16  H           1     -21.422  -2.451 -15.159  0.00  0.00     0.274 HD
HETATM   17  H           1     -22.178  -3.908 -14.691  0.00  0.00     0.274 HD
HETATM   18  H           1     -22.615  -3.151 -16.158  0.00  0.00     0.274 HD
ENDBRANCH  14  15
ENDBRANCH  13  14
ENDBRANCH  12  13
ENDBRANCH  11  12
ENDBRANCH  10  11
BRANCH  10  19
HETATM   19  C           1     -24.527  -3.926  -9.861  0.00  0.00     0.207 C 
HETATM   20  O           1     -25.380  -3.017  -9.763  0.00  0.00    -0.646 OA
HETATM   21  O           1     -24.893  -5.113 -10.002  0.00  0.00    -0.646 OA
ENDBRANCH  10  19
ENDBRANCH   8  10
ENDBRANCH   7   8
ENDBRANCH   6   7
ENDBRANCH   5   6
BRANCH   5  22
HETATM   22  C           1     -19.736  -5.770  -6.966  0.00  0.00     0.196 C 
HETATM   23  O           1     -19.062  -4.845  -7.468  0.00  0.00    -0.646 OA
HETATM   24  O           1     -19.309  -6.945  -7.001  0.00  0.00    -0.646 OA
ENDBRANCH   5  22
ENDBRANCH   3   5
BRANCH   4  25
HETATM   25  C           1     -21.335  -6.690  -2.696  0.00  0.00     0.274 C 
BRANCH  25  26
HETATM   26  C           1     -21.487  -8.139  -2.252  0.00  0.00     0.044 C 
BRANCH  26  27
HETATM   27  C           1     -20.142  -8.668  -1.774  0.00  0.00     0.023 C 
BRANCH  27  28
HETATM   28  C           1     -20.122 -10.187  -1.892  0.00  0.00     0.138 C 
BRANCH  28  29
HETATM   29  N           1     -21.054 -10.766  -0.914  0.00  0.00    -0.227 N 
HETATM   30  C           1     -20.612 -11.462   0.047  0.00  0.00     0.665 C 
HETATM   31  N           1     -21.415 -11.961   0.890  0.00  0.00    -0.235 N 
HETATM   32  N           1     -19.333 -11.663   0.169  0.00  0.00    -0.235 N 
HETATM   33  H           1     -21.047 -12.538   1.686  0.00  0.00     0.174 HD
HETATM   34  H           1     -22.447 -11.798   0.791  0.00  0.00     0.174 HD
HETATM   35  H           1     -18.968 -12.238   0.962  0.00  0.00     0.174 HD
HETATM   36  H           1     -18.671 -11.251  -0.527  0.00  0.00     0.174 HD
HETATM   37  H           1     -22.087 -10.604  -1.012  0.00  0.00     0.177 HD
ENDBRANCH  28  29
ENDBRANCH  27  28
ENDBRANCH  26  27
ENDBRANCH  25  26
BRANCH  25  38
HETATM   38  N           1     -22.398  -5.854  -2.047  0.00  0.00    -0.067 N 
HETATM   39  H           1     -21.963  -5.002  -1.628  0.00  0.00     0.275 HD
HETATM   40  H           1     -23.103  -5.570  -2.763  0.00  0.00     0.275 HD
HETATM   41  H           1     -22.867  -6.409  -1.296  0.00  0.00     0.275 HD
ENDBRANCH  25  38
ENDBRANCH   4  25
TORSDOF 18
ENDMDL
MODEL 9
REMARK VINA RESULT:      -6.3     14.725     16.786
REMARK  18 active torsions:
REMARK  status: ('A' for Active; 'I' for Inactive)
REMARK    1  A    between atoms: C_1  and  C_37 
REMARK    2  A    between atoms: C_1  and  C_2 
REMARK    3  A    between atoms: C_1  and  N_39 
REMARK    4  A    between atoms: C_2  and  C_3 
REMARK    5  A    between atoms: C_3  and  C_41 
REMARK    6  A    between atoms: N_4  and  C_5 
REMARK    7  A    between atoms: C_5  and  C_6 
REMARK    8  A    between atoms: C_6  and  C_7 
REMARK    9  A    between atoms: C_7  and  C_8 
REMARK   10  A    between atoms: C_8  and  C_9 
REMARK   11  A    between atoms: C_9  and  C_10 
REMARK   12  A    between atoms: C_9  and  N_13 
REMARK   13  A    between atoms: N_13  and  C_14 
REMARK   14  A    between atoms: C_14  and  C_15 
REMARK   15  A    between atoms: C_15  and  C_24 
REMARK   16  A    between atoms: C_17  and  C_24 
REMARK       I    between atoms: C_21  and  N_22 
REMARK       I    between atoms: C_21  and  N_23 
REMARK   17  A    between atoms: C_24  and  N_36 
REMARK       I    between atoms: N_36  and  C_37 
REMARK   18  A    between atoms: N_40  and  C_41 
ROOT
HETATM    1  H           1     -22.259  -6.671  -5.982  0.00  0.00     0.163 HD
HETATM    2  O           1     -19.542  -5.452  -6.969  0.00  0.00    -0.271 OA
HETATM    3  N           1     -21.259  -6.516  -6.018  0.00  0.00    -0.345 N 
HETATM    4  C           1     -20.735  -5.636  -6.926  0.00  0.00     0.249 C 
ENDROOT
BRANCH   3   5
HETATM    5  C           1     -20.383  -7.227  -5.108  0.00  0.00     0.187 C 
BRANCH   5   6
HETATM    6  C           1     -21.054  -7.345  -3.746  0.00  0.00     0.066 C 
BRANCH   6   7
HETATM    7  C           1     -20.222  -8.250  -2.846  0.00  0.00     0.273 C 
BRANCH   7   8
HETATM    8  N           1     -20.442  -7.892  -1.471  0.00  0.00     0.098 N 
HETATM    9  H           1     -20.685  -6.902  -1.412  0.00  0.00     0.317 HD
BRANCH   8  10
HETATM   10  C           1     -21.539  -8.684  -0.983  0.00  0.00     0.320 C 
BRANCH  10  11
HETATM   11  C           1     -21.025  -9.685   0.043  0.00  0.00     0.047 C 
BRANCH  11  12
HETATM   12  C           1     -21.295 -11.101  -0.449  0.00  0.00     0.004 C 
BRANCH  12  13
HETATM   13  C           1     -21.972 -11.902   0.655  0.00  0.00     0.027 C 
BRANCH  13  14
HETATM   14  C           1     -23.377 -12.289   0.214  0.00  0.00     0.229 C 
BRANCH  14  15
HETATM   15  N           1     -24.170 -11.049  -0.077  0.00  0.00    -0.079 N 
HETATM   16  H           1     -24.774 -11.211  -0.914  0.00  0.00     0.274 HD
HETATM   17  H           1     -24.770 -10.819   0.747  0.00  0.00     0.274 HD
HETATM   18  H           1     -23.518 -10.256  -0.268  0.00  0.00     0.274 HD
ENDBRANCH  14  15
ENDBRANCH  13  14
ENDBRANCH  12  13
ENDBRANCH  11  12
ENDBRANCH  10  11
BRANCH  10  19
HETATM   19  C           1     -22.562  -7.781  -0.337  0.00  0.00     0.207 C 
HETATM   20  O           1     -22.698  -6.605  -0.737  0.00  0.00    -0.646 OA
HETATM   21  O           1     -23.272  -8.210   0.597  0.00  0.00    -0.646 OA
ENDBRANCH  10  19
ENDBRANCH   8  10
ENDBRANCH   7   8
ENDBRANCH   6   7
ENDBRANCH   5   6
BRANCH   5  22
HETATM   22  C           1     -20.103  -8.606  -5.654  0.00  0.00     0.196 C 
HETATM   23  O           1     -21.050  -9.380  -5.911  0.00  0.00    -0.646 OA
HETATM   24  O           1     -18.924  -8.973  -5.850  0.00  0.00    -0.646 OA
ENDBRANCH   5  22
ENDBRANCH   3   5
BRANCH   4  25
HETATM   25  C           1     -21.648  -4.896  -7.874  0.00  0.00     0.274 C 
BRANCH  25  26
HETATM   26  C           1     -20.931  -4.669  -9.198  0.00  0.00     0.044 C 
BRANCH  26  27
HETATM   27  C           1     -21.958  -4.471 -10.305  0.00  0.00     0.023 C 
BRANCH  27  28
HETATM   28  C           1     -21.527  -3.312 -11.195  0.00  0.00     0.138 C 
BRANCH  28  29
HETATM   29  N           1     -22.717  -2.611 -11.697  0.00  0.00    -0.227 N 
HETATM   30  C           1     -23.008  -2.660 -12.929  0.00  0.00     0.665 C 
HETATM   31  N           1     -24.034  -2.056 -13.362  0.00  0.00    -0.235 N 
HETATM   32  N           1     -22.255  -3.331 -13.748  0.00  0.00    -0.235 N 
HETATM   33  H           1     -24.275  -2.097 -14.383  0.00  0.00     0.174 HD
HETATM   34  H           1     -24.643  -1.514 -12.699  0.00  0.00     0.174 HD
HETATM   35  H           1     -22.494  -3.371 -14.765  0.00  0.00     0.174 HD
HETATM   36  H           1     -21.408  -3.829 -13.391  0.00  0.00     0.174 HD
HETATM   37  H           1     -23.326  -2.069 -11.036  0.00  0.00     0.177 HD
ENDBRANCH  28  29
ENDBRANCH  27  28
ENDBRANCH  26  27
ENDBRANCH  25  26
BRANCH  25  38
HETATM   38  N           1     -22.022  -3.572  -7.274  0.00  0.00    -0.067 N 
HETATM   39  H           1     -21.227  -3.213  -6.701  0.00  0.00     0.275 HD
HETATM   40  H           1     -22.236  -2.893  -8.038  0.00  0.00     0.275 HD
HETATM   41  H           1     -22.864  -3.691  -6.667  0.00  0.00     0.275 HD
ENDBRANCH  25  38
ENDBRANCH   4  25
TORSDOF 18
ENDMDL
