MODEL 1
REMARK VINA RESULT:      -7.2      0.000      0.000
REMARK  8 active torsions:
REMARK  status: ('A' for Active; 'I' for Inactive)
REMARK    1  A    between atoms: C_3  and  C_6 
REMARK    2  A    between atoms: C_6  and  C_7 
REMARK    3  A    between atoms: C_6  and  N_27 
REMARK    4  A    between atoms: C_7  and  C_11 
REMARK    5  A    between atoms: C_8  and  C_29 
REMARK    6  A    between atoms: C_8  and  C_9 
REMARK    7  A    between atoms: N_23  and  C_29 
REMARK       I    between atoms: N_27  and  C_28 
REMARK    8  A    between atoms: C_28  and  C_29 
ROOT
HETATM    1  O           1     -33.875  -1.843  -9.805  0.00  0.00    -0.271 OA
HETATM    2  H           1     -32.515  -2.462 -12.208  0.00  0.00     0.163 HD
HETATM    3  N           1     -33.330  -2.828 -11.734  0.00  0.00    -0.344 N 
HETATM    4  C           1     -34.114  -1.996 -10.980  0.00  0.00     0.249 C 
ENDROOT
BRANCH   4   5
HETATM    5  C           1     -35.275  -1.272 -11.615  0.00  0.00     0.280 C 
BRANCH   5   6
HETATM    6  C           1     -34.749  -0.226 -12.589  0.00  0.00     0.101 C 
BRANCH   6   7
HETATM    7  C           1     -35.514  -0.311 -13.874  0.00  0.00     0.028 A 
HETATM    8  C           1     -36.842   0.016 -14.016  0.00  0.00     0.114 A 
HETATM    9  N           1     -37.122  -0.207 -15.336  0.00  0.00    -0.360 N 
HETATM   10  C           1     -35.975  -0.652 -15.929  0.00  0.00     0.180 A 
HETATM   11  H           1     -38.050  -0.063 -15.806  0.00  0.00     0.166 HD
HETATM   12  N           1     -34.986  -0.725 -15.069  0.00  0.00    -0.355 N 
ATOM     13  HN          1     -34.028  -1.025 -15.251  1.00  0.00     0.166 HD
ENDBRANCH   6   7
ENDBRANCH   5   6
BRANCH   5  14
HETATM   14  N           1     -36.086  -0.598 -10.548  0.00  0.00    -0.066 N 
HETATM   15  H           1     -37.005  -1.086 -10.449  0.00  0.00     0.275 HD
HETATM   16  H           1     -36.248   0.399 -10.812  0.00  0.00     0.275 HD
HETATM   17  H           1     -35.571  -0.641  -9.640  0.00  0.00     0.275 HD
ENDBRANCH   5  14
ENDBRANCH   4   5
BRANCH   3  18
HETATM   18  C           1     -33.671  -4.232 -11.854  0.00  0.00     0.191 C 
BRANCH  18  19
HETATM   19  C           1     -34.419  -4.460 -13.144  0.00  0.00     0.197 C 
HETATM   20  O           1     -35.182  -5.443 -13.260  0.00  0.00    -0.646 OA
HETATM   21  O           1     -34.278  -3.665 -14.098  0.00  0.00    -0.646 OA
ENDBRANCH  18  19
BRANCH  18  22
HETATM   22  C           1     -34.549  -4.643 -10.679  0.00  0.00     0.094 C 
BRANCH  22  23
HETATM   23  C           1     -34.361  -6.102 -10.401  0.00  0.00     0.028 A 
HETATM   24  C           1     -35.169  -6.851  -9.578  0.00  0.00     0.114 A 
HETATM   25  N           1     -34.640  -8.111  -9.614  0.00  0.00    -0.360 N 
HETATM   26  H           1     -35.002  -8.952  -9.101  0.00  0.00     0.166 HD
HETATM   27  C           1     -33.553  -8.077 -10.442  0.00  0.00     0.180 A 
HETATM   28  N           1     -33.361  -6.875 -10.932  0.00  0.00    -0.354 N 
ATOM     29  HN          1     -32.624  -6.578 -11.572  1.00  0.00     0.166 HD
ENDBRANCH  22  23
ENDBRANCH  18  22
ENDBRANCH   3  18
TORSDOF 8
ENDMDL
MODEL 2
REMARK VINA RESULT:      -6.9     11.925     14.348
REMARK  8 active torsions:
REMARK  status: ('A' for Active; 'I' for Inactive)
REMARK    1  A    between atoms: C_3  and  C_6 
REMARK    2  A    between atoms: C_6  and  C_7 
REMARK    3  A    between atoms: C_6  and  N_27 
REMARK    4  A    between atoms: C_7  and  C_11 
REMARK    5  A    between atoms: C_8  and  C_29 
REMARK    6  A    between atoms: C_8  and  C_9 
REMARK    7  A    between atoms: N_23  and  C_29 
REMARK       I    between atoms: N_27  and  C_28 
REMARK    8  A    between atoms: C_28  and  C_29 
ROOT
HETATM    1  O           1     -21.031  -4.647 -11.475  0.00  0.00    -0.271 OA
HETATM    2  H           1     -21.535  -1.862 -11.518  0.00  0.00     0.163 HD
HETATM    3  N           1     -22.095  -2.687 -11.349  0.00  0.00    -0.344 N 
HETATM    4  C           1     -21.529  -3.795 -10.777  0.00  0.00     0.249 C 
ENDROOT
BRANCH   4   5
HETATM    5  C           1     -21.526  -3.952  -9.277  0.00  0.00     0.280 C 
BRANCH   5   6
HETATM    6  C           1     -20.127  -4.330  -8.808  0.00  0.00     0.101 C 
BRANCH   6   7
HETATM    7  C           1     -20.211  -4.998  -7.471  0.00  0.00     0.028 A 
HETATM    8  C           1     -20.540  -4.361  -6.298  0.00  0.00     0.114 A 
HETATM    9  N           1     -20.498  -5.336  -5.341  0.00  0.00    -0.360 N 
HETATM   10  C           1     -20.153  -6.504  -5.960  0.00  0.00     0.180 A 
HETATM   11  H           1     -20.695  -5.209  -4.317  0.00  0.00     0.166 HD
HETATM   12  N           1     -19.973  -6.330  -7.249  0.00  0.00    -0.355 N 
ATOM     13  HN          1     -19.712  -7.035  -7.939  1.00  0.00     0.166 HD
ENDBRANCH   6   7
ENDBRANCH   5   6
BRANCH   5  14
HETATM   14  N           1     -22.492  -5.031  -8.886  0.00  0.00    -0.066 N 
HETATM   15  H           1     -23.445  -4.619  -8.765  0.00  0.00     0.275 HD
HETATM   16  H           1     -22.183  -5.466  -7.988  0.00  0.00     0.275 HD
HETATM   17  H           1     -22.521  -5.760  -9.636  0.00  0.00     0.275 HD
ENDBRANCH   5  14
ENDBRANCH   4   5
BRANCH   3  18
HETATM   18  C           1     -23.499  -2.698 -11.712  0.00  0.00     0.191 C 
BRANCH  18  19
HETATM   19  C           1     -24.275  -3.497 -10.693  0.00  0.00     0.197 C 
HETATM   20  O           1     -24.723  -2.937  -9.669  0.00  0.00    -0.646 OA
HETATM   21  O           1     -24.470  -4.718 -10.873  0.00  0.00    -0.646 OA
ENDBRANCH  18  19
BRANCH  18  22
HETATM   22  C           1     -23.663  -3.333 -13.086  0.00  0.00     0.094 C 
BRANCH  22  23
HETATM   23  C           1     -23.532  -2.280 -14.142  0.00  0.00     0.028 A 
HETATM   24  C           1     -22.627  -2.318 -15.176  0.00  0.00     0.114 A 
HETATM   25  N           1     -22.854  -1.173 -15.888  0.00  0.00    -0.360 N 
HETATM   26  H           1     -22.343  -0.868 -16.753  0.00  0.00     0.166 HD
HETATM   27  C           1     -23.870  -0.500 -15.270  0.00  0.00     0.180 A 
HETATM   28  N           1     -24.299  -1.146 -14.211  0.00  0.00    -0.354 N 
ATOM     29  HN          1     -25.045  -0.864 -13.574  1.00  0.00     0.166 HD
ENDBRANCH  22  23
ENDBRANCH  18  22
ENDBRANCH   3  18
TORSDOF 8
ENDMDL
MODEL 3
REMARK VINA RESULT:      -6.5     14.047     15.782
REMARK  8 active torsions:
REMARK  status: ('A' for Active; 'I' for Inactive)
REMARK    1  A    between atoms: C_3  and  C_6 
REMARK    2  A    between atoms: C_6  and  C_7 
REMARK    3  A    between atoms: C_6  and  N_27 
REMARK    4  A    between atoms: C_7  and  C_11 
REMARK    5  A    between atoms: C_8  and  C_29 
REMARK    6  A    between atoms: C_8  and  C_9 
REMARK    7  A    between atoms: N_23  and  C_29 
REMARK       I    between atoms: N_27  and  C_28 
REMARK    8  A    between atoms: C_28  and  C_29 
ROOT
HETATM    1  O           1     -19.411  -6.539  -7.339  0.00  0.00    -0.271 OA
HETATM    2  H           1     -21.677  -7.947  -6.393  0.00  0.00     0.163 HD
HETATM    3  N           1     -20.889  -7.486  -5.957  0.00  0.00    -0.344 N 
HETATM    4  C           1     -20.319  -6.394  -6.554  0.00  0.00     0.249 C 
ENDROOT
BRANCH   4   5
HETATM    5  C           1     -20.823  -5.008  -6.232  0.00  0.00     0.280 C 
BRANCH   5   6
HETATM    6  C           1     -20.582  -4.091  -7.424  0.00  0.00     0.101 C 
BRANCH   6   7
HETATM    7  C           1     -21.776  -4.121  -8.327  0.00  0.00     0.028 A 
HETATM    8  C           1     -21.728  -4.366  -9.679  0.00  0.00     0.114 A 
HETATM    9  N           1     -23.028  -4.300 -10.097  0.00  0.00    -0.360 N 
HETATM   10  C           1     -23.798  -4.024  -9.003  0.00  0.00     0.180 A 
HETATM   11  H           1     -23.371  -4.437 -11.081  0.00  0.00     0.166 HD
HETATM   12  N           1     -23.068  -3.910  -7.918  0.00  0.00    -0.355 N 
ATOM     13  HN          1     -23.391  -3.709  -6.972  1.00  0.00     0.166 HD
ENDBRANCH   6   7
ENDBRANCH   5   6
BRANCH   5  14
HETATM   14  N           1     -20.091  -4.476  -5.036  0.00  0.00    -0.066 N 
HETATM   15  H           1     -20.759  -3.960  -4.420  0.00  0.00     0.275 HD
HETATM   16  H           1     -19.335  -3.828  -5.352  0.00  0.00     0.275 HD
HETATM   17  H           1     -19.670  -5.271  -4.504  0.00  0.00     0.275 HD
ENDBRANCH   5  14
ENDBRANCH   4   5
BRANCH   3  18
HETATM   18  C           1     -20.362  -7.981  -4.700  0.00  0.00     0.191 C 
BRANCH  18  19
HETATM   19  C           1     -19.307  -9.024  -4.974  0.00  0.00     0.197 C 
HETATM   20  O           1     -19.439  -9.809  -5.938  0.00  0.00    -0.646 OA
HETATM   21  O           1     -18.301  -9.105  -4.237  0.00  0.00    -0.646 OA
ENDBRANCH  18  19
BRANCH  18  22
HETATM   22  C           1     -21.491  -8.602  -3.887  0.00  0.00     0.094 C 
BRANCH  22  23
HETATM   23  C           1     -21.799  -7.728  -2.711  0.00  0.00     0.028 A 
HETATM   24  C           1     -21.981  -6.366  -2.777  0.00  0.00     0.114 A 
HETATM   25  N           1     -22.237  -5.981  -1.490  0.00  0.00    -0.360 N 
HETATM   26  H           1     -22.428  -5.003  -1.160  0.00  0.00     0.166 HD
HETATM   27  C           1     -22.204  -7.104  -0.711  0.00  0.00     0.180 A 
HETATM   28  N           1     -21.941  -8.174  -1.423  0.00  0.00    -0.354 N 
ATOM     29  HN          1     -21.859  -9.135  -1.090  1.00  0.00     0.166 HD
ENDBRANCH  22  23
ENDBRANCH  18  22
ENDBRANCH   3  18
TORSDOF 8
ENDMDL
MODEL 4
REMARK VINA RESULT:      -6.5      2.585      4.422
REMARK  8 active torsions:
REMARK  status: ('A' for Active; 'I' for Inactive)
REMARK    1  A    between atoms: C_3  and  C_6 
REMARK    2  A    between atoms: C_6  and  C_7 
REMARK    3  A    between atoms: C_6  and  N_27 
REMARK    4  A    between atoms: C_7  and  C_11 
REMARK    5  A    between atoms: C_8  and  C_29 
REMARK    6  A    between atoms: C_8  and  C_9 
REMARK    7  A    between atoms: N_23  and  C_29 
REMARK       I    between atoms: N_27  and  C_28 
REMARK    8  A    between atoms: C_28  and  C_29 
ROOT
HETATM    1  O           1     -36.165   0.732 -14.714  0.00  0.00    -0.271 OA
HETATM    2  H           1     -33.891  -0.744 -13.902  0.00  0.00     0.163 HD
HETATM    3  N           1     -34.891  -0.848 -13.783  0.00  0.00    -0.344 N 
HETATM    4  C           1     -35.746  -0.401 -14.754  0.00  0.00     0.249 C 
ENDROOT
BRANCH   4   5
HETATM    5  C           1     -36.165  -1.322 -15.873  0.00  0.00     0.280 C 
BRANCH   5   6
HETATM    6  C           1     -35.034  -1.438 -16.886  0.00  0.00     0.101 C 
BRANCH   6   7
HETATM    7  C           1     -34.310  -2.733 -16.680  0.00  0.00     0.028 A 
HETATM    8  C           1     -34.704  -3.718 -15.805  0.00  0.00     0.114 A 
HETATM    9  N           1     -33.769  -4.706 -15.941  0.00  0.00    -0.360 N 
HETATM   10  C           1     -32.863  -4.290 -16.874  0.00  0.00     0.180 A 
HETATM   11  H           1     -33.752  -5.619 -15.421  0.00  0.00     0.166 HD
HETATM   12  N           1     -33.165  -3.099 -17.339  0.00  0.00    -0.355 N 
ATOM     13  HN          1     -32.656  -2.561 -18.040  1.00  0.00     0.166 HD
ENDBRANCH   6   7
ENDBRANCH   5   6
BRANCH   5  14
HETATM   14  N           1     -37.384  -0.765 -16.547  0.00  0.00    -0.066 N 
HETATM   15  H           1     -37.929  -1.544 -16.982  0.00  0.00     0.275 HD
HETATM   16  H           1     -37.093  -0.088 -17.287  0.00  0.00     0.275 HD
HETATM   17  H           1     -37.980  -0.277 -15.841  0.00  0.00     0.275 HD
ENDBRANCH   5  14
ENDBRANCH   4   5
BRANCH   3  18
HETATM   18  C           1     -35.418  -1.471 -12.584  0.00  0.00     0.191 C 
BRANCH  18  19
HETATM   19  C           1     -36.331  -0.501 -11.875  0.00  0.00     0.197 C 
HETATM   20  O           1     -37.570  -0.657 -11.927  0.00  0.00    -0.646 OA
HETATM   21  O           1     -35.848   0.458 -11.235  0.00  0.00    -0.646 OA
ENDBRANCH  18  19
BRANCH  18  22
HETATM   22  C           1     -34.267  -1.852 -11.663  0.00  0.00     0.094 C 
BRANCH  22  23
HETATM   23  C           1     -34.074  -3.336 -11.691  0.00  0.00     0.028 A 
HETATM   24  C           1     -32.852  -3.965 -11.729  0.00  0.00     0.114 A 
HETATM   25  N           1     -33.142  -5.301 -11.744  0.00  0.00    -0.360 N 
HETATM   26  H           1     -32.447  -6.087 -11.772  0.00  0.00     0.166 HD
HETATM   27  C           1     -34.502  -5.427 -11.712  0.00  0.00     0.180 A 
HETATM   28  N           1     -35.092  -4.255 -11.680  0.00  0.00    -0.354 N 
ATOM     29  HN          1     -36.094  -4.067 -11.653  1.00  0.00     0.166 HD
ENDBRANCH  22  23
ENDBRANCH  18  22
ENDBRANCH   3  18
TORSDOF 8
ENDMDL
MODEL 5
REMARK VINA RESULT:      -6.3     13.270     16.025
REMARK  8 active torsions:
REMARK  status: ('A' for Active; 'I' for Inactive)
REMARK    1  A    between atoms: C_3  and  C_6 
REMARK    2  A    between atoms: C_6  and  C_7 
REMARK    3  A    between atoms: C_6  and  N_27 
REMARK    4  A    between atoms: C_7  and  C_11 
REMARK    5  A    between atoms: C_8  and  C_29 
REMARK    6  A    between atoms: C_8  and  C_9 
REMARK    7  A    between atoms: N_23  and  C_29 
REMARK       I    between atoms: N_27  and  C_28 
REMARK    8  A    between atoms: C_28  and  C_29 
ROOT
HETATM    1  O           1     -20.433  -4.978  -4.916  0.00  0.00    -0.271 OA
HETATM    2  H           1     -23.034  -4.509  -5.927  0.00  0.00     0.163 HD
HETATM    3  N           1     -22.215  -4.999  -6.262  0.00  0.00    -0.344 N 
HETATM    4  C           1     -21.364  -5.598  -5.373  0.00  0.00     0.249 C 
ENDROOT
BRANCH   4   5
HETATM    5  C           1     -21.589  -7.033  -4.963  0.00  0.00     0.280 C 
BRANCH   5   6
HETATM    6  C           1     -20.630  -7.395  -3.836  0.00  0.00     0.101 C 
BRANCH   6   7
HETATM    7  C           1     -21.386  -7.481  -2.546  0.00  0.00     0.028 A 
HETATM    8  C           1     -21.992  -6.415  -1.923  0.00  0.00     0.114 A 
HETATM    9  N           1     -22.556  -6.940  -0.794  0.00  0.00    -0.360 N 
HETATM   10  C           1     -22.275  -8.277  -0.777  0.00  0.00     0.180 A 
HETATM   11  H           1     -23.105  -6.411  -0.071  0.00  0.00     0.166 HD
HETATM   12  N           1     -21.568  -8.632  -1.825  0.00  0.00    -0.355 N 
ATOM     13  HN          1     -21.227  -9.566  -2.054  1.00  0.00     0.166 HD
ENDBRANCH   6   7
ENDBRANCH   5   6
BRANCH   5  14
HETATM   14  N           1     -21.341  -7.932  -6.137  0.00  0.00    -0.066 N 
HETATM   15  H           1     -21.781  -7.520  -6.991  0.00  0.00     0.275 HD
HETATM   16  H           1     -21.757  -8.871  -5.950  0.00  0.00     0.275 HD
HETATM   17  H           1     -20.311  -8.030  -6.290  0.00  0.00     0.275 HD
ENDBRANCH   5  14
ENDBRANCH   4   5
BRANCH   3  18
HETATM   18  C           1     -21.942  -5.067  -7.684  0.00  0.00     0.191 C 
BRANCH  18  19
HETATM   19  C           1     -20.452  -4.979  -7.914  0.00  0.00     0.197 C 
HETATM   20  O           1     -19.895  -3.862  -7.979  0.00  0.00    -0.646 OA
HETATM   21  O           1     -19.776  -6.022  -8.038  0.00  0.00    -0.646 OA
ENDBRANCH  18  19
BRANCH  18  22
HETATM   22  C           1     -22.633  -3.907  -8.389  0.00  0.00     0.094 C 
BRANCH  22  23
HETATM   23  C           1     -22.576  -4.118  -9.870  0.00  0.00     0.028 A 
HETATM   24  C           1     -23.501  -4.832 -10.594  0.00  0.00     0.114 A 
HETATM   25  N           1     -23.064  -4.768 -11.888  0.00  0.00    -0.360 N 
HETATM   26  H           1     -23.528  -5.204 -12.723  0.00  0.00     0.166 HD
HETATM   27  C           1     -21.914  -4.030 -11.897  0.00  0.00     0.180 A 
HETATM   28  N           1     -21.595  -3.624 -10.691  0.00  0.00    -0.354 N 
ATOM     29  HN          1     -20.788  -3.061 -10.420  1.00  0.00     0.166 HD
ENDBRANCH  22  23
ENDBRANCH  18  22
ENDBRANCH   3  18
TORSDOF 8
ENDMDL
MODEL 6
REMARK VINA RESULT:      -6.2     14.196     16.261
REMARK  8 active torsions:
REMARK  status: ('A' for Active; 'I' for Inactive)
REMARK    1  A    between atoms: C_3  and  C_6 
REMARK    2  A    between atoms: C_6  and  C_7 
REMARK    3  A    between atoms: C_6  and  N_27 
REMARK    4  A    between atoms: C_7  and  C_11 
REMARK    5  A    between atoms: C_8  and  C_29 
REMARK    6  A    between atoms: C_8  and  C_9 
REMARK    7  A    between atoms: N_23  and  C_29 
REMARK       I    between atoms: N_27  and  C_28 
REMARK    8  A    between atoms: C_28  and  C_29 
ROOT
HETATM    1  O           1     -22.854  -6.018  -4.919  0.00  0.00    -0.271 OA
HETATM    2  H           1     -21.320  -5.548  -2.588  0.00  0.00     0.163 HD
HETATM    3  N           1     -21.476  -6.344  -3.192  0.00  0.00    -0.344 N 
HETATM    4  C           1     -21.719  -6.154  -4.526  0.00  0.00     0.249 C 
ENDROOT
BRANCH   4   5
HETATM    5  C           1     -20.572  -6.115  -5.504  0.00  0.00     0.280 C 
BRANCH   5   6
HETATM    6  C           1     -20.291  -4.671  -5.900  0.00  0.00     0.101 C 
BRANCH   6   7
HETATM    7  C           1     -20.987  -4.363  -7.190  0.00  0.00     0.028 A 
HETATM    8  C           1     -20.374  -4.330  -8.420  0.00  0.00     0.114 A 
HETATM    9  N           1     -21.369  -4.014  -9.303  0.00  0.00    -0.360 N 
HETATM   10  C           1     -22.523  -3.871  -8.587  0.00  0.00     0.180 A 
HETATM   11  H           1     -21.264  -3.901 -10.342  0.00  0.00     0.166 HD
HETATM   12  N           1     -22.322  -4.076  -7.305  0.00  0.00    -0.355 N 
ATOM     13  HN          1     -23.012  -4.032  -6.555  1.00  0.00     0.166 HD
ENDBRANCH   6   7
ENDBRANCH   5   6
BRANCH   5  14
HETATM   14  N           1     -20.931  -6.907  -6.726  0.00  0.00    -0.066 N 
HETATM   15  H           1     -20.433  -6.512  -7.557  0.00  0.00     0.275 HD
HETATM   16  H           1     -21.962  -6.859  -6.882  0.00  0.00     0.275 HD
HETATM   17  H           1     -20.644  -7.904  -6.591  0.00  0.00     0.275 HD
ENDBRANCH   5  14
ENDBRANCH   4   5
BRANCH   3  18
HETATM   18  C           1     -21.441  -7.687  -2.646  0.00  0.00     0.191 C 
BRANCH  18  19
HETATM   19  C           1     -21.826  -7.647  -1.188  0.00  0.00     0.197 C 
HETATM   20  O           1     -21.261  -8.406  -0.371  0.00  0.00    -0.646 OA
HETATM   21  O           1     -22.709  -6.854  -0.796  0.00  0.00    -0.646 OA
ENDBRANCH  18  19
BRANCH  18  22
HETATM   22  C           1     -20.034  -8.254  -2.784  0.00  0.00     0.094 C 
BRANCH  22  23
HETATM   23  C           1     -19.979  -9.172  -3.966  0.00  0.00     0.028 A 
HETATM   24  C           1     -18.872  -9.355  -4.762  0.00  0.00     0.114 A 
HETATM   25  N           1     -19.262 -10.264  -5.706  0.00  0.00    -0.360 N 
HETATM   26  H           1     -18.670 -10.644  -6.485  0.00  0.00     0.166 HD
HETATM   27  C           1     -20.564 -10.591  -5.448  0.00  0.00     0.180 A 
HETATM   28  N           1     -21.023  -9.945  -4.402  0.00  0.00    -0.354 N 
ATOM     29  HN          1     -21.958 -10.006  -3.998  1.00  0.00     0.166 HD
ENDBRANCH  22  23
ENDBRANCH  18  22
ENDBRANCH   3  18
TORSDOF 8
ENDMDL
MODEL 7
REMARK VINA RESULT:      -6.2     12.755     14.414
REMARK  8 active torsions:
REMARK  status: ('A' for Active; 'I' for Inactive)
REMARK    1  A    between atoms: C_3  and  C_6 
REMARK    2  A    between atoms: C_6  and  C_7 
REMARK    3  A    between atoms: C_6  and  N_27 
REMARK    4  A    between atoms: C_7  and  C_11 
REMARK    5  A    between atoms: C_8  and  C_29 
REMARK    6  A    between atoms: C_8  and  C_9 
REMARK    7  A    between atoms: N_23  and  C_29 
REMARK       I    between atoms: N_27  and  C_28 
REMARK    8  A    between atoms: C_28  and  C_29 
ROOT
HETATM    1  O           1     -20.650  -4.124  -6.444  0.00  0.00    -0.271 OA
HETATM    2  H           1     -19.684  -6.663  -7.238  0.00  0.00     0.163 HD
HETATM    3  N           1     -20.546  -6.321  -6.833  0.00  0.00    -0.344 N 
HETATM    4  C           1     -20.988  -5.060  -7.130  0.00  0.00     0.249 C 
ENDROOT
BRANCH   4   5
HETATM    5  C           1     -21.899  -4.838  -8.312  0.00  0.00     0.280 C 
BRANCH   5   6
HETATM    6  C           1     -21.116  -4.180  -9.440  0.00  0.00     0.101 C 
BRANCH   6   7
HETATM    7  C           1     -22.018  -3.967 -10.617  0.00  0.00     0.028 A 
HETATM    8  C           1     -21.918  -2.918 -11.498  0.00  0.00     0.114 A 
HETATM    9  N           1     -22.924  -3.117 -12.402  0.00  0.00    -0.360 N 
HETATM   10  C           1     -23.582  -4.259 -12.039  0.00  0.00     0.180 A 
HETATM   11  H           1     -23.150  -2.505 -13.224  0.00  0.00     0.166 HD
HETATM   12  N           1     -23.055  -4.794 -10.962  0.00  0.00    -0.355 N 
ATOM     13  HN          1     -23.354  -5.645 -10.484  1.00  0.00     0.166 HD
ENDBRANCH   6   7
ENDBRANCH   5   6
BRANCH   5  14
HETATM   14  N           1     -23.036  -3.947  -7.907  0.00  0.00    -0.066 N 
HETATM   15  H           1     -23.939  -4.461  -8.021  0.00  0.00     0.275 HD
HETATM   16  H           1     -23.040  -3.094  -8.509  0.00  0.00     0.275 HD
HETATM   17  H           1     -22.919  -3.669  -6.906  0.00  0.00     0.275 HD
ENDBRANCH   5  14
ENDBRANCH   4   5
BRANCH   3  18
HETATM   18  C           1     -21.313  -7.165  -5.938  0.00  0.00     0.191 C 
BRANCH  18  19
HETATM   19  C           1     -22.091  -6.301  -4.976  0.00  0.00     0.197 C 
HETATM   20  O           1     -21.563  -5.920  -3.909  0.00  0.00    -0.646 OA
HETATM   21  O           1     -23.265  -5.966  -5.245  0.00  0.00    -0.646 OA
ENDBRANCH  18  19
BRANCH  18  22
HETATM   22  C           1     -20.366  -8.068  -5.157  0.00  0.00     0.094 C 
BRANCH  22  23
HETATM   23  C           1     -20.950  -9.443  -5.065  0.00  0.00     0.028 A 
HETATM   24  C           1     -21.698  -9.905  -4.008  0.00  0.00     0.114 A 
HETATM   25  N           1     -22.020 -11.192  -4.339  0.00  0.00    -0.360 N 
HETATM   26  H           1     -22.590 -11.858  -3.761  0.00  0.00     0.166 HD
HETATM   27  C           1     -21.465 -11.454  -5.560  0.00  0.00     0.180 A 
HETATM   28  N           1     -20.812 -10.414  -6.023  0.00  0.00    -0.354 N 
ATOM     29  HN          1     -20.309 -10.343  -6.907  1.00  0.00     0.166 HD
ENDBRANCH  22  23
ENDBRANCH  18  22
ENDBRANCH   3  18
TORSDOF 8
ENDMDL
MODEL 8
REMARK VINA RESULT:      -6.2     25.293     26.559
REMARK  8 active torsions:
REMARK  status: ('A' for Active; 'I' for Inactive)
REMARK    1  A    between atoms: C_3  and  C_6 
REMARK    2  A    between atoms: C_6  and  C_7 
REMARK    3  A    between atoms: C_6  and  N_27 
REMARK    4  A    between atoms: C_7  and  C_11 
REMARK    5  A    between atoms: C_8  and  C_29 
REMARK    6  A    between atoms: C_8  and  C_9 
REMARK    7  A    between atoms: N_23  and  C_29 
REMARK       I    between atoms: N_27  and  C_28 
REMARK    8  A    between atoms: C_28  and  C_29 
ROOT
HETATM    1  O           1     -10.272   8.071 -18.798  0.00  0.00    -0.271 OA
HETATM    2  H           1      -9.199   6.582 -20.953  0.00  0.00     0.163 HD
HETATM    3  N           1     -10.123   6.906 -20.698  0.00  0.00    -0.344 N 
HETATM    4  C           1     -10.272   8.078 -20.007  0.00  0.00     0.249 C 
ENDROOT
BRANCH   4   5
HETATM    5  C           1     -10.435   9.379 -20.753  0.00  0.00     0.280 C 
BRANCH   5   6
HETATM    6  C           1     -11.871   9.506 -21.245  0.00  0.00     0.101 C 
BRANCH   6   7
HETATM    7  C           1     -12.732  10.036 -20.141  0.00  0.00     0.028 A 
HETATM    8  C           1     -13.449  11.207 -20.204  0.00  0.00     0.114 A 
HETATM    9  N           1     -14.082  11.299 -18.995  0.00  0.00    -0.360 N 
HETATM   10  C           1     -13.731  10.201 -18.263  0.00  0.00     0.180 A 
HETATM   11  H           1     -14.722  12.073 -18.687  0.00  0.00     0.166 HD
HETATM   12  N           1     -12.915   9.419 -18.931  0.00  0.00    -0.355 N 
ATOM     13  HN          1     -12.504   8.540 -18.617  1.00  0.00     0.166 HD
ENDBRANCH   6   7
ENDBRANCH   5   6
BRANCH   5  14
HETATM   14  N           1      -9.500   9.403 -21.926  0.00  0.00    -0.066 N 
HETATM   15  H           1      -8.542   9.127 -21.614  0.00  0.00     0.275 HD
HETATM   16  H           1      -9.473  10.365 -22.330  0.00  0.00     0.275 HD
HETATM   17  H           1      -9.837   8.729 -22.652  0.00  0.00     0.275 HD
ENDBRANCH   5  14
ENDBRANCH   4   5
BRANCH   3  18
HETATM   18  C           1     -11.291   6.129 -21.065  0.00  0.00     0.191 C 
BRANCH  18  19
HETATM   19  C           1     -12.161   5.926 -19.848  0.00  0.00     0.197 C 
HETATM   20  O           1     -13.263   6.509 -19.763  0.00  0.00    -0.646 OA
HETATM   21  O           1     -11.780   5.174 -18.926  0.00  0.00    -0.646 OA
ENDBRANCH  18  19
BRANCH  18  22
HETATM   22  C           1     -10.850   4.775 -21.606  0.00  0.00     0.094 C 
BRANCH  22  23
HETATM   23  C           1     -12.049   3.899 -21.797  0.00  0.00     0.028 A 
HETATM   24  C           1     -12.924   3.993 -22.854  0.00  0.00     0.114 A 
HETATM   25  N           1     -13.854   3.016 -22.631  0.00  0.00    -0.360 N 
HETATM   26  H           1     -14.679   2.793 -23.240  0.00  0.00     0.166 HD
HETATM   27  C           1     -13.512   2.380 -21.471  0.00  0.00     0.180 A 
HETATM   28  N           1     -12.424   2.894 -20.945  0.00  0.00    -0.354 N 
ATOM     29  HN          1     -11.958   2.606 -20.085  1.00  0.00     0.166 HD
ENDBRANCH  22  23
ENDBRANCH  18  22
ENDBRANCH   3  18
TORSDOF 8
ENDMDL
MODEL 9
REMARK VINA RESULT:      -6.2      2.382      4.078
REMARK  8 active torsions:
REMARK  status: ('A' for Active; 'I' for Inactive)
REMARK    1  A    between atoms: C_3  and  C_6 
REMARK    2  A    between atoms: C_6  and  C_7 
REMARK    3  A    between atoms: C_6  and  N_27 
REMARK    4  A    between atoms: C_7  and  C_11 
REMARK    5  A    between atoms: C_8  and  C_29 
REMARK    6  A    between atoms: C_8  and  C_9 
REMARK    7  A    between atoms: N_23  and  C_29 
REMARK       I    between atoms: N_27  and  C_28 
REMARK    8  A    between atoms: C_28  and  C_29 
ROOT
HETATM    1  O           1     -34.692   0.462 -12.109  0.00  0.00    -0.271 OA
HETATM    2  H           1     -35.260  -1.730 -13.806  0.00  0.00     0.163 HD
HETATM    3  N           1     -35.291  -1.573 -12.807  0.00  0.00    -0.344 N 
HETATM    4  C           1     -35.582  -0.328 -12.319  0.00  0.00     0.249 C 
ENDROOT
BRANCH   4   5
HETATM    5  C           1     -37.014   0.059 -12.042  0.00  0.00     0.280 C 
BRANCH   5   6
HETATM    6  C           1     -37.501  -0.657 -10.789  0.00  0.00     0.101 C 
BRANCH   6   7
HETATM    7  C           1     -37.259   0.210  -9.592  0.00  0.00     0.028 A 
HETATM    8  C           1     -37.934   1.378  -9.325  0.00  0.00     0.114 A 
HETATM    9  N           1     -37.401   1.833  -8.151  0.00  0.00    -0.360 N 
HETATM   10  C           1     -36.444   0.940  -7.760  0.00  0.00     0.180 A 
HETATM   11  H           1     -37.679   2.709  -7.643  0.00  0.00     0.166 HD
HETATM   12  N           1     -36.336  -0.052  -8.614  0.00  0.00    -0.355 N 
ATOM     13  HN          1     -35.701  -0.849  -8.560  1.00  0.00     0.166 HD
ENDBRANCH   6   7
ENDBRANCH   5   6
BRANCH   5  14
HETATM   14  N           1     -37.872  -0.336 -13.208  0.00  0.00    -0.066 N 
HETATM   15  H           1     -37.312  -0.276 -14.089  0.00  0.00     0.275 HD
HETATM   16  H           1     -38.691   0.309 -13.270  0.00  0.00     0.275 HD
HETATM   17  H           1     -38.208  -1.317 -13.076  0.00  0.00     0.275 HD
ENDBRANCH   5  14
ENDBRANCH   4   5
BRANCH   3  18
HETATM   18  C           1     -35.028  -2.666 -11.892  0.00  0.00     0.191 C 
BRANCH  18  19
HETATM   19  C           1     -33.999  -2.234 -10.876  0.00  0.00     0.197 C 
HETATM   20  O           1     -32.781  -2.316 -11.146  0.00  0.00    -0.646 OA
HETATM   21  O           1     -34.363  -1.794  -9.765  0.00  0.00    -0.646 OA
ENDBRANCH  18  19
BRANCH  18  22
HETATM   22  C           1     -34.499  -3.864 -12.672  0.00  0.00     0.094 C 
BRANCH  22  23
HETATM   23  C           1     -34.563  -5.087 -11.812  0.00  0.00     0.028 A 
HETATM   24  C           1     -35.083  -6.296 -12.210  0.00  0.00     0.114 A 
HETATM   25  N           1     -34.940  -7.117 -11.126  0.00  0.00    -0.360 N 
HETATM   26  H           1     -35.230  -8.124 -11.067  0.00  0.00     0.166 HD
HETATM   27  C           1     -34.349  -6.388 -10.133  0.00  0.00     0.180 A 
HETATM   28  N           1     -34.110  -5.157 -10.520  0.00  0.00    -0.354 N 
ATOM     29  HN          1     -33.678  -4.410  -9.975  1.00  0.00     0.166 HD
ENDBRANCH  22  23
ENDBRANCH  18  22
ENDBRANCH   3  18
TORSDOF 8
ENDMDL
