MODEL 1
REMARK VINA RESULT:      -8.8      0.000      0.000
REMARK  8 active torsions:
REMARK  status: ('A' for Active; 'I' for Inactive)
REMARK       I    between atoms: C_1  and  N_2 
REMARK    1  A    between atoms: C_1  and  C_17 
REMARK    2  A    between atoms: N_2  and  C_20 
REMARK    3  A    between atoms: C_3  and  C_31 
REMARK    4  A    between atoms: C_8  and  C_20 
REMARK    5  A    between atoms: N_10  and  C_17 
REMARK    6  A    between atoms: C_17  and  C_31 
REMARK    7  A    between atoms: C_18  and  C_19 
REMARK    8  A    between atoms: C_19  and  C_20 
ROOT
HETATM    1  C           1     -20.185  -5.775  -6.382  0.00  0.00     0.249 C 
HETATM    2  N           1     -19.725  -7.064  -6.400  0.00  0.00    -0.344 N 
HETATM    3  H           1     -19.294  -7.436  -7.237  0.00  0.00     0.163 HD
HETATM    4  O           1     -19.453  -4.877  -6.037  0.00  0.00    -0.271 OA
ENDROOT
BRANCH   2   5
HETATM    5  C           1     -19.858  -7.897  -5.221  0.00  0.00     0.190 C 
BRANCH   5   6
HETATM    6  C           1     -18.740  -8.909  -5.192  0.00  0.00     0.197 C 
HETATM    7  O           1     -18.324  -9.412  -6.259  0.00  0.00    -0.646 OA
HETATM    8  O           1     -18.227  -9.244  -4.103  0.00  0.00    -0.646 OA
ENDBRANCH   5   6
BRANCH   5   9
HETATM    9  C           1     -21.198  -8.621  -5.260  0.00  0.00     0.077 C 
BRANCH   9  10
HETATM   10  C           1     -21.508  -9.173  -3.904  0.00  0.00    -0.028 A 
HETATM   11  C           1     -21.778  -8.414  -2.731  0.00  0.00    -0.002 A 
HETATM   12  C           1     -21.844  -7.037  -2.449  0.00  0.00     0.014 A 
HETATM   13  C           1     -22.013  -9.323  -1.699  0.00  0.00     0.042 A 
HETATM   14  C           1     -22.142  -6.617  -1.147  0.00  0.00     0.001 A 
HETATM   15  C           1     -22.373  -7.548  -0.136  0.00  0.00     0.002 A 
HETATM   16  C           1     -22.313  -8.921  -0.392  0.00  0.00     0.030 A 
HETATM   17  N           1     -21.888 -10.585  -2.235  0.00  0.00    -0.365 N 
HETATM   18  H           1     -22.009 -11.480  -1.700  0.00  0.00     0.165 HD
HETATM   19  C           1     -21.582 -10.506  -3.568  0.00  0.00     0.096 A 
ENDBRANCH   9  10
ENDBRANCH   5   9
ENDBRANCH   2   5
BRANCH   1  20
HETATM   20  C           1     -21.606  -5.474  -6.794  0.00  0.00     0.278 C 
BRANCH  20  21
HETATM   21  N           1     -22.503  -5.574  -5.596  0.00  0.00    -0.066 N 
HETATM   22  H           1     -23.204  -4.800  -5.621  0.00  0.00     0.275 HD
HETATM   23  H           1     -23.000  -6.493  -5.610  0.00  0.00     0.275 HD
HETATM   24  H           1     -21.931  -5.499  -4.725  0.00  0.00     0.275 HD
ENDBRANCH  20  21
BRANCH  20  25
HETATM   25  C           1     -21.681  -4.065  -7.367  0.00  0.00     0.081 C 
BRANCH  25  26
HETATM   26  C           1     -21.695  -4.134  -8.863  0.00  0.00    -0.056 A 
HETATM   27  C           1     -20.497  -4.095  -9.575  0.00  0.00     0.007 A 
HETATM   28  C           1     -20.511  -4.159 -10.968  0.00  0.00     0.001 A 
HETATM   29  C           1     -21.724  -4.264 -11.649  0.00  0.00     0.000 A 
HETATM   30  C           1     -22.923  -4.304 -10.937  0.00  0.00     0.001 A 
HETATM   31  C           1     -22.908  -4.239  -9.544  0.00  0.00     0.007 A 
ENDBRANCH  25  26
ENDBRANCH  20  25
ENDBRANCH   1  20
TORSDOF 8
ENDMDL
MODEL 2
REMARK VINA RESULT:      -8.7      1.431      2.016
REMARK  8 active torsions:
REMARK  status: ('A' for Active; 'I' for Inactive)
REMARK       I    between atoms: C_1  and  N_2 
REMARK    1  A    between atoms: C_1  and  C_17 
REMARK    2  A    between atoms: N_2  and  C_20 
REMARK    3  A    between atoms: C_3  and  C_31 
REMARK    4  A    between atoms: C_8  and  C_20 
REMARK    5  A    between atoms: N_10  and  C_17 
REMARK    6  A    between atoms: C_17  and  C_31 
REMARK    7  A    between atoms: C_18  and  C_19 
REMARK    8  A    between atoms: C_19  and  C_20 
ROOT
HETATM    1  C           1     -20.129  -6.415  -6.754  0.00  0.00     0.249 C 
HETATM    2  N           1     -20.799  -7.462  -6.181  0.00  0.00    -0.344 N 
HETATM    3  H           1     -21.525  -7.941  -6.698  0.00  0.00     0.163 HD
HETATM    4  O           1     -19.121  -6.618  -7.389  0.00  0.00    -0.271 OA
ENDROOT
BRANCH   2   5
HETATM    5  C           1     -20.469  -7.883  -4.833  0.00  0.00     0.190 C 
BRANCH   5   6
HETATM    6  C           1     -19.409  -8.956  -4.888  0.00  0.00     0.197 C 
HETATM    7  O           1     -19.409  -9.788  -5.821  0.00  0.00    -0.646 OA
HETATM    8  O           1     -18.531  -9.013  -4.001  0.00  0.00    -0.646 OA
ENDBRANCH   5   6
BRANCH   5   9
HETATM    9  C           1     -21.716  -8.435  -4.155  0.00  0.00     0.077 C 
BRANCH   9  10
HETATM   10  C           1     -21.822  -7.875  -2.771  0.00  0.00    -0.028 A 
HETATM   11  C           1     -21.538  -8.569  -1.562  0.00  0.00    -0.002 A 
HETATM   12  C           1     -21.108  -9.875  -1.259  0.00  0.00     0.014 A 
HETATM   13  C           1     -21.767  -7.678  -0.514  0.00  0.00     0.042 A 
HETATM   14  C           1     -20.923 -10.242   0.079  0.00  0.00     0.001 A 
HETATM   15  C           1     -21.159  -9.331   1.106  0.00  0.00     0.002 A 
HETATM   16  C           1     -21.586  -8.028   0.830  0.00  0.00     0.030 A 
HETATM   17  N           1     -22.174  -6.489  -1.075  0.00  0.00    -0.365 N 
HETATM   18  H           1     -22.421  -5.622  -0.536  0.00  0.00     0.165 HD
HETATM   19  C           1     -22.210  -6.597  -2.440  0.00  0.00     0.096 A 
ENDBRANCH   9  10
ENDBRANCH   5   9
ENDBRANCH   2   5
BRANCH   1  20
HETATM   20  C           1     -20.648  -5.007  -6.592  0.00  0.00     0.278 C 
BRANCH  20  21
HETATM   21  N           1     -20.214  -4.465  -5.263  0.00  0.00    -0.066 N 
HETATM   22  H           1     -20.095  -3.429  -5.332  0.00  0.00     0.275 HD
HETATM   23  H           1     -20.939  -4.684  -4.544  0.00  0.00     0.275 HD
HETATM   24  H           1     -19.306  -4.903  -4.988  0.00  0.00     0.275 HD
ENDBRANCH  20  21
BRANCH  20  25
HETATM   25  C           1     -20.091  -4.130  -7.705  0.00  0.00     0.081 C 
BRANCH  25  26
HETATM   26  C           1     -20.997  -4.195  -8.895  0.00  0.00    -0.056 A 
HETATM   27  C           1     -20.458  -4.262 -10.180  0.00  0.00     0.007 A 
HETATM   28  C           1     -21.302  -4.322 -11.288  0.00  0.00     0.001 A 
HETATM   29  C           1     -22.686  -4.319 -11.112  0.00  0.00     0.000 A 
HETATM   30  C           1     -23.226  -4.253  -9.827  0.00  0.00     0.001 A 
HETATM   31  C           1     -22.381  -4.192  -8.719  0.00  0.00     0.007 A 
ENDBRANCH  25  26
ENDBRANCH  20  25
ENDBRANCH   1  20
TORSDOF 8
ENDMDL
MODEL 3
REMARK VINA RESULT:      -8.6      1.707      8.380
REMARK  8 active torsions:
REMARK  status: ('A' for Active; 'I' for Inactive)
REMARK       I    between atoms: C_1  and  N_2 
REMARK    1  A    between atoms: C_1  and  C_17 
REMARK    2  A    between atoms: N_2  and  C_20 
REMARK    3  A    between atoms: C_3  and  C_31 
REMARK    4  A    between atoms: C_8  and  C_20 
REMARK    5  A    between atoms: N_10  and  C_17 
REMARK    6  A    between atoms: C_17  and  C_31 
REMARK    7  A    between atoms: C_18  and  C_19 
REMARK    8  A    between atoms: C_19  and  C_20 
ROOT
HETATM    1  C           1     -21.707  -6.288  -4.563  0.00  0.00     0.249 C 
HETATM    2  N           1     -22.293  -5.714  -5.659  0.00  0.00    -0.344 N 
HETATM    3  H           1     -23.266  -5.436  -5.624  0.00  0.00     0.163 HD
HETATM    4  O           1     -21.165  -5.595  -3.735  0.00  0.00    -0.271 OA
ENDROOT
BRANCH   2   5
HETATM    5  C           1     -21.521  -5.506  -6.868  0.00  0.00     0.190 C 
BRANCH   5   6
HETATM    6  C           1     -20.050  -5.603  -6.547  0.00  0.00     0.197 C 
HETATM    7  O           1     -19.457  -4.632  -6.029  0.00  0.00    -0.646 OA
HETATM    8  O           1     -19.423  -6.654  -6.799  0.00  0.00    -0.646 OA
ENDBRANCH   5   6
BRANCH   5   9
HETATM    9  C           1     -21.828  -4.125  -7.434  0.00  0.00     0.077 C 
BRANCH   9  10
HETATM   10  C           1     -21.516  -4.104  -8.897  0.00  0.00    -0.028 A 
HETATM   11  C           1     -22.433  -3.817  -9.946  0.00  0.00    -0.002 A 
HETATM   12  C           1     -23.801  -3.490  -9.989  0.00  0.00     0.014 A 
HETATM   13  C           1     -21.726  -3.907 -11.145  0.00  0.00     0.042 A 
HETATM   14  C           1     -24.414  -3.265 -11.227  0.00  0.00     0.001 A 
HETATM   15  C           1     -23.683  -3.361 -12.410  0.00  0.00     0.002 A 
HETATM   16  C           1     -22.323  -3.684 -12.393  0.00  0.00     0.030 A 
HETATM   17  N           1     -20.428  -4.237 -10.826  0.00  0.00    -0.365 N 
HETATM   18  H           1     -19.654  -4.375 -11.523  0.00  0.00     0.165 HD
HETATM   19  C           1     -20.290  -4.358  -9.469  0.00  0.00     0.096 A 
ENDBRANCH   9  10
ENDBRANCH   5   9
ENDBRANCH   2   5
BRANCH   1  20
HETATM   20  C           1     -21.738  -7.788  -4.389  0.00  0.00     0.278 C 
BRANCH  20  21
HETATM   21  N           1     -21.277  -8.446  -5.655  0.00  0.00    -0.066 N 
HETATM   22  H           1     -20.351  -8.051  -5.936  0.00  0.00     0.275 HD
HETATM   23  H           1     -21.182  -9.474  -5.499  0.00  0.00     0.275 HD
HETATM   24  H           1     -21.974  -8.270  -6.413  0.00  0.00     0.275 HD
ENDBRANCH  20  21
BRANCH  20  25
HETATM   25  C           1     -20.816  -8.185  -3.245  0.00  0.00     0.081 C 
BRANCH  25  26
HETATM   26  C           1     -21.634  -8.529  -2.039  0.00  0.00    -0.056 A 
HETATM   27  C           1     -22.105  -9.830  -1.862  0.00  0.00     0.007 A 
HETATM   28  C           1     -22.868 -10.149  -0.739  0.00  0.00     0.001 A 
HETATM   29  C           1     -23.158  -9.168   0.208  0.00  0.00     0.000 A 
HETATM   30  C           1     -22.687  -7.867   0.033  0.00  0.00     0.001 A 
HETATM   31  C           1     -21.924  -7.547  -1.091  0.00  0.00     0.007 A 
ENDBRANCH  25  26
ENDBRANCH  20  25
ENDBRANCH   1  20
TORSDOF 8
ENDMDL
MODEL 4
REMARK VINA RESULT:      -8.6      1.698      2.218
REMARK  8 active torsions:
REMARK  status: ('A' for Active; 'I' for Inactive)
REMARK       I    between atoms: C_1  and  N_2 
REMARK    1  A    between atoms: C_1  and  C_17 
REMARK    2  A    between atoms: N_2  and  C_20 
REMARK    3  A    between atoms: C_3  and  C_31 
REMARK    4  A    between atoms: C_8  and  C_20 
REMARK    5  A    between atoms: N_10  and  C_17 
REMARK    6  A    between atoms: C_17  and  C_31 
REMARK    7  A    between atoms: C_18  and  C_19 
REMARK    8  A    between atoms: C_19  and  C_20 
ROOT
HETATM    1  C           1     -20.309  -5.516  -6.927  0.00  0.00     0.249 C 
HETATM    2  N           1     -20.355  -6.864  -6.691  0.00  0.00    -0.344 N 
HETATM    3  H           1     -19.819  -7.497  -7.271  0.00  0.00     0.163 HD
HETATM    4  O           1     -19.477  -4.834  -6.376  0.00  0.00    -0.271 OA
ENDROOT
BRANCH   2   5
HETATM    5  C           1     -21.171  -7.383  -5.611  0.00  0.00     0.190 C 
BRANCH   5   6
HETATM    6  C           1     -21.901  -6.245  -4.942  0.00  0.00     0.197 C 
HETATM    7  O           1     -21.343  -5.592  -4.033  0.00  0.00    -0.646 OA
HETATM    8  O           1     -23.064  -5.954  -5.295  0.00  0.00    -0.646 OA
ENDBRANCH   5   6
BRANCH   5   9
HETATM    9  C           1     -20.280  -8.084  -4.594  0.00  0.00     0.077 C 
BRANCH   9  10
HETATM   10  C           1     -21.106  -9.017  -3.765  0.00  0.00    -0.028 A 
HETATM   11  C           1     -21.497  -8.814  -2.412  0.00  0.00    -0.002 A 
HETATM   12  C           1     -21.277  -7.790  -1.473  0.00  0.00     0.014 A 
HETATM   13  C           1     -22.253  -9.923  -2.033  0.00  0.00     0.042 A 
HETATM   14  C           1     -21.821  -7.910  -0.188  0.00  0.00     0.001 A 
HETATM   15  C           1     -22.572  -9.030   0.164  0.00  0.00     0.002 A 
HETATM   16  C           1     -22.804 -10.060  -0.753  0.00  0.00     0.030 A 
HETATM   17  N           1     -22.314 -10.763  -3.121  0.00  0.00    -0.365 N 
HETATM   18  H           1     -22.817 -11.685  -3.142  0.00  0.00     0.165 HD
HETATM   19  C           1     -21.623 -10.225  -4.175  0.00  0.00     0.096 A 
ENDBRANCH   9  10
ENDBRANCH   5   9
ENDBRANCH   2   5
BRANCH   1  20
HETATM   20  C           1     -21.297  -4.882  -7.876  0.00  0.00     0.278 C 
BRANCH  20  21
HETATM   21  N           1     -21.850  -3.632  -7.257  0.00  0.00    -0.066 N 
HETATM   22  H           1     -21.215  -2.829  -7.469  0.00  0.00     0.275 HD
HETATM   23  H           1     -22.798  -3.439  -7.650  0.00  0.00     0.275 HD
HETATM   24  H           1     -21.919  -3.758  -6.222  0.00  0.00     0.275 HD
ENDBRANCH  20  21
BRANCH  20  25
HETATM   25  C           1     -20.595  -4.534  -9.182  0.00  0.00     0.081 C 
BRANCH  25  26
HETATM   26  C           1     -21.617  -4.206 -10.226  0.00  0.00    -0.056 A 
HETATM   27  C           1     -21.299  -3.328 -11.262  0.00  0.00     0.007 A 
HETATM   28  C           1     -22.251  -3.022 -12.234  0.00  0.00     0.001 A 
HETATM   29  C           1     -23.521  -3.595 -12.171  0.00  0.00     0.000 A 
HETATM   30  C           1     -23.839  -4.474 -11.136  0.00  0.00     0.001 A 
HETATM   31  C           1     -22.887  -4.780 -10.163  0.00  0.00     0.007 A 
ENDBRANCH  25  26
ENDBRANCH  20  25
ENDBRANCH   1  20
TORSDOF 8
ENDMDL
MODEL 5
REMARK VINA RESULT:      -8.4      2.066      8.149
REMARK  8 active torsions:
REMARK  status: ('A' for Active; 'I' for Inactive)
REMARK       I    between atoms: C_1  and  N_2 
REMARK    1  A    between atoms: C_1  and  C_17 
REMARK    2  A    between atoms: N_2  and  C_20 
REMARK    3  A    between atoms: C_3  and  C_31 
REMARK    4  A    between atoms: C_8  and  C_20 
REMARK    5  A    between atoms: N_10  and  C_17 
REMARK    6  A    between atoms: C_17  and  C_31 
REMARK    7  A    between atoms: C_18  and  C_19 
REMARK    8  A    between atoms: C_19  and  C_20 
ROOT
HETATM    1  C           1     -21.969  -6.640  -2.766  0.00  0.00     0.249 C 
HETATM    2  N           1     -22.560  -6.688  -4.000  0.00  0.00    -0.344 N 
HETATM    3  H           1     -23.567  -6.765  -4.075  0.00  0.00     0.163 HD
HETATM    4  O           1     -21.787  -5.575  -2.225  0.00  0.00    -0.271 OA
ENDROOT
BRANCH   2   5
HETATM    5  C           1     -21.745  -6.631  -5.197  0.00  0.00     0.190 C 
BRANCH   5   6
HETATM    6  C           1     -20.888  -7.870  -5.281  0.00  0.00     0.197 C 
HETATM    7  O           1     -19.677  -7.815  -4.973  0.00  0.00    -0.646 OA
HETATM    8  O           1     -21.388  -8.952  -5.657  0.00  0.00    -0.646 OA
ENDBRANCH   5   6
BRANCH   5   9
HETATM    9  C           1     -20.853  -5.398  -5.144  0.00  0.00     0.077 C 
BRANCH   9  10
HETATM   10  C           1     -20.549  -4.940  -6.536  0.00  0.00    -0.028 A 
HETATM   11  C           1     -21.502  -4.554  -7.519  0.00  0.00    -0.002 A 
HETATM   12  C           1     -22.907  -4.471  -7.542  0.00  0.00     0.014 A 
HETATM   13  C           1     -20.790  -4.202  -8.666  0.00  0.00     0.042 A 
HETATM   14  C           1     -23.550  -4.040  -8.709  0.00  0.00     0.001 A 
HETATM   15  C           1     -22.813  -3.695  -9.840  0.00  0.00     0.002 A 
HETATM   16  C           1     -21.417  -3.769  -9.841  0.00  0.00     0.030 A 
HETATM   17  N           1     -19.454  -4.372  -8.381  0.00  0.00    -0.365 N 
HETATM   18  H           1     -18.668  -4.186  -9.052  0.00  0.00     0.165 HD
HETATM   19  C           1     -19.297  -4.818  -7.095  0.00  0.00     0.096 A 
ENDBRANCH   9  10
ENDBRANCH   5   9
ENDBRANCH   2   5
BRANCH   1  20
HETATM   20  C           1     -21.544  -7.916  -2.081  0.00  0.00     0.278 C 
BRANCH  20  21
HETATM   21  N           1     -20.050  -7.939  -1.952  0.00  0.00    -0.066 N 
HETATM   22  H           1     -19.775  -7.547  -1.022  0.00  0.00     0.275 HD
HETATM   23  H           1     -19.708  -8.923  -2.029  0.00  0.00     0.275 HD
HETATM   24  H           1     -19.626  -7.361  -2.712  0.00  0.00     0.275 HD
ENDBRANCH  20  21
BRANCH  20  25
HETATM   25  C           1     -22.175  -7.984  -0.697  0.00  0.00     0.081 C 
BRANCH  25  26
HETATM   26  C           1     -22.264  -9.413  -0.258  0.00  0.00    -0.056 A 
HETATM   27  C           1     -21.167 -10.028   0.344  0.00  0.00     0.007 A 
HETATM   28  C           1     -21.250 -11.358   0.752  0.00  0.00     0.001 A 
HETATM   29  C           1     -22.433 -12.074   0.561  0.00  0.00     0.000 A 
HETATM   30  C           1     -23.531 -11.459  -0.040  0.00  0.00     0.001 A 
HETATM   31  C           1     -23.447 -10.128  -0.449  0.00  0.00     0.007 A 
ENDBRANCH  25  26
ENDBRANCH  20  25
ENDBRANCH   1  20
TORSDOF 8
ENDMDL
MODEL 6
REMARK VINA RESULT:      -8.3      1.629      2.069
REMARK  8 active torsions:
REMARK  status: ('A' for Active; 'I' for Inactive)
REMARK       I    between atoms: C_1  and  N_2 
REMARK    1  A    between atoms: C_1  and  C_17 
REMARK    2  A    between atoms: N_2  and  C_20 
REMARK    3  A    between atoms: C_3  and  C_31 
REMARK    4  A    between atoms: C_8  and  C_20 
REMARK    5  A    between atoms: N_10  and  C_17 
REMARK    6  A    between atoms: C_17  and  C_31 
REMARK    7  A    between atoms: C_18  and  C_19 
REMARK    8  A    between atoms: C_19  and  C_20 
ROOT
HETATM    1  C           1     -21.282  -7.524  -5.362  0.00  0.00     0.249 C 
HETATM    2  N           1     -20.815  -8.425  -4.443  0.00  0.00    -0.344 N 
HETATM    3  H           1     -21.466  -8.974  -3.897  0.00  0.00     0.163 HD
HETATM    4  O           1     -21.477  -7.870  -6.503  0.00  0.00    -0.271 OA
ENDROOT
BRANCH   2   5
HETATM    5  C           1     -19.387  -8.592  -4.253  0.00  0.00     0.190 C 
BRANCH   5   6
HETATM    6  C           1     -18.861  -9.591  -5.253  0.00  0.00     0.197 C 
HETATM    7  O           1     -19.641 -10.404  -5.796  0.00  0.00    -0.646 OA
HETATM    8  O           1     -17.645  -9.607  -5.542  0.00  0.00    -0.646 OA
ENDBRANCH   5   6
BRANCH   5   9
HETATM    9  C           1     -19.120  -9.097  -2.841  0.00  0.00     0.077 C 
BRANCH   9  10
HETATM   10  C           1     -20.356  -9.743  -2.299  0.00  0.00    -0.028 A 
HETATM   11  C           1     -21.247  -9.179  -1.345  0.00  0.00    -0.002 A 
HETATM   12  C           1     -21.290  -7.957  -0.646  0.00  0.00     0.014 A 
HETATM   13  C           1     -22.258 -10.115  -1.123  0.00  0.00     0.042 A 
HETATM   14  C           1     -22.340  -7.715   0.248  0.00  0.00     0.001 A 
HETATM   15  C           1     -23.336  -8.668   0.449  0.00  0.00     0.002 A 
HETATM   16  C           1     -23.315  -9.888  -0.233  0.00  0.00     0.030 A 
HETATM   17  N           1     -21.982 -11.204  -1.918  0.00  0.00    -0.365 N 
HETATM   18  H           1     -22.567 -12.075  -1.969  0.00  0.00     0.165 HD
HETATM   19  C           1     -20.833 -10.990  -2.633  0.00  0.00     0.096 A 
ENDBRANCH   9  10
ENDBRANCH   5   9
ENDBRANCH   2   5
BRANCH   1  20
HETATM   20  C           1     -21.553  -6.097  -4.949  0.00  0.00     0.278 C 
BRANCH  20  21
HETATM   21  N           1     -21.584  -6.008  -3.453  0.00  0.00    -0.066 N 
HETATM   22  H           1     -22.535  -5.705  -3.142  0.00  0.00     0.275 HD
HETATM   23  H           1     -21.368  -6.944  -3.043  0.00  0.00     0.275 HD
HETATM   24  H           1     -20.875  -5.313  -3.130  0.00  0.00     0.275 HD
ENDBRANCH  20  21
BRANCH  20  25
HETATM   25  C           1     -20.451  -5.195  -5.488  0.00  0.00     0.081 C 
BRANCH  25  26
HETATM   26  C           1     -20.782  -4.784  -6.890  0.00  0.00    -0.056 A 
HETATM   27  C           1     -19.811  -4.865  -7.888  0.00  0.00     0.007 A 
HETATM   28  C           1     -20.119  -4.482  -9.193  0.00  0.00     0.001 A 
HETATM   29  C           1     -21.399  -4.020  -9.500  0.00  0.00     0.000 A 
HETATM   30  C           1     -22.371  -3.939  -8.502  0.00  0.00     0.001 A 
HETATM   31  C           1     -22.062  -4.322  -7.197  0.00  0.00     0.007 A 
ENDBRANCH  25  26
ENDBRANCH  20  25
ENDBRANCH   1  20
TORSDOF 8
ENDMDL
MODEL 7
REMARK VINA RESULT:      -8.2      1.783      7.946
REMARK  8 active torsions:
REMARK  status: ('A' for Active; 'I' for Inactive)
REMARK       I    between atoms: C_1  and  N_2 
REMARK    1  A    between atoms: C_1  and  C_17 
REMARK    2  A    between atoms: N_2  and  C_20 
REMARK    3  A    between atoms: C_3  and  C_31 
REMARK    4  A    between atoms: C_8  and  C_20 
REMARK    5  A    between atoms: N_10  and  C_17 
REMARK    6  A    between atoms: C_17  and  C_31 
REMARK    7  A    between atoms: C_18  and  C_19 
REMARK    8  A    between atoms: C_19  and  C_20 
ROOT
HETATM    1  C           1     -22.278  -6.522  -4.700  0.00  0.00     0.249 C 
HETATM    2  N           1     -21.675  -7.084  -5.792  0.00  0.00    -0.344 N 
HETATM    3  H           1     -21.630  -8.091  -5.883  0.00  0.00     0.163 HD
HETATM    4  O           1     -23.460  -6.268  -4.726  0.00  0.00    -0.271 OA
ENDROOT
BRANCH   2   5
HETATM    5  C           1     -21.100  -6.237  -6.819  0.00  0.00     0.190 C 
BRANCH   5   6
HETATM    6  C           1     -19.595  -6.315  -6.749  0.00  0.00     0.197 C 
HETATM    7  O           1     -18.908  -5.278  -6.883  0.00  0.00    -0.646 OA
HETATM    8  O           1     -19.034  -7.415  -6.557  0.00  0.00    -0.646 OA
ENDBRANCH   5   6
BRANCH   5   9
HETATM    9  C           1     -21.546  -4.797  -6.597  0.00  0.00     0.077 C 
BRANCH   9  10
HETATM   10  C           1     -22.399  -4.356  -7.744  0.00  0.00    -0.028 A 
HETATM   11  C           1     -21.947  -4.050  -9.058  0.00  0.00    -0.002 A 
HETATM   12  C           1     -20.687  -4.050  -9.684  0.00  0.00     0.014 A 
HETATM   13  C           1     -23.068  -3.683  -9.803  0.00  0.00     0.042 A 
HETATM   14  C           1     -20.592  -3.685 -11.032  0.00  0.00     0.001 A 
HETATM   15  C           1     -21.728  -3.323 -11.753  0.00  0.00     0.002 A 
HETATM   16  C           1     -22.991  -3.315 -11.152  0.00  0.00     0.030 A 
HETATM   17  N           1     -24.156  -3.766  -8.964  0.00  0.00    -0.365 N 
HETATM   18  H           1     -25.146  -3.549  -9.241  0.00  0.00     0.165 HD
HETATM   19  C           1     -23.763  -4.172  -7.717  0.00  0.00     0.096 A 
ENDBRANCH   9  10
ENDBRANCH   5   9
ENDBRANCH   2   5
BRANCH   1  20
HETATM   20  C           1     -21.468  -6.218  -3.463  0.00  0.00     0.278 C 
BRANCH  20  21
HETATM   21  N           1     -22.394  -5.900  -2.327  0.00  0.00    -0.066 N 
HETATM   22  H           1     -23.338  -6.302  -2.524  0.00  0.00     0.275 HD
HETATM   23  H           1     -22.018  -6.313  -1.444  0.00  0.00     0.275 HD
HETATM   24  H           1     -22.473  -4.863  -2.221  0.00  0.00     0.275 HD
ENDBRANCH  20  21
BRANCH  20  25
HETATM   25  C           1     -20.619  -7.429  -3.102  0.00  0.00     0.081 C 
BRANCH  25  26
HETATM   26  C           1     -21.334  -8.254  -2.077  0.00  0.00    -0.056 A 
HETATM   27  C           1     -21.373  -7.836  -0.748  0.00  0.00     0.007 A 
HETATM   28  C           1     -22.039  -8.605   0.207  0.00  0.00     0.001 A 
HETATM   29  C           1     -22.668  -9.791  -0.170  0.00  0.00     0.000 A 
HETATM   30  C           1     -22.630 -10.210  -1.500  0.00  0.00     0.001 A 
HETATM   31  C           1     -21.964  -9.441  -2.454  0.00  0.00     0.007 A 
ENDBRANCH  25  26
ENDBRANCH  20  25
ENDBRANCH   1  20
TORSDOF 8
ENDMDL
MODEL 8
REMARK VINA RESULT:      -8.0      2.143      7.732
REMARK  8 active torsions:
REMARK  status: ('A' for Active; 'I' for Inactive)
REMARK       I    between atoms: C_1  and  N_2 
REMARK    1  A    between atoms: C_1  and  C_17 
REMARK    2  A    between atoms: N_2  and  C_20 
REMARK    3  A    between atoms: C_3  and  C_31 
REMARK    4  A    between atoms: C_8  and  C_20 
REMARK    5  A    between atoms: N_10  and  C_17 
REMARK    6  A    between atoms: C_17  and  C_31 
REMARK    7  A    between atoms: C_18  and  C_19 
REMARK    8  A    between atoms: C_19  and  C_20 
ROOT
HETATM    1  C           1     -22.134  -6.540  -5.236  0.00  0.00     0.249 C 
HETATM    2  N           1     -21.769  -6.853  -6.518  0.00  0.00    -0.344 N 
HETATM    3  H           1     -21.946  -7.781  -6.881  0.00  0.00     0.163 HD
HETATM    4  O           1     -23.233  -6.088  -5.014  0.00  0.00    -0.271 OA
ENDROOT
BRANCH   2   5
HETATM    5  C           1     -21.129  -5.856  -7.354  0.00  0.00     0.190 C 
BRANCH   5   6
HETATM    6  C           1     -19.663  -5.776  -7.006  0.00  0.00     0.197 C 
HETATM    7  O           1     -19.151  -4.676  -6.704  0.00  0.00    -0.646 OA
HETATM    8  O           1     -18.960  -6.809  -7.020  0.00  0.00    -0.646 OA
ENDBRANCH   5   6
BRANCH   5   9
HETATM    9  C           1     -21.783  -4.501  -7.117  0.00  0.00     0.077 C 
BRANCH   9  10
HETATM   10  C           1     -22.703  -4.185  -8.254  0.00  0.00    -0.028 A 
HETATM   11  C           1     -22.314  -3.850  -9.580  0.00  0.00    -0.002 A 
HETATM   12  C           1     -21.074  -3.709 -10.231  0.00  0.00     0.014 A 
HETATM   13  C           1     -23.484  -3.633 -10.309  0.00  0.00     0.042 A 
HETATM   14  C           1     -21.047  -3.357 -11.586  0.00  0.00     0.001 A 
HETATM   15  C           1     -22.231  -3.147 -12.289  0.00  0.00     0.002 A 
HETATM   16  C           1     -23.475  -3.281 -11.665  0.00  0.00     0.030 A 
HETATM   17  N           1     -24.539  -3.831  -9.448  0.00  0.00    -0.365 N 
HETATM   18  H           1     -25.553  -3.740  -9.709  0.00  0.00     0.165 HD
HETATM   19  C           1     -24.079  -4.166  -8.203  0.00  0.00     0.096 A 
ENDBRANCH   9  10
ENDBRANCH   5   9
ENDBRANCH   2   5
BRANCH   1  20
HETATM   20  C           1     -21.165  -6.759  -4.100  0.00  0.00     0.278 C 
BRANCH  20  21
HETATM   21  N           1     -21.557  -5.897  -2.937  0.00  0.00    -0.066 N 
HETATM   22  H           1     -20.740  -5.788  -2.294  0.00  0.00     0.275 HD
HETATM   23  H           1     -21.854  -4.958  -3.284  0.00  0.00     0.275 HD
HETATM   24  H           1     -22.348  -6.346  -2.422  0.00  0.00     0.275 HD
ENDBRANCH  20  21
BRANCH  20  25
HETATM   25  C           1     -21.195  -8.222  -3.681  0.00  0.00     0.081 C 
BRANCH  25  26
HETATM   26  C           1     -19.828  -8.814  -3.830  0.00  0.00    -0.056 A 
HETATM   27  C           1     -19.397  -9.269  -5.076  0.00  0.00     0.007 A 
HETATM   28  C           1     -18.123  -9.821  -5.214  0.00  0.00     0.001 A 
HETATM   29  C           1     -17.280  -9.915  -4.107  0.00  0.00     0.000 A 
HETATM   30  C           1     -17.711  -9.460  -2.860  0.00  0.00     0.001 A 
HETATM   31  C           1     -18.985  -8.908  -2.722  0.00  0.00     0.007 A 
ENDBRANCH  25  26
ENDBRANCH  20  25
ENDBRANCH   1  20
TORSDOF 8
ENDMDL
MODEL 9
REMARK VINA RESULT:      -7.9      3.935      7.588
REMARK  8 active torsions:
REMARK  status: ('A' for Active; 'I' for Inactive)
REMARK       I    between atoms: C_1  and  N_2 
REMARK    1  A    between atoms: C_1  and  C_17 
REMARK    2  A    between atoms: N_2  and  C_20 
REMARK    3  A    between atoms: C_3  and  C_31 
REMARK    4  A    between atoms: C_8  and  C_20 
REMARK    5  A    between atoms: N_10  and  C_17 
REMARK    6  A    between atoms: C_17  and  C_31 
REMARK    7  A    between atoms: C_18  and  C_19 
REMARK    8  A    between atoms: C_19  and  C_20 
ROOT
HETATM    1  C           1     -20.022 -12.494  -2.308  0.00  0.00     0.249 C 
HETATM    2  N           1     -18.790 -12.067  -1.892  0.00  0.00    -0.344 N 
HETATM    3  H           1     -18.476 -12.268  -0.950  0.00  0.00     0.163 HD
HETATM    4  O           1     -20.142 -13.579  -2.825  0.00  0.00    -0.271 OA
ENDROOT
BRANCH   2   5
HETATM    5  C           1     -17.935 -11.326  -2.798  0.00  0.00     0.190 C 
BRANCH   5   6
HETATM    6  C           1     -16.503 -11.762  -2.607  0.00  0.00     0.197 C 
HETATM    7  O           1     -16.241 -12.960  -2.364  0.00  0.00    -0.646 OA
HETATM    8  O           1     -15.578 -10.926  -2.691  0.00  0.00    -0.646 OA
ENDBRANCH   5   6
BRANCH   5   9
HETATM    9  C           1     -18.056  -9.836  -2.506  0.00  0.00     0.077 C 
BRANCH   9  10
HETATM   10  C           1     -18.865  -9.180  -3.580  0.00  0.00    -0.028 A 
HETATM   11  C           1     -19.933  -8.261  -3.383  0.00  0.00    -0.002 A 
HETATM   12  C           1     -20.545  -7.700  -2.247  0.00  0.00     0.014 A 
HETATM   13  C           1     -20.403  -7.901  -4.646  0.00  0.00     0.042 A 
HETATM   14  C           1     -21.605  -6.800  -2.413  0.00  0.00     0.001 A 
HETATM   15  C           1     -22.054  -6.459  -3.687  0.00  0.00     0.002 A 
HETATM   16  C           1     -21.462  -7.002  -4.831  0.00  0.00     0.030 A 
HETATM   17  N           1     -19.643  -8.582  -5.570  0.00  0.00    -0.365 N 
HETATM   18  H           1     -19.762  -8.516  -6.612  0.00  0.00     0.165 HD
HETATM   19  C           1     -18.710  -9.359  -4.937  0.00  0.00     0.096 A 
ENDBRANCH   9  10
ENDBRANCH   5   9
ENDBRANCH   2   5
BRANCH   1  20
HETATM   20  C           1     -21.230 -11.609  -2.122  0.00  0.00     0.278 C 
BRANCH  20  21
HETATM   21  N           1     -22.287 -11.993  -3.115  0.00  0.00    -0.066 N 
HETATM   22  H           1     -22.279 -11.315  -3.910  0.00  0.00     0.275 HD
HETATM   23  H           1     -22.094 -12.953  -3.475  0.00  0.00     0.275 HD
HETATM   24  H           1     -23.223 -11.975  -2.651  0.00  0.00     0.275 HD
ENDBRANCH  20  21
BRANCH  20  25
HETATM   25  C           1     -21.774 -11.782  -0.710  0.00  0.00     0.081 C 
BRANCH  25  26
HETATM   26  C           1     -21.914 -10.440  -0.060  0.00  0.00    -0.056 A 
HETATM   27  C           1     -23.059  -9.676  -0.278  0.00  0.00     0.007 A 
HETATM   28  C           1     -23.189  -8.426   0.327  0.00  0.00     0.001 A 
HETATM   29  C           1     -22.174  -7.942   1.153  0.00  0.00     0.000 A 
HETATM   30  C           1     -21.028  -8.707   1.371  0.00  0.00     0.001 A 
HETATM   31  C           1     -20.898  -9.957   0.765  0.00  0.00     0.007 A 
ENDBRANCH  25  26
ENDBRANCH  20  25
ENDBRANCH   1  20
TORSDOF 8
ENDMDL
