MODEL 1
REMARK VINA RESULT:      -5.7      0.000      0.000
REMARK  3 active torsions:
REMARK  status: ('A' for Active; 'I' for Inactive)
REMARK    1  A    between atoms: N_8  and  C_10 
REMARK    2  A    between atoms: C_10  and  C_11 
REMARK       I    between atoms: C_11  and  N_12 
REMARK    3  A    between atoms: C_13  and  C_15 
ROOT
HETATM    1  C           1     -23.724  -4.912 -11.307  0.00  0.00     0.038 C 
HETATM    2  C           1     -24.262  -4.678  -9.899  0.00  0.00     0.022 C 
HETATM    3  C           1     -23.129  -3.996  -9.152  0.00  0.00     0.127 C 
HETATM    4  O           1     -19.814  -5.071 -10.101  0.00  0.00    -0.271 OA
HETATM    5  C           1     -20.717  -4.756  -9.364  0.00  0.00     0.250 C 
HETATM    6  N           1     -21.933  -4.401  -9.883  0.00  0.00    -0.336 N 
HETATM    7  C           1     -22.316  -4.345 -11.291  0.00  0.00     0.188 C 
ENDROOT
BRANCH   5   8
HETATM    8  C           1     -20.506  -4.755  -7.869  0.00  0.00     0.271 C 
HETATM    9  C           1     -19.072  -4.348  -7.559  0.00  0.00     0.050 C 
BRANCH   8  10
HETATM   10  N           1     -20.764  -6.130  -7.328  0.00  0.00    -0.067 N 
HETATM   11  H           1     -21.048  -6.062  -6.325  0.00  0.00     0.275 HD
HETATM   12  H           1     -19.894  -6.704  -7.406  0.00  0.00     0.275 HD
HETATM   13  H           1     -21.529  -6.583  -7.877  0.00  0.00     0.275 HD
ENDBRANCH   8  10
ENDBRANCH   5   8
BRANCH   7  14
HETATM   14  C           1     -22.304  -2.922 -11.796  0.00  0.00     0.196 C 
HETATM   15  O           1     -21.296  -2.205 -11.616  0.00  0.00    -0.646 OA
HETATM   16  O           1     -23.301  -2.462 -12.391  0.00  0.00    -0.646 OA
ENDBRANCH   7  14
TORSDOF 3
ENDMDL
MODEL 2
REMARK VINA RESULT:      -5.3      2.471      4.711
REMARK  3 active torsions:
REMARK  status: ('A' for Active; 'I' for Inactive)
REMARK    1  A    between atoms: N_8  and  C_10 
REMARK    2  A    between atoms: C_10  and  C_11 
REMARK       I    between atoms: C_11  and  N_12 
REMARK    3  A    between atoms: C_13  and  C_15 
ROOT
HETATM    1  C           1     -19.929  -5.828  -7.376  0.00  0.00     0.038 C 
HETATM    2  C           1     -19.179  -4.537  -7.685  0.00  0.00     0.022 C 
HETATM    3  C           1     -20.232  -3.591  -8.238  0.00  0.00     0.127 C 
HETATM    4  O           1     -22.815  -5.172 -10.206  0.00  0.00    -0.271 OA
HETATM    5  C           1     -21.985  -4.347  -9.911  0.00  0.00     0.250 C 
HETATM    6  N           1     -21.267  -4.483  -8.753  0.00  0.00    -0.336 N 
HETATM    7  C           1     -21.371  -5.550  -7.762  0.00  0.00     0.188 C 
ENDROOT
BRANCH   5   8
HETATM    8  C           1     -21.737  -3.167 -10.818  0.00  0.00     0.271 C 
HETATM    9  C           1     -22.986  -2.889 -11.642  0.00  0.00     0.050 C 
BRANCH   8  10
HETATM   10  N           1     -20.590  -3.475 -11.736  0.00  0.00    -0.067 N 
HETATM   11  H           1     -20.049  -4.285 -11.357  0.00  0.00     0.275 HD
HETATM   12  H           1     -19.966  -2.640 -11.806  0.00  0.00     0.275 HD
HETATM   13  H           1     -20.958  -3.715 -12.684  0.00  0.00     0.275 HD
ENDBRANCH   8  10
ENDBRANCH   5   8
BRANCH   7  14
HETATM   14  C           1     -22.170  -5.096  -6.564  0.00  0.00     0.196 C 
HETATM   15  O           1     -21.718  -5.265  -5.411  0.00  0.00    -0.646 OA
HETATM   16  O           1     -23.284  -4.553  -6.725  0.00  0.00    -0.646 OA
ENDBRANCH   7  14
TORSDOF 3
ENDMDL
MODEL 3
REMARK VINA RESULT:      -5.2      1.675      4.400
REMARK  3 active torsions:
REMARK  status: ('A' for Active; 'I' for Inactive)
REMARK    1  A    between atoms: N_8  and  C_10 
REMARK    2  A    between atoms: C_10  and  C_11 
REMARK       I    between atoms: C_11  and  N_12 
REMARK    3  A    between atoms: C_13  and  C_15 
ROOT
HETATM    1  C           1     -22.343  -3.729  -8.225  0.00  0.00     0.038 C 
HETATM    2  C           1     -23.528  -4.591  -8.645  0.00  0.00     0.022 C 
HETATM    3  C           1     -23.289  -4.904 -10.112  0.00  0.00     0.127 C 
HETATM    4  O           1     -21.702  -2.261 -11.994  0.00  0.00    -0.271 OA
HETATM    5  C           1     -22.489  -3.146 -11.758  0.00  0.00     0.250 C 
HETATM    6  N           1     -22.428  -3.816 -10.566  0.00  0.00    -0.336 N 
HETATM    7  C           1     -21.486  -3.600  -9.472  0.00  0.00     0.188 C 
ENDROOT
BRANCH   5   8
HETATM    8  C           1     -23.541  -3.512 -12.776  0.00  0.00     0.271 C 
HETATM    9  C           1     -23.203  -2.863 -14.111  0.00  0.00     0.050 C 
BRANCH   8  10
HETATM   10  N           1     -24.881  -3.024 -12.308  0.00  0.00    -0.067 N 
HETATM   11  H           1     -25.381  -2.564 -13.101  0.00  0.00     0.275 HD
HETATM   12  H           1     -24.749  -2.337 -11.532  0.00  0.00     0.275 HD
HETATM   13  H           1     -25.445  -3.834 -11.963  0.00  0.00     0.275 HD
ENDBRANCH   8  10
ENDBRANCH   5   8
BRANCH   7  14
HETATM   14  C           1     -20.397  -4.646  -9.485  0.00  0.00     0.196 C 
HETATM   15  O           1     -20.094  -5.245  -8.431  0.00  0.00    -0.646 OA
HETATM   16  O           1     -19.797  -4.910 -10.549  0.00  0.00    -0.646 OA
ENDBRANCH   7  14
TORSDOF 3
ENDMDL
MODEL 4
REMARK VINA RESULT:      -5.1     16.333     17.556
REMARK  3 active torsions:
REMARK  status: ('A' for Active; 'I' for Inactive)
REMARK    1  A    between atoms: N_8  and  C_10 
REMARK    2  A    between atoms: C_10  and  C_11 
REMARK       I    between atoms: C_11  and  N_12 
REMARK    3  A    between atoms: C_13  and  C_15 
ROOT
HETATM    1  C           1     -14.596   4.919 -21.250  0.00  0.00     0.038 C 
HETATM    2  C           1     -14.076   5.823 -22.362  0.00  0.00     0.022 C 
HETATM    3  C           1     -12.564   5.807 -22.211  0.00  0.00     0.127 C 
HETATM    4  O           1     -11.378   5.586 -18.806  0.00  0.00    -0.271 OA
HETATM    5  C           1     -11.429   5.978 -19.947  0.00  0.00     0.250 C 
HETATM    6  N           1     -12.357   5.457 -20.809  0.00  0.00    -0.336 N 
HETATM    7  C           1     -13.354   4.429 -20.526  0.00  0.00     0.188 C 
ENDROOT
BRANCH   5   8
HETATM    8  C           1     -10.472   7.044 -20.423  0.00  0.00     0.271 C 
HETATM    9  C           1      -9.145   6.402 -20.800  0.00  0.00     0.050 C 
BRANCH   8  10
HETATM   10  N           1     -10.251   8.043 -19.325  0.00  0.00    -0.067 N 
HETATM   11  H           1     -11.165   8.270 -18.873  0.00  0.00     0.275 HD
HETATM   12  H           1      -9.832   8.912 -19.725  0.00  0.00     0.275 HD
HETATM   13  H           1      -9.601   7.639 -18.614  0.00  0.00     0.275 HD
ENDBRANCH   8  10
ENDBRANCH   5   8
BRANCH   7  14
HETATM   14  C           1     -12.913   3.089 -21.063  0.00  0.00     0.196 C 
HETATM   15  O           1     -11.744   2.691 -20.867  0.00  0.00    -0.646 OA
HETATM   16  O           1     -13.715   2.378 -21.705  0.00  0.00    -0.646 OA
ENDBRANCH   7  14
TORSDOF 3
ENDMDL
MODEL 5
REMARK VINA RESULT:      -4.9     12.548     14.039
REMARK  3 active torsions:
REMARK  status: ('A' for Active; 'I' for Inactive)
REMARK    1  A    between atoms: N_8  and  C_10 
REMARK    2  A    between atoms: C_10  and  C_11 
REMARK       I    between atoms: C_11  and  N_12 
REMARK    3  A    between atoms: C_13  and  C_15 
ROOT
HETATM    1  C           1     -24.565  11.174 -12.749  0.00  0.00     0.038 C 
HETATM    2  C           1     -25.597  11.372 -11.645  0.00  0.00     0.022 C 
HETATM    3  C           1     -25.399  10.197 -10.702  0.00  0.00     0.127 C 
HETATM    4  O           1     -24.442   7.105 -12.304  0.00  0.00    -0.271 OA
HETATM    5  C           1     -25.038   7.831 -11.546  0.00  0.00     0.250 C 
HETATM    6  N           1     -24.781   9.175 -11.542  0.00  0.00    -0.336 N 
HETATM    7  C           1     -23.826   9.901 -12.376  0.00  0.00     0.188 C 
ENDROOT
BRANCH   5   8
HETATM    8  C           1     -26.068   7.257 -10.604  0.00  0.00     0.271 C 
HETATM    9  C           1     -25.587   5.910 -10.084  0.00  0.00     0.050 C 
BRANCH   8  10
HETATM   10  N           1     -27.367   7.076 -11.335  0.00  0.00    -0.067 N 
HETATM   11  H           1     -27.345   7.623 -12.224  0.00  0.00     0.275 HD
HETATM   12  H           1     -28.153   7.414 -10.736  0.00  0.00     0.275 HD
HETATM   13  H           1     -27.506   6.063 -11.552  0.00  0.00     0.275 HD
ENDBRANCH   8  10
ENDBRANCH   5   8
BRANCH   7  14
HETATM   14  C           1     -22.568  10.216 -11.603  0.00  0.00     0.196 C 
HETATM   15  O           1     -22.145  11.391 -11.552  0.00  0.00    -0.646 OA
HETATM   16  O           1     -21.949   9.303 -11.017  0.00  0.00    -0.646 OA
ENDBRANCH   7  14
TORSDOF 3
ENDMDL
MODEL 6
REMARK VINA RESULT:      -4.8     16.697     17.833
REMARK  3 active torsions:
REMARK  status: ('A' for Active; 'I' for Inactive)
REMARK    1  A    between atoms: N_8  and  C_10 
REMARK    2  A    between atoms: C_10  and  C_11 
REMARK       I    between atoms: C_11  and  N_12 
REMARK    3  A    between atoms: C_13  and  C_15 
ROOT
HETATM    1  C           1     -10.985   3.264 -19.929  0.00  0.00     0.038 C 
HETATM    2  C           1     -10.825   3.187 -21.443  0.00  0.00     0.022 C 
HETATM    3  C           1     -11.386   4.498 -21.967  0.00  0.00     0.127 C 
HETATM    4  O           1     -14.192   5.804 -20.106  0.00  0.00    -0.271 OA
HETATM    5  C           1     -13.541   5.500 -21.076  0.00  0.00     0.250 C 
HETATM    6  N           1     -12.307   4.928 -20.919  0.00  0.00    -0.336 N 
HETATM    7  C           1     -11.623   4.616 -19.667  0.00  0.00     0.188 C 
ENDROOT
BRANCH   5   8
HETATM    8  C           1     -14.087   5.747 -22.460  0.00  0.00     0.271 C 
HETATM    9  C           1     -13.741   7.164 -22.897  0.00  0.00     0.050 C 
BRANCH   8  10
HETATM   10  N           1     -15.579   5.579 -22.446  0.00  0.00    -0.067 N 
HETATM   11  H           1     -15.840   4.747 -23.021  0.00  0.00     0.275 HD
HETATM   12  H           1     -16.029   6.434 -22.842  0.00  0.00     0.275 HD
HETATM   13  H           1     -15.904   5.439 -21.463  0.00  0.00     0.275 HD
ENDBRANCH   8  10
ENDBRANCH   5   8
BRANCH   7  14
HETATM   14  C           1     -10.573   5.655 -19.355  0.00  0.00     0.196 C 
HETATM   15  O           1     -10.858   6.870 -19.417  0.00  0.00    -0.646 OA
HETATM   16  O           1      -9.418   5.299 -19.035  0.00  0.00    -0.646 OA
ENDBRANCH   7  14
TORSDOF 3
ENDMDL
MODEL 7
REMARK VINA RESULT:      -4.8      2.552      4.665
REMARK  3 active torsions:
REMARK  status: ('A' for Active; 'I' for Inactive)
REMARK    1  A    between atoms: N_8  and  C_10 
REMARK    2  A    between atoms: C_10  and  C_11 
REMARK       I    between atoms: C_11  and  N_12 
REMARK    3  A    between atoms: C_13  and  C_15 
ROOT
HETATM    1  C           1     -20.320  -4.607  -9.925  0.00  0.00     0.038 C 
HETATM    2  C           1     -20.144  -3.438 -10.887  0.00  0.00     0.022 C 
HETATM    3  C           1     -21.556  -2.994 -11.232  0.00  0.00     0.127 C 
HETATM    4  O           1     -23.988  -5.659 -11.412  0.00  0.00    -0.271 OA
HETATM    5  C           1     -23.409  -4.652 -11.742  0.00  0.00     0.250 C 
HETATM    6  N           1     -22.366  -4.184 -10.988  0.00  0.00    -0.336 N 
HETATM    7  C           1     -21.821  -4.766  -9.765  0.00  0.00     0.188 C 
ENDROOT
BRANCH   5   8
HETATM    8  C           1     -23.833  -3.911 -12.986  0.00  0.00     0.271 C 
HETATM    9  C           1     -24.869  -2.857 -12.620  0.00  0.00     0.050 C 
BRANCH   8  10
HETATM   10  N           1     -24.429  -4.879 -13.965  0.00  0.00    -0.067 N 
HETATM   11  H           1     -25.431  -4.636 -14.128  0.00  0.00     0.275 HD
HETATM   12  H           1     -24.361  -5.848 -13.582  0.00  0.00     0.275 HD
HETATM   13  H           1     -23.906  -4.826 -14.869  0.00  0.00     0.275 HD
ENDBRANCH   8  10
ENDBRANCH   5   8
BRANCH   7  14
HETATM   14  C           1     -22.314  -4.019  -8.548  0.00  0.00     0.196 C 
HETATM   15  O           1     -21.496  -3.578  -7.713  0.00  0.00    -0.646 OA
HETATM   16  O           1     -23.540  -3.844  -8.377  0.00  0.00    -0.646 OA
ENDBRANCH   7  14
TORSDOF 3
ENDMDL
MODEL 8
REMARK VINA RESULT:      -4.7      7.347      9.200
REMARK  3 active torsions:
REMARK  status: ('A' for Active; 'I' for Inactive)
REMARK    1  A    between atoms: N_8  and  C_10 
REMARK    2  A    between atoms: C_10  and  C_11 
REMARK       I    between atoms: C_11  and  N_12 
REMARK    3  A    between atoms: C_13  and  C_15 
ROOT
HETATM    1  C           1     -21.829  -7.708  -4.593  0.00  0.00     0.038 C 
HETATM    2  C           1     -21.842  -6.370  -3.862  0.00  0.00     0.022 C 
HETATM    3  C           1     -21.280  -6.667  -2.482  0.00  0.00     0.127 C 
HETATM    4  O           1     -22.134  -9.918  -1.159  0.00  0.00    -0.271 OA
HETATM    5  C           1     -21.961  -8.723  -1.158  0.00  0.00     0.250 C 
HETATM    6  N           1     -21.540  -8.092  -2.298  0.00  0.00    -0.336 N 
HETATM    7  C           1     -21.253  -8.698  -3.595  0.00  0.00     0.188 C 
ENDROOT
BRANCH   5   8
HETATM    8  C           1     -22.208  -7.925   0.098  0.00  0.00     0.271 C 
HETATM    9  C           1     -21.301  -8.434   1.210  0.00  0.00     0.050 C 
BRANCH   8  10
HETATM   10  N           1     -23.642  -8.079   0.513  0.00  0.00    -0.067 N 
HETATM   11  H           1     -23.860  -9.092   0.644  0.00  0.00     0.275 HD
HETATM   12  H           1     -24.263  -7.680  -0.227  0.00  0.00     0.275 HD
HETATM   13  H           1     -23.801  -7.570   1.412  0.00  0.00     0.275 HD
ENDBRANCH   8  10
ENDBRANCH   5   8
BRANCH   7  14
HETATM   14  C           1     -19.765  -8.859  -3.796  0.00  0.00     0.196 C 
HETATM   15  O           1     -19.245  -8.545  -4.888  0.00  0.00    -0.646 OA
HETATM   16  O           1     -19.055  -9.309  -2.871  0.00  0.00    -0.646 OA
ENDBRANCH   7  14
TORSDOF 3
ENDMDL
MODEL 9
REMARK VINA RESULT:      -4.6     17.281     18.890
REMARK  3 active torsions:
REMARK  status: ('A' for Active; 'I' for Inactive)
REMARK    1  A    between atoms: N_8  and  C_10 
REMARK    2  A    between atoms: C_10  and  C_11 
REMARK       I    between atoms: C_11  and  N_12 
REMARK    3  A    between atoms: C_13  and  C_15 
ROOT
HETATM    1  C           1     -10.321   8.883 -19.784  0.00  0.00     0.038 C 
HETATM    2  C           1      -9.573   7.958 -20.737  0.00  0.00     0.022 C 
HETATM    3  C           1     -10.656   7.223 -21.508  0.00  0.00     0.127 C 
HETATM    4  O           1     -13.645   6.496 -19.614  0.00  0.00    -0.271 OA
HETATM    5  C           1     -12.729   6.295 -20.376  0.00  0.00     0.250 C 
HETATM    6  N           1     -11.817   7.285 -20.625  0.00  0.00    -0.336 N 
HETATM    7  C           1     -11.793   8.634 -20.065  0.00  0.00     0.188 C 
ENDROOT
BRANCH   5   8
HETATM    8  C           1     -12.591   4.954 -21.052  0.00  0.00     0.271 C 
HETATM    9  C           1     -13.972   4.410 -21.390  0.00  0.00     0.050 C 
BRANCH   8  10
HETATM   10  N           1     -11.889   4.000 -20.130  0.00  0.00    -0.067 N 
HETATM   11  H           1     -12.552   3.246 -19.840  0.00  0.00     0.275 HD
HETATM   12  H           1     -11.554   4.515 -19.286  0.00  0.00     0.275 HD
HETATM   13  H           1     -11.073   3.574 -20.625  0.00  0.00     0.275 HD
ENDBRANCH   8  10
ENDBRANCH   5   8
BRANCH   7  14
HETATM   14  C           1     -12.328   9.638 -21.058  0.00  0.00     0.196 C 
HETATM   15  O           1     -11.676  10.674 -21.311  0.00  0.00    -0.646 OA
HETATM   16  O           1     -13.422   9.433 -21.625  0.00  0.00    -0.646 OA
ENDBRANCH   7  14
TORSDOF 3
ENDMDL
