MODEL 1
REMARK VINA RESULT:      -7.4      0.000      0.000
REMARK  11 active torsions:
REMARK  status: ('A' for Active; 'I' for Inactive)
REMARK    1  A    between atoms: C_1  and  C_15 
REMARK    2  A    between atoms: C_1  and  C_2 
REMARK    3  A    between atoms: C_2  and  C_3 
REMARK    4  A    between atoms: C_3  and  C_23 
REMARK    5  A    between atoms: N_8  and  C_15 
REMARK    6  A    between atoms: C_9  and  C_16 
REMARK    7  A    between atoms: N_11  and  C_16 
REMARK       I    between atoms: N_11  and  C_14 
REMARK    8  A    between atoms: C_13  and  C_25 
REMARK    9  A    between atoms: C_14  and  C_15 
REMARK   10  A    between atoms: C_16  and  C_25 
REMARK   11  A    between atoms: N_17  and  C_23 
ROOT
HETATM    1  N           1     -35.772  -1.303 -10.051  0.00  0.00    -0.344 N 
HETATM    2  H           1     -36.252  -1.689  -9.248  0.00  0.00     0.163 HD
HETATM    3  C           1     -34.655  -1.924 -10.544  0.00  0.00     0.249 C 
HETATM    4  O           1     -33.563  -1.623 -10.127  0.00  0.00    -0.271 OA
ENDROOT
BRANCH   3   5
HETATM    5  C           1     -34.791  -2.983 -11.610  0.00  0.00     0.274 C 
BRANCH   5   6
HETATM    6  C           1     -35.406  -4.238 -11.004  0.00  0.00     0.042 C 
BRANCH   6   7
HETATM    7  C           1     -34.304  -5.115 -10.424  0.00  0.00     0.004 C 
BRANCH   7   8
HETATM    8  C           1     -34.400  -6.513 -11.023  0.00  0.00     0.027 C 
BRANCH   8   9
HETATM    9  C           1     -34.567  -7.535  -9.907  0.00  0.00     0.229 C 
BRANCH   9  10
HETATM   10  N           1     -33.729  -8.743 -10.205  0.00  0.00    -0.079 N 
HETATM   11  H           1     -34.344  -9.523 -10.529  0.00  0.00     0.274 HD
HETATM   12  H           1     -33.222  -9.036  -9.339  0.00  0.00     0.274 HD
HETATM   13  H           1     -33.037  -8.511 -10.953  0.00  0.00     0.274 HD
ENDBRANCH   9  10
ENDBRANCH   8   9
ENDBRANCH   7   8
ENDBRANCH   6   7
ENDBRANCH   5   6
BRANCH   5  14
HETATM   14  N           1     -33.436  -3.310 -12.165  0.00  0.00    -0.067 N 
HETATM   15  H           1     -33.512  -3.468 -13.196  0.00  0.00     0.275 HD
HETATM   16  H           1     -33.071  -4.176 -11.707  0.00  0.00     0.275 HD
HETATM   17  H           1     -32.783  -2.516 -11.981  0.00  0.00     0.275 HD
ENDBRANCH   5  14
ENDBRANCH   3   5
BRANCH   1  18
HETATM   18  C           1     -36.266  -0.092 -10.678  0.00  0.00     0.189 C 
BRANCH  18  19
HETATM   19  C           1     -36.943   0.769  -9.641  0.00  0.00     0.197 C 
HETATM   20  O           1     -38.072   1.253  -9.871  0.00  0.00    -0.646 OA
HETATM   21  O           1     -36.375   0.998  -8.552  0.00  0.00    -0.646 OA
ENDBRANCH  18  19
BRANCH  18  22
HETATM   22  C           1     -37.266  -0.458 -11.767  0.00  0.00     0.074 C 
BRANCH  22  23
HETATM   23  C           1     -36.736  -0.019 -13.097  0.00  0.00    -0.056 A 
HETATM   24  C           1     -37.558  -0.060 -14.223  0.00  0.00     0.007 A 
HETATM   25  C           1     -37.064   0.347 -15.463  0.00  0.00     0.001 A 
HETATM   26  C           1     -35.749   0.797 -15.575  0.00  0.00     0.000 A 
HETATM   27  C           1     -34.926   0.838 -14.449  0.00  0.00     0.001 A 
HETATM   28  C           1     -35.421   0.431 -13.210  0.00  0.00     0.007 A 
ENDBRANCH  22  23
ENDBRANCH  18  22
ENDBRANCH   1  18
TORSDOF 11
ENDMDL
MODEL 2
REMARK VINA RESULT:      -6.7     13.588     16.695
REMARK  11 active torsions:
REMARK  status: ('A' for Active; 'I' for Inactive)
REMARK    1  A    between atoms: C_1  and  C_15 
REMARK    2  A    between atoms: C_1  and  C_2 
REMARK    3  A    between atoms: C_2  and  C_3 
REMARK    4  A    between atoms: C_3  and  C_23 
REMARK    5  A    between atoms: N_8  and  C_15 
REMARK    6  A    between atoms: C_9  and  C_16 
REMARK    7  A    between atoms: N_11  and  C_16 
REMARK       I    between atoms: N_11  and  C_14 
REMARK    8  A    between atoms: C_13  and  C_25 
REMARK    9  A    between atoms: C_14  and  C_15 
REMARK   10  A    between atoms: C_16  and  C_25 
REMARK   11  A    between atoms: N_17  and  C_23 
ROOT
HETATM    1  N           1     -21.590  -4.142  -6.506  0.00  0.00    -0.344 N 
HETATM    2  H           1     -21.315  -3.173  -6.415  0.00  0.00     0.163 HD
HETATM    3  C           1     -22.742  -4.467  -7.170  0.00  0.00     0.249 C 
HETATM    4  O           1     -23.786  -4.543  -6.568  0.00  0.00    -0.271 OA
ENDROOT
BRANCH   3   5
HETATM    5  C           1     -22.707  -4.732  -8.655  0.00  0.00     0.274 C 
BRANCH   5   6
HETATM    6  C           1     -21.667  -3.829  -9.307  0.00  0.00     0.042 C 
BRANCH   6   7
HETATM    7  C           1     -21.539  -4.184 -10.783  0.00  0.00     0.004 C 
BRANCH   7   8
HETATM    8  C           1     -21.628  -2.915 -11.620  0.00  0.00     0.027 C 
BRANCH   8   9
HETATM    9  C           1     -22.872  -2.969 -12.496  0.00  0.00     0.229 C 
BRANCH   9  10
HETATM   10  N           1     -22.468  -3.149 -13.929  0.00  0.00    -0.079 N 
HETATM   11  H           1     -23.003  -3.945 -14.345  0.00  0.00     0.274 HD
HETATM   12  H           1     -21.444  -3.355 -13.979  0.00  0.00     0.274 HD
HETATM   13  H           1     -22.674  -2.274 -14.463  0.00  0.00     0.274 HD
ENDBRANCH   9  10
ENDBRANCH   8   9
ENDBRANCH   7   8
ENDBRANCH   6   7
ENDBRANCH   5   6
BRANCH   5  14
HETATM   14  N           1     -24.056  -4.448  -9.246  0.00  0.00    -0.067 N 
HETATM   15  H           1     -24.670  -5.286  -9.131  0.00  0.00     0.275 HD
HETATM   16  H           1     -23.952  -4.230 -10.263  0.00  0.00     0.275 HD
HETATM   17  H           1     -24.486  -3.630  -8.757  0.00  0.00     0.275 HD
ENDBRANCH   5  14
ENDBRANCH   3   5
BRANCH   1  18
HETATM   18  C           1     -20.764  -5.186  -5.931  0.00  0.00     0.189 C 
BRANCH  18  19
HETATM   19  C           1     -19.653  -5.533  -6.891  0.00  0.00     0.197 C 
HETATM   20  O           1     -18.903  -4.634  -7.329  0.00  0.00    -0.646 OA
HETATM   21  O           1     -19.483  -6.719  -7.247  0.00  0.00    -0.646 OA
ENDBRANCH  18  19
BRANCH  18  22
HETATM   22  C           1     -21.616  -6.422  -5.672  0.00  0.00     0.074 C 
BRANCH  22  23
HETATM   23  C           1     -21.416  -6.879  -4.260  0.00  0.00    -0.056 A 
HETATM   24  C           1     -20.574  -7.956  -3.988  0.00  0.00     0.007 A 
HETATM   25  C           1     -20.388  -8.383  -2.673  0.00  0.00     0.001 A 
HETATM   26  C           1     -21.044  -7.730  -1.630  0.00  0.00     0.000 A 
HETATM   27  C           1     -21.887  -6.651  -1.901  0.00  0.00     0.001 A 
HETATM   28  C           1     -22.072  -6.226  -3.217  0.00  0.00     0.007 A 
ENDBRANCH  22  23
ENDBRANCH  18  22
ENDBRANCH   1  18
TORSDOF 11
ENDMDL
MODEL 3
REMARK VINA RESULT:      -6.7      2.244      3.950
REMARK  11 active torsions:
REMARK  status: ('A' for Active; 'I' for Inactive)
REMARK    1  A    between atoms: C_1  and  C_15 
REMARK    2  A    between atoms: C_1  and  C_2 
REMARK    3  A    between atoms: C_2  and  C_3 
REMARK    4  A    between atoms: C_3  and  C_23 
REMARK    5  A    between atoms: N_8  and  C_15 
REMARK    6  A    between atoms: C_9  and  C_16 
REMARK    7  A    between atoms: N_11  and  C_16 
REMARK       I    between atoms: N_11  and  C_14 
REMARK    8  A    between atoms: C_13  and  C_25 
REMARK    9  A    between atoms: C_14  and  C_15 
REMARK   10  A    between atoms: C_16  and  C_25 
REMARK   11  A    between atoms: N_17  and  C_23 
ROOT
HETATM    1  N           1     -34.753  -1.146 -12.801  0.00  0.00    -0.344 N 
HETATM    2  H           1     -34.072  -0.476 -13.135  0.00  0.00     0.163 HD
HETATM    3  C           1     -34.432  -2.476 -12.741  0.00  0.00     0.249 C 
HETATM    4  O           1     -34.643  -3.192 -13.691  0.00  0.00    -0.271 OA
ENDROOT
BRANCH   3   5
HETATM    5  C           1     -33.816  -3.047 -11.488  0.00  0.00     0.274 C 
BRANCH   5   6
HETATM    6  C           1     -34.794  -4.019 -10.839  0.00  0.00     0.042 C 
BRANCH   6   7
HETATM    7  C           1     -34.050  -5.278 -10.410  0.00  0.00     0.004 C 
BRANCH   7   8
HETATM    8  C           1     -34.711  -6.497 -11.042  0.00  0.00     0.027 C 
BRANCH   8   9
HETATM    9  C           1     -34.726  -7.643 -10.040  0.00  0.00     0.229 C 
BRANCH   9  10
HETATM   10  N           1     -33.572  -8.562 -10.313  0.00  0.00    -0.079 N 
HETATM   11  H           1     -33.901  -9.553 -10.289  0.00  0.00     0.274 HD
HETATM   12  H           1     -32.836  -8.422  -9.584  0.00  0.00     0.274 HD
HETATM   13  H           1     -33.173  -8.350 -11.256  0.00  0.00     0.274 HD
ENDBRANCH   9  10
ENDBRANCH   8   9
ENDBRANCH   7   8
ENDBRANCH   6   7
ENDBRANCH   5   6
BRANCH   5  14
HETATM   14  N           1     -33.509  -1.934 -10.530  0.00  0.00    -0.067 N 
HETATM   15  H           1     -32.504  -1.986 -10.246  0.00  0.00     0.275 HD
HETATM   16  H           1     -34.114  -2.026  -9.682  0.00  0.00     0.275 HD
HETATM   17  H           1     -33.693  -1.015 -10.992  0.00  0.00     0.275 HD
ENDBRANCH   5  14
ENDBRANCH   3   5
BRANCH   1  18
HETATM   18  C           1     -36.068  -0.698 -12.387  0.00  0.00     0.189 C 
BRANCH  18  19
HETATM   19  C           1     -36.898  -0.382 -13.606  0.00  0.00     0.197 C 
HETATM   20  O           1     -36.409   0.294 -14.537  0.00  0.00    -0.646 OA
HETATM   21  O           1     -38.075  -0.795 -13.685  0.00  0.00    -0.646 OA
ENDBRANCH  18  19
BRANCH  18  22
HETATM   22  C           1     -35.930   0.552 -11.527  0.00  0.00     0.074 C 
BRANCH  22  23
HETATM   23  C           1     -36.640   0.344 -10.225  0.00  0.00    -0.056 A 
HETATM   24  C           1     -36.850  -0.948  -9.744  0.00  0.00     0.007 A 
HETATM   25  C           1     -37.513  -1.142  -8.532  0.00  0.00     0.001 A 
HETATM   26  C           1     -37.963  -0.043  -7.800  0.00  0.00     0.000 A 
HETATM   27  C           1     -37.753   1.250  -8.281  0.00  0.00     0.001 A 
HETATM   28  C           1     -37.090   1.442  -9.494  0.00  0.00     0.007 A 
ENDBRANCH  22  23
ENDBRANCH  18  22
ENDBRANCH   1  18
TORSDOF 11
ENDMDL
MODEL 4
REMARK VINA RESULT:      -6.6     14.628     18.058
REMARK  11 active torsions:
REMARK  status: ('A' for Active; 'I' for Inactive)
REMARK    1  A    between atoms: C_1  and  C_15 
REMARK    2  A    between atoms: C_1  and  C_2 
REMARK    3  A    between atoms: C_2  and  C_3 
REMARK    4  A    between atoms: C_3  and  C_23 
REMARK    5  A    between atoms: N_8  and  C_15 
REMARK    6  A    between atoms: C_9  and  C_16 
REMARK    7  A    between atoms: N_11  and  C_16 
REMARK       I    between atoms: N_11  and  C_14 
REMARK    8  A    between atoms: C_13  and  C_25 
REMARK    9  A    between atoms: C_14  and  C_15 
REMARK   10  A    between atoms: C_16  and  C_25 
REMARK   11  A    between atoms: N_17  and  C_23 
ROOT
HETATM    1  N           1     -20.845  -7.968  -5.690  0.00  0.00    -0.344 N 
HETATM    2  H           1     -21.565  -8.514  -6.147  0.00  0.00     0.163 HD
HETATM    3  C           1     -20.485  -6.749  -6.198  0.00  0.00     0.249 C 
HETATM    4  O           1     -19.598  -6.672  -7.014  0.00  0.00    -0.271 OA
ENDROOT
BRANCH   3   5
HETATM    5  C           1     -21.195  -5.500  -5.735  0.00  0.00     0.274 C 
BRANCH   5   6
HETATM    6  C           1     -22.197  -5.063  -6.796  0.00  0.00     0.042 C 
BRANCH   6   7
HETATM    7  C           1     -21.701  -3.788  -7.468  0.00  0.00     0.004 C 
BRANCH   7   8
HETATM    8  C           1     -22.021  -3.843  -8.957  0.00  0.00     0.027 C 
BRANCH   8   9
HETATM    9  C           1     -23.428  -4.388  -9.156  0.00  0.00     0.229 C 
BRANCH   9  10
HETATM   10  N           1     -24.424  -3.281  -8.977  0.00  0.00    -0.079 N 
HETATM   11  H           1     -24.668  -3.190  -7.965  0.00  0.00     0.274 HD
HETATM   12  H           1     -25.288  -3.498  -9.524  0.00  0.00     0.274 HD
HETATM   13  H           1     -24.012  -2.383  -9.318  0.00  0.00     0.274 HD
ENDBRANCH   9  10
ENDBRANCH   8   9
ENDBRANCH   7   8
ENDBRANCH   6   7
ENDBRANCH   5   6
BRANCH   5  14
HETATM   14  N           1     -20.191  -4.407  -5.516  0.00  0.00    -0.067 N 
HETATM   15  H           1     -20.226  -4.097  -4.518  0.00  0.00     0.275 HD
HETATM   16  H           1     -20.415  -3.597  -6.138  0.00  0.00     0.275 HD
HETATM   17  H           1     -19.233  -4.762  -5.737  0.00  0.00     0.275 HD
ENDBRANCH   5  14
ENDBRANCH   3   5
BRANCH   1  18
HETATM   18  C           1     -20.197  -8.479  -4.498  0.00  0.00     0.189 C 
BRANCH  18  19
HETATM   19  C           1     -18.979  -9.277  -4.892  0.00  0.00     0.197 C 
HETATM   20  O           1     -17.987  -9.320  -4.133  0.00  0.00    -0.646 OA
HETATM   21  O           1     -18.962  -9.896  -5.979  0.00  0.00    -0.646 OA
ENDBRANCH  18  19
BRANCH  18  22
HETATM   22  C           1     -21.167  -9.373  -3.737  0.00  0.00     0.074 C 
BRANCH  22  23
HETATM   23  C           1     -21.634  -8.666  -2.503  0.00  0.00    -0.056 A 
HETATM   24  C           1     -21.987  -9.398  -1.370  0.00  0.00     0.007 A 
HETATM   25  C           1     -22.424  -8.739  -0.221  0.00  0.00     0.001 A 
HETATM   26  C           1     -22.506  -7.347  -0.205  0.00  0.00     0.000 A 
HETATM   27  C           1     -22.153  -6.614  -1.338  0.00  0.00     0.001 A 
HETATM   28  C           1     -21.716  -7.274  -2.487  0.00  0.00     0.007 A 
ENDBRANCH  22  23
ENDBRANCH  18  22
ENDBRANCH   1  18
TORSDOF 11
ENDMDL
MODEL 5
REMARK VINA RESULT:      -6.6      2.867      5.709
REMARK  11 active torsions:
REMARK  status: ('A' for Active; 'I' for Inactive)
REMARK    1  A    between atoms: C_1  and  C_15 
REMARK    2  A    between atoms: C_1  and  C_2 
REMARK    3  A    between atoms: C_2  and  C_3 
REMARK    4  A    between atoms: C_3  and  C_23 
REMARK    5  A    between atoms: N_8  and  C_15 
REMARK    6  A    between atoms: C_9  and  C_16 
REMARK    7  A    between atoms: N_11  and  C_16 
REMARK       I    between atoms: N_11  and  C_14 
REMARK    8  A    between atoms: C_13  and  C_25 
REMARK    9  A    between atoms: C_14  and  C_15 
REMARK   10  A    between atoms: C_16  and  C_25 
REMARK   11  A    between atoms: N_17  and  C_23 
ROOT
HETATM    1  N           1     -34.778  -0.838 -13.481  0.00  0.00    -0.344 N 
HETATM    2  H           1     -33.876  -1.200 -13.762  0.00  0.00     0.163 HD
HETATM    3  C           1     -35.359   0.179 -14.190  0.00  0.00     0.249 C 
HETATM    4  O           1     -35.143   1.328 -13.887  0.00  0.00    -0.271 OA
ENDROOT
BRANCH   3   5
HETATM    5  C           1     -36.272  -0.137 -15.350  0.00  0.00     0.274 C 
BRANCH   5   6
HETATM    6  C           1     -35.443  -0.637 -16.526  0.00  0.00     0.042 C 
BRANCH   6   7
HETATM    7  C           1     -35.569  -2.152 -16.628  0.00  0.00     0.004 C 
BRANCH   7   8
HETATM    8  C           1     -34.189  -2.763 -16.838  0.00  0.00     0.027 C 
BRANCH   8   9
HETATM    9  C           1     -34.073  -4.048 -16.028  0.00  0.00     0.229 C 
BRANCH   9  10
HETATM   10  N           1     -32.630  -4.440 -15.916  0.00  0.00    -0.079 N 
HETATM   11  H           1     -32.277  -4.204 -14.962  0.00  0.00     0.274 HD
HETATM   12  H           1     -32.071  -3.921 -16.632  0.00  0.00     0.274 HD
HETATM   13  H           1     -32.534  -5.469 -16.079  0.00  0.00     0.274 HD
ENDBRANCH   9  10
ENDBRANCH   8   9
ENDBRANCH   7   8
ENDBRANCH   6   7
ENDBRANCH   5   6
BRANCH   5  14
HETATM   14  N           1     -37.013   1.103 -15.755  0.00  0.00    -0.067 N 
HETATM   15  H           1     -36.956   1.219 -16.792  0.00  0.00     0.275 HD
HETATM   16  H           1     -36.584   1.934 -15.288  0.00  0.00     0.275 HD
HETATM   17  H           1     -38.014   1.021 -15.468  0.00  0.00     0.275 HD
ENDBRANCH   5  14
ENDBRANCH   3   5
BRANCH   1  18
HETATM   18  C           1     -35.454  -1.396 -12.325  0.00  0.00     0.189 C 
BRANCH  18  19
HETATM   19  C           1     -36.482  -0.413 -11.822  0.00  0.00     0.197 C 
HETATM   20  O           1     -36.155   0.464 -10.995  0.00  0.00    -0.646 OA
HETATM   21  O           1     -37.661  -0.477 -12.234  0.00  0.00    -0.646 OA
ENDBRANCH  18  19
BRANCH  18  22
HETATM   22  C           1     -34.436  -1.674 -11.228  0.00  0.00     0.074 C 
BRANCH  22  23
HETATM   23  C           1     -34.110  -3.135 -11.207  0.00  0.00    -0.056 A 
HETATM   24  C           1     -32.884  -3.583 -11.697  0.00  0.00     0.007 A 
HETATM   25  C           1     -32.580  -4.945 -11.679  0.00  0.00     0.001 A 
HETATM   26  C           1     -33.504  -5.857 -11.169  0.00  0.00     0.000 A 
HETATM   27  C           1     -34.731  -5.409 -10.678  0.00  0.00     0.001 A 
HETATM   28  C           1     -35.033  -4.047 -10.697  0.00  0.00     0.007 A 
ENDBRANCH  22  23
ENDBRANCH  18  22
ENDBRANCH   1  18
TORSDOF 11
ENDMDL
MODEL 6
REMARK VINA RESULT:      -6.5     15.140     18.383
REMARK  11 active torsions:
REMARK  status: ('A' for Active; 'I' for Inactive)
REMARK    1  A    between atoms: C_1  and  C_15 
REMARK    2  A    between atoms: C_1  and  C_2 
REMARK    3  A    between atoms: C_2  and  C_3 
REMARK    4  A    between atoms: C_3  and  C_23 
REMARK    5  A    between atoms: N_8  and  C_15 
REMARK    6  A    between atoms: C_9  and  C_16 
REMARK    7  A    between atoms: N_11  and  C_16 
REMARK       I    between atoms: N_11  and  C_14 
REMARK    8  A    between atoms: C_13  and  C_25 
REMARK    9  A    between atoms: C_14  and  C_15 
REMARK   10  A    between atoms: C_16  and  C_25 
REMARK   11  A    between atoms: N_17  and  C_23 
ROOT
HETATM    1  N           1     -21.361  -6.546  -2.958  0.00  0.00    -0.344 N 
HETATM    2  H           1     -21.173  -5.762  -2.346  0.00  0.00     0.163 HD
HETATM    3  C           1     -21.614  -6.332  -4.287  0.00  0.00     0.249 C 
HETATM    4  O           1     -22.748  -6.155  -4.665  0.00  0.00    -0.271 OA
ENDROOT
BRANCH   3   5
HETATM    5  C           1     -20.476  -6.319  -5.278  0.00  0.00     0.274 C 
BRANCH   5   6
HETATM    6  C           1     -20.123  -4.878  -5.626  0.00  0.00     0.042 C 
BRANCH   6   7
HETATM    7  C           1     -20.312  -4.656  -7.122  0.00  0.00     0.004 C 
BRANCH   7   8
HETATM    8  C           1     -21.349  -3.563  -7.345  0.00  0.00     0.027 C 
BRANCH   8   9
HETATM    9  C           1     -22.593  -4.165  -7.984  0.00  0.00     0.229 C 
BRANCH   9  10
HETATM   10  N           1     -23.600  -4.483  -6.917  0.00  0.00    -0.079 N 
HETATM   11  H           1     -24.106  -5.362  -7.165  0.00  0.00     0.274 HD
HETATM   12  H           1     -24.285  -3.697  -6.840  0.00  0.00     0.274 HD
HETATM   13  H           1     -23.110  -4.609  -6.002  0.00  0.00     0.274 HD
ENDBRANCH   9  10
ENDBRANCH   8   9
ENDBRANCH   7   8
ENDBRANCH   6   7
ENDBRANCH   5   6
BRANCH   5  14
HETATM   14  N           1     -20.890  -7.046  -6.523  0.00  0.00    -0.067 N 
HETATM   15  H           1     -21.237  -7.999  -6.270  0.00  0.00     0.275 HD
HETATM   16  H           1     -20.070  -7.134  -7.165  0.00  0.00     0.275 HD
HETATM   17  H           1     -21.652  -6.513  -7.002  0.00  0.00     0.275 HD
ENDBRANCH   5  14
ENDBRANCH   3   5
BRANCH   1  18
HETATM   18  C           1     -21.363  -7.896  -2.427  0.00  0.00     0.189 C 
BRANCH  18  19
HETATM   19  C           1     -22.205  -7.941  -1.176  0.00  0.00     0.197 C 
HETATM   20  O           1     -22.373  -9.024  -0.575  0.00  0.00    -0.646 OA
HETATM   21  O           1     -22.735  -6.896  -0.741  0.00  0.00    -0.646 OA
ENDBRANCH  18  19
BRANCH  18  22
HETATM   22  C           1     -19.936  -8.312  -2.095  0.00  0.00     0.074 C 
BRANCH  22  23
HETATM   23  C           1     -19.386  -9.143  -3.213  0.00  0.00    -0.056 A 
HETATM   24  C           1     -18.008  -9.305  -3.349  0.00  0.00     0.007 A 
HETATM   25  C           1     -17.496 -10.078  -4.391  0.00  0.00     0.001 A 
HETATM   26  C           1     -18.363 -10.691  -5.295  0.00  0.00     0.000 A 
HETATM   27  C           1     -19.742 -10.529  -5.159  0.00  0.00     0.001 A 
HETATM   28  C           1     -20.253  -9.756  -4.117  0.00  0.00     0.007 A 
ENDBRANCH  22  23
ENDBRANCH  18  22
ENDBRANCH   1  18
TORSDOF 11
ENDMDL
MODEL 7
REMARK VINA RESULT:      -6.3     14.867     17.131
REMARK  11 active torsions:
REMARK  status: ('A' for Active; 'I' for Inactive)
REMARK    1  A    between atoms: C_1  and  C_15 
REMARK    2  A    between atoms: C_1  and  C_2 
REMARK    3  A    between atoms: C_2  and  C_3 
REMARK    4  A    between atoms: C_3  and  C_23 
REMARK    5  A    between atoms: N_8  and  C_15 
REMARK    6  A    between atoms: C_9  and  C_16 
REMARK    7  A    between atoms: N_11  and  C_16 
REMARK       I    between atoms: N_11  and  C_14 
REMARK    8  A    between atoms: C_13  and  C_25 
REMARK    9  A    between atoms: C_14  and  C_15 
REMARK   10  A    between atoms: C_16  and  C_25 
REMARK   11  A    between atoms: N_17  and  C_23 
ROOT
HETATM    1  N           1     -22.569  -6.390  -3.890  0.00  0.00    -0.344 N 
HETATM    2  H           1     -23.571  -6.270  -3.964  0.00  0.00     0.163 HD
HETATM    3  C           1     -21.957  -6.298  -2.668  0.00  0.00     0.249 C 
HETATM    4  O           1     -21.553  -5.231  -2.273  0.00  0.00    -0.271 OA
ENDROOT
BRANCH   3   5
HETATM    5  C           1     -21.787  -7.532  -1.816  0.00  0.00     0.274 C 
BRANCH   5   6
HETATM    6  C           1     -22.445  -7.308  -0.461  0.00  0.00     0.042 C 
BRANCH   6   7
HETATM    7  C           1     -22.178  -8.508   0.439  0.00  0.00     0.004 C 
BRANCH   7   8
HETATM    8  C           1     -23.024  -9.687  -0.025  0.00  0.00     0.027 C 
BRANCH   8   9
HETATM    9  C           1     -22.147 -10.927  -0.141  0.00  0.00     0.229 C 
BRANCH   9  10
HETATM   10  N           1     -20.913 -10.748   0.693  0.00  0.00    -0.079 N 
HETATM   11  H           1     -20.816  -9.743   0.962  0.00  0.00     0.274 HD
HETATM   12  H           1     -20.075 -11.043   0.141  0.00  0.00     0.274 HD
HETATM   13  H           1     -20.987 -11.334   1.555  0.00  0.00     0.274 HD
ENDBRANCH   9  10
ENDBRANCH   8   9
ENDBRANCH   7   8
ENDBRANCH   6   7
ENDBRANCH   5   6
BRANCH   5  14
HETATM   14  N           1     -20.325  -7.807  -1.621  0.00  0.00    -0.067 N 
HETATM   15  H           1     -20.083  -7.699  -0.610  0.00  0.00     0.275 HD
HETATM   16  H           1     -19.764  -7.130  -2.187  0.00  0.00     0.275 HD
HETATM   17  H           1     -20.109  -8.782  -1.929  0.00  0.00     0.275 HD
ENDBRANCH   5  14
ENDBRANCH   3   5
BRANCH   1  18
HETATM   18  C           1     -21.781  -6.658  -5.078  0.00  0.00     0.189 C 
BRANCH  18  19
HETATM   19  C           1     -20.995  -7.930  -4.882  0.00  0.00     0.197 C 
HETATM   20  O           1     -21.581  -9.034  -4.884  0.00  0.00    -0.646 OA
HETATM   21  O           1     -19.756  -7.880  -4.719  0.00  0.00    -0.646 OA
ENDBRANCH  18  19
BRANCH  18  22
HETATM   22  C           1     -20.823  -5.500  -5.323  0.00  0.00     0.074 C 
BRANCH  22  23
HETATM   23  C           1     -20.996  -4.997  -6.722  0.00  0.00    -0.056 A 
HETATM   24  C           1     -22.237  -4.524  -7.146  0.00  0.00     0.007 A 
HETATM   25  C           1     -22.398  -4.057  -8.451  0.00  0.00     0.001 A 
HETATM   26  C           1     -21.316  -4.060  -9.330  0.00  0.00     0.000 A 
HETATM   27  C           1     -20.073  -4.533  -8.907  0.00  0.00     0.001 A 
HETATM   28  C           1     -19.913  -5.000  -7.602  0.00  0.00     0.007 A 
ENDBRANCH  22  23
ENDBRANCH  18  22
ENDBRANCH   1  18
TORSDOF 11
ENDMDL
MODEL 8
REMARK VINA RESULT:      -6.3     10.193     12.394
REMARK  11 active torsions:
REMARK  status: ('A' for Active; 'I' for Inactive)
REMARK    1  A    between atoms: C_1  and  C_15 
REMARK    2  A    between atoms: C_1  and  C_2 
REMARK    3  A    between atoms: C_2  and  C_3 
REMARK    4  A    between atoms: C_3  and  C_23 
REMARK    5  A    between atoms: N_8  and  C_15 
REMARK    6  A    between atoms: C_9  and  C_16 
REMARK    7  A    between atoms: N_11  and  C_16 
REMARK       I    between atoms: N_11  and  C_14 
REMARK    8  A    between atoms: C_13  and  C_25 
REMARK    9  A    between atoms: C_14  and  C_15 
REMARK   10  A    between atoms: C_16  and  C_25 
REMARK   11  A    between atoms: N_17  and  C_23 
ROOT
HETATM    1  N           1     -27.875  -6.729 -16.387  0.00  0.00    -0.344 N 
HETATM    2  H           1     -28.067  -5.997 -15.715  0.00  0.00     0.163 HD
HETATM    3  C           1     -28.882  -7.560 -16.799  0.00  0.00     0.249 C 
HETATM    4  O           1     -29.103  -8.585 -16.201  0.00  0.00    -0.271 OA
ENDROOT
BRANCH   3   5
HETATM    5  C           1     -29.716  -7.194 -18.003  0.00  0.00     0.274 C 
BRANCH   5   6
HETATM    6  C           1     -31.099  -6.748 -17.546  0.00  0.00     0.042 C 
BRANCH   6   7
HETATM    7  C           1     -31.000  -5.380 -16.884  0.00  0.00     0.004 C 
BRANCH   7   8
HETATM    8  C           1     -32.397  -4.796 -16.714  0.00  0.00     0.027 C 
BRANCH   8   9
HETATM    9  C           1     -32.507  -3.500 -17.505  0.00  0.00     0.229 C 
BRANCH   9  10
HETATM   10  N           1     -33.899  -2.955 -17.381  0.00  0.00    -0.079 N 
HETATM   11  H           1     -34.026  -2.535 -16.434  0.00  0.00     0.274 HD
HETATM   12  H           1     -34.589  -3.729 -17.515  0.00  0.00     0.274 HD
HETATM   13  H           1     -34.053  -2.222 -18.111  0.00  0.00     0.274 HD
ENDBRANCH   9  10
ENDBRANCH   8   9
ENDBRANCH   7   8
ENDBRANCH   6   7
ENDBRANCH   5   6
BRANCH   5  14
HETATM   14  N           1     -29.848  -8.388 -18.901  0.00  0.00    -0.067 N 
HETATM   15  H           1     -29.710  -9.260 -18.342  0.00  0.00     0.275 HD
HETATM   16  H           1     -29.124  -8.340 -19.654  0.00  0.00     0.275 HD
HETATM   17  H           1     -30.800  -8.397 -19.333  0.00  0.00     0.275 HD
ENDBRANCH   5  14
ENDBRANCH   3   5
BRANCH   1  18
HETATM   18  C           1     -26.534  -6.897 -16.912  0.00  0.00     0.189 C 
BRANCH  18  19
HETATM   19  C           1     -25.529  -6.572 -15.836  0.00  0.00     0.197 C 
HETATM   20  O           1     -25.076  -5.412 -15.733  0.00  0.00    -0.646 OA
HETATM   21  O           1     -25.149  -7.464 -15.046  0.00  0.00    -0.646 OA
ENDBRANCH  18  19
BRANCH  18  22
HETATM   22  C           1     -26.332  -5.961 -18.096  0.00  0.00     0.074 C 
BRANCH  22  23
HETATM   23  C           1     -25.770  -6.731 -19.251  0.00  0.00    -0.056 A 
HETATM   24  C           1     -26.602  -7.129 -20.296  0.00  0.00     0.007 A 
HETATM   25  C           1     -26.079  -7.847 -21.371  0.00  0.00     0.001 A 
HETATM   26  C           1     -24.721  -8.165 -21.401  0.00  0.00     0.000 A 
HETATM   27  C           1     -23.887  -7.766 -20.356  0.00  0.00     0.001 A 
HETATM   28  C           1     -24.412  -7.048 -19.281  0.00  0.00     0.007 A 
ENDBRANCH  22  23
ENDBRANCH  18  22
ENDBRANCH   1  18
TORSDOF 11
ENDMDL
MODEL 9
REMARK VINA RESULT:      -6.2     14.124     16.149
REMARK  11 active torsions:
REMARK  status: ('A' for Active; 'I' for Inactive)
REMARK    1  A    between atoms: C_1  and  C_15 
REMARK    2  A    between atoms: C_1  and  C_2 
REMARK    3  A    between atoms: C_2  and  C_3 
REMARK    4  A    between atoms: C_3  and  C_23 
REMARK    5  A    between atoms: N_8  and  C_15 
REMARK    6  A    between atoms: C_9  and  C_16 
REMARK    7  A    between atoms: N_11  and  C_16 
REMARK       I    between atoms: N_11  and  C_14 
REMARK    8  A    between atoms: C_13  and  C_25 
REMARK    9  A    between atoms: C_14  and  C_15 
REMARK   10  A    between atoms: C_16  and  C_25 
REMARK   11  A    between atoms: N_17  and  C_23 
ROOT
HETATM    1  N           1     -22.294  -5.873  -5.611  0.00  0.00    -0.344 N 
HETATM    2  H           1     -23.269  -5.612  -5.540  0.00  0.00     0.163 HD
HETATM    3  C           1     -21.672  -6.486  -4.556  0.00  0.00     0.249 C 
HETATM    4  O           1     -21.119  -5.823  -3.711  0.00  0.00    -0.271 OA
ENDROOT
BRANCH   3   5
HETATM    5  C           1     -21.676  -7.992  -4.450  0.00  0.00     0.274 C 
BRANCH   5   6
HETATM    6  C           1     -20.636  -8.431  -3.427  0.00  0.00     0.042 C 
BRANCH   6   7
HETATM    7  C           1     -21.171  -9.619  -2.637  0.00  0.00     0.004 C 
BRANCH   7   8
HETATM    8  C           1     -22.034  -9.116  -1.487  0.00  0.00     0.027 C 
BRANCH   8   9
HETATM    9  C           1     -21.385  -7.889  -0.862  0.00  0.00     0.229 C 
BRANCH   9  10
HETATM   10  N           1     -22.340  -6.734  -0.918  0.00  0.00    -0.079 N 
HETATM   11  H           1     -21.836  -5.851  -0.677  0.00  0.00     0.274 HD
HETATM   12  H           1     -23.115  -6.890  -0.233  0.00  0.00     0.274 HD
HETATM   13  H           1     -22.738  -6.656  -1.882  0.00  0.00     0.274 HD
ENDBRANCH   9  10
ENDBRANCH   8   9
ENDBRANCH   7   8
ENDBRANCH   6   7
ENDBRANCH   5   6
BRANCH   5  14
HETATM   14  N           1     -21.343  -8.587  -5.786  0.00  0.00    -0.067 N 
HETATM   15  H           1     -20.694  -9.397  -5.654  0.00  0.00     0.275 HD
HETATM   16  H           1     -20.882  -7.866  -6.385  0.00  0.00     0.275 HD
HETATM   17  H           1     -22.220  -8.916  -6.250  0.00  0.00     0.275 HD
ENDBRANCH   5  14
ENDBRANCH   3   5
BRANCH   1  18
HETATM   18  C           1     -21.556  -5.597  -6.828  0.00  0.00     0.189 C 
BRANCH  18  19
HETATM   19  C           1     -20.077  -5.604  -6.531  0.00  0.00     0.197 C 
HETATM   20  O           1     -19.532  -4.587  -6.050  0.00  0.00    -0.646 OA
HETATM   21  O           1     -19.398  -6.627  -6.766  0.00  0.00    -0.646 OA
ENDBRANCH  18  19
BRANCH  18  22
HETATM   22  C           1     -21.961  -4.232  -7.367  0.00  0.00     0.074 C 
BRANCH  22  23
HETATM   23  C           1     -21.908  -4.250  -8.863  0.00  0.00    -0.056 A 
HETATM   24  C           1     -23.072  -4.462  -9.600  0.00  0.00     0.007 A 
HETATM   25  C           1     -23.023  -4.480 -10.994  0.00  0.00     0.001 A 
HETATM   26  C           1     -21.808  -4.284 -11.651  0.00  0.00     0.000 A 
HETATM   27  C           1     -20.642  -4.072 -10.914  0.00  0.00     0.001 A 
HETATM   28  C           1     -20.693  -4.054  -9.520  0.00  0.00     0.007 A 
ENDBRANCH  22  23
ENDBRANCH  18  22
ENDBRANCH   1  18
TORSDOF 11
ENDMDL
