MODEL 1
REMARK VINA RESULT:      -6.7      0.000      0.000
REMARK  6 active torsions:
REMARK  status: ('A' for Active; 'I' for Inactive)
REMARK    1  A    between atoms: C_4  and  C_19 
REMARK    2  A    between atoms: C_4  and  N_20 
REMARK    3  A    between atoms: C_5  and  C_14 
REMARK    4  A    between atoms: N_8  and  C_14 
REMARK       I    between atoms: N_8  and  C_19 
REMARK    5  A    between atoms: C_12  and  C_13 
REMARK    6  A    between atoms: C_13  and  C_14 
ROOT
HETATM    1  C           1     -23.421  -4.211  -9.797  0.00  0.00     0.189 C 
ENDROOT
BRANCH   1   2
HETATM    2  C           1     -24.639  -3.376 -10.109  0.00  0.00     0.197 C 
HETATM    3  O           1     -25.203  -2.730  -9.200  0.00  0.00    -0.646 OA
HETATM    4  O           1     -25.083  -3.330 -11.277  0.00  0.00    -0.646 OA
ENDBRANCH   1   2
BRANCH   1   5
HETATM    5  N           1     -22.904  -4.786 -11.023  0.00  0.00    -0.345 N 
HETATM    6  H           1     -23.311  -5.635 -11.396  0.00  0.00     0.163 HD
HETATM    7  C           1     -21.863  -4.182 -11.677  0.00  0.00     0.243 C 
HETATM    8  O           1     -20.725  -4.485 -11.410  0.00  0.00    -0.272 OA
BRANCH   7   9
HETATM    9  C           1     -22.139  -3.138 -12.730  0.00  0.00     0.332 C 
BRANCH   9  10
HETATM   10  N           1     -23.261  -3.598 -13.611  0.00  0.00    -0.071 N 
HETATM   11  H           1     -23.678  -2.777 -14.104  0.00  0.00     0.274 HD
HETATM   12  H           1     -23.994  -4.063 -13.029  0.00  0.00     0.274 HD
HETATM   13  H           1     -22.894  -4.276 -14.316  0.00  0.00     0.274 HD
ENDBRANCH   9  10
ENDBRANCH   7   9
ENDBRANCH   1   5
BRANCH   1  14
HETATM   14  C           1     -22.353  -3.332  -9.160  0.00  0.00     0.074 C 
BRANCH  14  15
HETATM   15  C           1     -21.698  -4.077  -8.039  0.00  0.00    -0.056 A 
HETATM   16  C           1     -22.478  -4.777  -7.118  0.00  0.00     0.007 A 
HETATM   17  C           1     -21.868  -5.471  -6.072  0.00  0.00     0.001 A 
HETATM   18  C           1     -20.479  -5.464  -5.948  0.00  0.00     0.000 A 
HETATM   19  C           1     -19.699  -4.763  -6.868  0.00  0.00     0.001 A 
HETATM   20  C           1     -20.309  -4.070  -7.913  0.00  0.00     0.007 A 
ENDBRANCH  14  15
ENDBRANCH   1  14
TORSDOF 6
ENDMDL
MODEL 2
REMARK VINA RESULT:      -6.3      1.691      2.314
REMARK  6 active torsions:
REMARK  status: ('A' for Active; 'I' for Inactive)
REMARK    1  A    between atoms: C_4  and  C_19 
REMARK    2  A    between atoms: C_4  and  N_20 
REMARK    3  A    between atoms: C_5  and  C_14 
REMARK    4  A    between atoms: N_8  and  C_14 
REMARK       I    between atoms: N_8  and  C_19 
REMARK    5  A    between atoms: C_12  and  C_13 
REMARK    6  A    between atoms: C_13  and  C_14 
ROOT
HETATM    1  C           1     -22.901  -3.711 -10.655  0.00  0.00     0.189 C 
ENDROOT
BRANCH   1   2
HETATM    2  C           1     -23.907  -4.825 -10.815  0.00  0.00     0.197 C 
HETATM    3  O           1     -24.912  -4.871 -10.074  0.00  0.00    -0.646 OA
HETATM    4  O           1     -23.734  -5.701 -11.690  0.00  0.00    -0.646 OA
ENDBRANCH   1   2
BRANCH   1   5
HETATM    5  N           1     -23.277  -2.595 -11.501  0.00  0.00    -0.345 N 
HETATM    6  H           1     -23.167  -1.647 -11.167  0.00  0.00     0.163 HD
HETATM    7  C           1     -23.783  -2.826 -12.752  0.00  0.00     0.243 C 
HETATM    8  O           1     -24.974  -2.955 -12.908  0.00  0.00    -0.272 OA
BRANCH   7   9
HETATM    9  C           1     -22.853  -2.919 -13.936  0.00  0.00     0.332 C 
BRANCH   9  10
HETATM   10  N           1     -23.316  -1.983 -15.013  0.00  0.00    -0.071 N 
HETATM   11  H           1     -22.749  -1.107 -14.982  0.00  0.00     0.274 HD
HETATM   12  H           1     -24.324  -1.752 -14.864  0.00  0.00     0.274 HD
HETATM   13  H           1     -23.197  -2.441 -15.945  0.00  0.00     0.274 HD
ENDBRANCH   9  10
ENDBRANCH   7   9
ENDBRANCH   1   5
BRANCH   1  14
HETATM   14  C           1     -22.874  -3.257  -9.201  0.00  0.00     0.074 C 
BRANCH  14  15
HETATM   15  C           1     -21.690  -3.860  -8.512  0.00  0.00    -0.056 A 
HETATM   16  C           1     -20.640  -4.386  -9.264  0.00  0.00     0.007 A 
HETATM   17  C           1     -19.536  -4.949  -8.622  0.00  0.00     0.001 A 
HETATM   18  C           1     -19.483  -4.986  -7.229  0.00  0.00     0.000 A 
HETATM   19  C           1     -20.534  -4.460  -6.477  0.00  0.00     0.001 A 
HETATM   20  C           1     -21.637  -3.897  -7.118  0.00  0.00     0.007 A 
ENDBRANCH  14  15
ENDBRANCH   1  14
TORSDOF 6
ENDMDL
MODEL 3
REMARK VINA RESULT:      -6.1      3.823      6.151
REMARK  6 active torsions:
REMARK  status: ('A' for Active; 'I' for Inactive)
REMARK    1  A    between atoms: C_4  and  C_19 
REMARK    2  A    between atoms: C_4  and  N_20 
REMARK    3  A    between atoms: C_5  and  C_14 
REMARK    4  A    between atoms: N_8  and  C_14 
REMARK       I    between atoms: N_8  and  C_19 
REMARK    5  A    between atoms: C_12  and  C_13 
REMARK    6  A    between atoms: C_13  and  C_14 
ROOT
HETATM    1  C           1     -21.564  -5.380  -7.040  0.00  0.00     0.189 C 
ENDROOT
BRANCH   1   2
HETATM    2  C           1     -20.072  -5.502  -6.846  0.00  0.00     0.197 C 
HETATM    3  O           1     -19.500  -6.589  -7.075  0.00  0.00    -0.646 OA
HETATM    4  O           1     -19.410  -4.516  -6.456  0.00  0.00    -0.646 OA
ENDBRANCH   1   2
BRANCH   1   5
HETATM    5  N           1     -22.232  -5.556  -5.765  0.00  0.00    -0.345 N 
HETATM    6  H           1     -23.109  -5.084  -5.584  0.00  0.00     0.163 HD
HETATM    7  C           1     -21.677  -6.360  -4.807  0.00  0.00     0.243 C 
HETATM    8  O           1     -20.910  -5.896  -3.998  0.00  0.00    -0.272 OA
BRANCH   7   9
HETATM    9  C           1     -22.023  -7.828  -4.761  0.00  0.00     0.332 C 
BRANCH   9  10
HETATM   10  N           1     -21.020  -8.605  -5.561  0.00  0.00    -0.071 N 
HETATM   11  H           1     -21.510  -9.345  -6.112  0.00  0.00     0.274 HD
HETATM   12  H           1     -20.330  -9.051  -4.916  0.00  0.00     0.274 HD
HETATM   13  H           1     -20.521  -7.959  -6.214  0.00  0.00     0.274 HD
ENDBRANCH   9  10
ENDBRANCH   7   9
ENDBRANCH   1   5
BRANCH   1  14
HETATM   14  C           1     -21.892  -4.001  -7.598  0.00  0.00     0.074 C 
BRANCH  14  15
HETATM   15  C           1     -22.144  -4.105  -9.069  0.00  0.00    -0.056 A 
HETATM   16  C           1     -21.081  -4.004  -9.967  0.00  0.00     0.007 A 
HETATM   17  C           1     -21.316  -4.101 -11.340  0.00  0.00     0.001 A 
HETATM   18  C           1     -22.613  -4.298 -11.813  0.00  0.00     0.000 A 
HETATM   19  C           1     -23.676  -4.398 -10.915  0.00  0.00     0.001 A 
HETATM   20  C           1     -23.441  -4.302  -9.544  0.00  0.00     0.007 A 
ENDBRANCH  14  15
ENDBRANCH   1  14
TORSDOF 6
ENDMDL
MODEL 4
REMARK VINA RESULT:      -5.9      4.874      7.067
REMARK  6 active torsions:
REMARK  status: ('A' for Active; 'I' for Inactive)
REMARK    1  A    between atoms: C_4  and  C_19 
REMARK    2  A    between atoms: C_4  and  N_20 
REMARK    3  A    between atoms: C_5  and  C_14 
REMARK    4  A    between atoms: N_8  and  C_14 
REMARK       I    between atoms: N_8  and  C_19 
REMARK    5  A    between atoms: C_12  and  C_13 
REMARK    6  A    between atoms: C_13  and  C_14 
ROOT
HETATM    1  C           1     -20.960  -5.921  -5.052  0.00  0.00     0.189 C 
ENDROOT
BRANCH   1   2
HETATM    2  C           1     -20.610  -7.170  -5.824  0.00  0.00     0.197 C 
HETATM    3  O           1     -19.417  -7.424  -6.094  0.00  0.00    -0.646 OA
HETATM    4  O           1     -21.514  -7.951  -6.193  0.00  0.00    -0.646 OA
ENDBRANCH   1   2
BRANCH   1   5
HETATM    5  N           1     -20.520  -6.064  -3.678  0.00  0.00    -0.345 N 
HETATM    6  H           1     -19.686  -5.586  -3.362  0.00  0.00     0.163 HD
HETATM    7  C           1     -21.232  -6.845  -2.809  0.00  0.00     0.243 C 
HETATM    8  O           1     -20.970  -8.019  -2.697  0.00  0.00    -0.272 OA
BRANCH   7   9
HETATM    9  C           1     -22.347  -6.240  -1.991  0.00  0.00     0.332 C 
BRANCH   9  10
HETATM   10  N           1     -22.516  -7.019  -0.721  0.00  0.00    -0.071 N 
HETATM   11  H           1     -22.165  -6.455   0.085  0.00  0.00     0.274 HD
HETATM   12  H           1     -21.975  -7.911  -0.784  0.00  0.00     0.274 HD
HETATM   13  H           1     -23.528  -7.235  -0.578  0.00  0.00     0.274 HD
ENDBRANCH   9  10
ENDBRANCH   7   9
ENDBRANCH   1   5
BRANCH   1  14
HETATM   14  C           1     -20.265  -4.722  -5.685  0.00  0.00     0.074 C 
BRANCH  14  15
HETATM   15  C           1     -20.823  -4.487  -7.054  0.00  0.00    -0.056 A 
HETATM   16  C           1     -22.196  -4.315  -7.226  0.00  0.00     0.007 A 
HETATM   17  C           1     -22.717  -4.096  -8.503  0.00  0.00     0.001 A 
HETATM   18  C           1     -21.864  -4.051  -9.605  0.00  0.00     0.000 A 
HETATM   19  C           1     -20.491  -4.225  -9.433  0.00  0.00     0.001 A 
HETATM   20  C           1     -19.971  -4.443  -8.158  0.00  0.00     0.007 A 
ENDBRANCH  14  15
ENDBRANCH   1  14
TORSDOF 6
ENDMDL
MODEL 5
REMARK VINA RESULT:      -5.9      1.302      2.602
REMARK  6 active torsions:
REMARK  status: ('A' for Active; 'I' for Inactive)
REMARK    1  A    between atoms: C_4  and  C_19 
REMARK    2  A    between atoms: C_4  and  N_20 
REMARK    3  A    between atoms: C_5  and  C_14 
REMARK    4  A    between atoms: N_8  and  C_14 
REMARK       I    between atoms: N_8  and  C_19 
REMARK    5  A    between atoms: C_12  and  C_13 
REMARK    6  A    between atoms: C_13  and  C_14 
ROOT
HETATM    1  C           1     -21.961  -3.544  -9.560  0.00  0.00     0.189 C 
ENDROOT
BRANCH   1   2
HETATM    2  C           1     -21.057  -3.593 -10.768  0.00  0.00     0.197 C 
HETATM    3  O           1     -20.450  -4.648 -11.051  0.00  0.00    -0.646 OA
HETATM    4  O           1     -20.915  -2.578 -11.484  0.00  0.00    -0.646 OA
ENDBRANCH   1   2
BRANCH   1   5
HETATM    5  N           1     -23.255  -3.015  -9.947  0.00  0.00    -0.345 N 
HETATM    6  H           1     -23.509  -2.067  -9.698  0.00  0.00     0.163 HD
HETATM    7  C           1     -24.132  -3.797 -10.647  0.00  0.00     0.243 C 
HETATM    8  O           1     -24.929  -4.489 -10.058  0.00  0.00    -0.272 OA
BRANCH   7   9
HETATM    9  C           1     -24.104  -3.797 -12.156  0.00  0.00     0.332 C 
BRANCH   9  10
HETATM   10  N           1     -23.790  -2.417 -12.652  0.00  0.00    -0.071 N 
HETATM   11  H           1     -22.808  -2.169 -12.399  0.00  0.00     0.274 HD
HETATM   12  H           1     -24.446  -1.731 -12.213  0.00  0.00     0.274 HD
HETATM   13  H           1     -23.900  -2.388 -13.690  0.00  0.00     0.274 HD
ENDBRANCH   9  10
ENDBRANCH   7   9
ENDBRANCH   1   5
BRANCH   1  14
HETATM   14  C           1     -22.136  -4.949  -9.000  0.00  0.00     0.074 C 
BRANCH  14  15
HETATM   15  C           1     -21.486  -5.034  -7.654  0.00  0.00    -0.056 A 
HETATM   16  C           1     -22.173  -5.604  -6.583  0.00  0.00     0.007 A 
HETATM   17  C           1     -21.568  -5.683  -5.327  0.00  0.00     0.001 A 
HETATM   18  C           1     -20.276  -5.191  -5.145  0.00  0.00     0.000 A 
HETATM   19  C           1     -19.588  -4.620  -6.216  0.00  0.00     0.001 A 
HETATM   20  C           1     -20.194  -4.542  -7.470  0.00  0.00     0.007 A 
ENDBRANCH  14  15
ENDBRANCH   1  14
TORSDOF 6
ENDMDL
MODEL 6
REMARK VINA RESULT:      -5.8      6.221      8.345
REMARK  6 active torsions:
REMARK  status: ('A' for Active; 'I' for Inactive)
REMARK    1  A    between atoms: C_4  and  C_19 
REMARK    2  A    between atoms: C_4  and  N_20 
REMARK    3  A    between atoms: C_5  and  C_14 
REMARK    4  A    between atoms: N_8  and  C_14 
REMARK       I    between atoms: N_8  and  C_19 
REMARK    5  A    between atoms: C_12  and  C_13 
REMARK    6  A    between atoms: C_13  and  C_14 
ROOT
HETATM    1  C           1     -21.040  -7.873  -4.179  0.00  0.00     0.189 C 
ENDROOT
BRANCH   1   2
HETATM    2  C           1     -21.720  -7.040  -5.238  0.00  0.00     0.197 C 
HETATM    3  O           1     -22.679  -6.299  -4.930  0.00  0.00    -0.646 OA
HETATM    4  O           1     -21.325  -7.091  -6.423  0.00  0.00    -0.646 OA
ENDBRANCH   1   2
BRANCH   1   5
HETATM    5  N           1     -19.698  -8.206  -4.615  0.00  0.00    -0.345 N 
HETATM    6  H           1     -19.023  -7.470  -4.782  0.00  0.00     0.163 HD
HETATM    7  C           1     -19.344  -9.515  -4.803  0.00  0.00     0.243 C 
HETATM    8  O           1     -19.499 -10.034  -5.882  0.00  0.00    -0.272 OA
BRANCH   7   9
HETATM    9  C           1     -18.763 -10.310  -3.660  0.00  0.00     0.332 C 
BRANCH   9  10
HETATM   10  N           1     -17.977  -9.399  -2.764  0.00  0.00    -0.071 N 
HETATM   11  H           1     -17.642  -8.574  -3.310  0.00  0.00     0.274 HD
HETATM   12  H           1     -17.156  -9.916  -2.375  0.00  0.00     0.274 HD
HETATM   13  H           1     -18.586  -9.073  -1.980  0.00  0.00     0.274 HD
ENDBRANCH   9  10
ENDBRANCH   7   9
ENDBRANCH   1   5
BRANCH   1  14
HETATM   14  C           1     -20.969  -7.082  -2.879  0.00  0.00     0.074 C 
BRANCH  14  15
HETATM   15  C           1     -21.711  -7.816  -1.807  0.00  0.00    -0.056 A 
HETATM   16  C           1     -21.823  -9.205  -1.864  0.00  0.00     0.007 A 
HETATM   17  C           1     -22.515  -9.891  -0.864  0.00  0.00     0.001 A 
HETATM   18  C           1     -23.095  -9.187   0.191  0.00  0.00     0.000 A 
HETATM   19  C           1     -22.983  -7.797   0.247  0.00  0.00     0.001 A 
HETATM   20  C           1     -22.291  -7.113  -0.751  0.00  0.00     0.007 A 
ENDBRANCH  14  15
ENDBRANCH   1  14
TORSDOF 6
ENDMDL
MODEL 7
REMARK VINA RESULT:      -5.8      6.215      8.361
REMARK  6 active torsions:
REMARK  status: ('A' for Active; 'I' for Inactive)
REMARK    1  A    between atoms: C_4  and  C_19 
REMARK    2  A    between atoms: C_4  and  N_20 
REMARK    3  A    between atoms: C_5  and  C_14 
REMARK    4  A    between atoms: N_8  and  C_14 
REMARK       I    between atoms: N_8  and  C_19 
REMARK    5  A    between atoms: C_12  and  C_13 
REMARK    6  A    between atoms: C_13  and  C_14 
ROOT
HETATM    1  C           1     -21.042  -7.875  -4.188  0.00  0.00     0.189 C 
ENDROOT
BRANCH   1   2
HETATM    2  C           1     -21.724  -7.031  -5.237  0.00  0.00     0.197 C 
HETATM    3  O           1     -21.321  -7.058  -6.420  0.00  0.00    -0.646 OA
HETATM    4  O           1     -22.694  -6.307  -4.923  0.00  0.00    -0.646 OA
ENDBRANCH   1   2
BRANCH   1   5
HETATM    5  N           1     -19.707  -8.218  -4.638  0.00  0.00    -0.345 N 
HETATM    6  H           1     -19.033  -7.487  -4.828  0.00  0.00     0.163 HD
HETATM    7  C           1     -19.358  -9.531  -4.809  0.00  0.00     0.243 C 
HETATM    8  O           1     -19.530 -10.068  -5.877  0.00  0.00    -0.272 OA
BRANCH   7   9
HETATM    9  C           1     -18.761 -10.307  -3.662  0.00  0.00     0.332 C 
BRANCH   9  10
HETATM   10  N           1     -17.991  -9.376  -2.772  0.00  0.00    -0.071 N 
HETATM   11  H           1     -18.582  -9.104  -1.955  0.00  0.00     0.274 HD
HETATM   12  H           1     -17.726  -8.520  -3.310  0.00  0.00     0.274 HD
HETATM   13  H           1     -17.127  -9.855  -2.433  0.00  0.00     0.274 HD
ENDBRANCH   9  10
ENDBRANCH   7   9
ENDBRANCH   1   5
BRANCH   1  14
HETATM   14  C           1     -20.950  -7.090  -2.886  0.00  0.00     0.074 C 
BRANCH  14  15
HETATM   15  C           1     -21.700  -7.816  -1.812  0.00  0.00    -0.056 A 
HETATM   16  C           1     -22.291  -7.101  -0.770  0.00  0.00     0.007 A 
HETATM   17  C           1     -22.989  -7.778   0.231  0.00  0.00     0.001 A 
HETATM   18  C           1     -23.095  -9.167   0.190  0.00  0.00     0.000 A 
HETATM   19  C           1     -22.503  -9.882  -0.852  0.00  0.00     0.001 A 
HETATM   20  C           1     -21.806  -9.206  -1.852  0.00  0.00     0.007 A 
ENDBRANCH  14  15
ENDBRANCH   1  14
TORSDOF 6
ENDMDL
MODEL 8
REMARK VINA RESULT:      -5.8      5.541      7.309
REMARK  6 active torsions:
REMARK  status: ('A' for Active; 'I' for Inactive)
REMARK    1  A    between atoms: C_4  and  C_19 
REMARK    2  A    between atoms: C_4  and  N_20 
REMARK    3  A    between atoms: C_5  and  C_14 
REMARK    4  A    between atoms: N_8  and  C_14 
REMARK       I    between atoms: N_8  and  C_19 
REMARK    5  A    between atoms: C_12  and  C_13 
REMARK    6  A    between atoms: C_13  and  C_14 
ROOT
HETATM    1  C           1     -21.019  -7.210  -3.783  0.00  0.00     0.189 C 
ENDROOT
BRANCH   1   2
HETATM    2  C           1     -21.692  -6.782  -2.502  0.00  0.00     0.197 C 
HETATM    3  O           1     -22.520  -5.845  -2.514  0.00  0.00    -0.646 OA
HETATM    4  O           1     -21.422  -7.364  -1.429  0.00  0.00    -0.646 OA
ENDBRANCH   1   2
BRANCH   1   5
HETATM    5  N           1     -20.661  -8.612  -3.695  0.00  0.00    -0.345 N 
HETATM    6  H           1     -21.379  -9.309  -3.537  0.00  0.00     0.163 HD
HETATM    7  C           1     -19.354  -8.995  -3.826  0.00  0.00     0.243 C 
HETATM    8  O           1     -18.644  -9.063  -2.851  0.00  0.00    -0.272 OA
BRANCH   7   9
HETATM    9  C           1     -18.798  -9.329  -5.188  0.00  0.00     0.332 C 
BRANCH   9  10
HETATM   10  N           1     -19.812 -10.117  -5.964  0.00  0.00    -0.071 N 
HETATM   11  H           1     -20.748  -9.663  -5.877  0.00  0.00     0.274 HD
HETATM   12  H           1     -19.860 -11.090  -5.586  0.00  0.00     0.274 HD
HETATM   13  H           1     -19.532 -10.148  -6.970  0.00  0.00     0.274 HD
ENDBRANCH   9  10
ENDBRANCH   7   9
ENDBRANCH   1   5
BRANCH   1  14
HETATM   14  C           1     -21.975  -7.003  -4.952  0.00  0.00     0.074 C 
BRANCH  14  15
HETATM   15  C           1     -21.434  -5.940  -5.856  0.00  0.00    -0.056 A 
HETATM   16  C           1     -22.307  -5.074  -6.513  0.00  0.00     0.007 A 
HETATM   17  C           1     -21.803  -4.083  -7.357  0.00  0.00     0.001 A 
HETATM   18  C           1     -20.427  -3.960  -7.543  0.00  0.00     0.000 A 
HETATM   19  C           1     -19.553  -4.827  -6.887  0.00  0.00     0.001 A 
HETATM   20  C           1     -20.057  -5.817  -6.044  0.00  0.00     0.007 A 
ENDBRANCH  14  15
ENDBRANCH   1  14
TORSDOF 6
ENDMDL
MODEL 9
REMARK VINA RESULT:      -5.8      1.413      2.088
REMARK  6 active torsions:
REMARK  status: ('A' for Active; 'I' for Inactive)
REMARK    1  A    between atoms: C_4  and  C_19 
REMARK    2  A    between atoms: C_4  and  N_20 
REMARK    3  A    between atoms: C_5  and  C_14 
REMARK    4  A    between atoms: N_8  and  C_14 
REMARK       I    between atoms: N_8  and  C_19 
REMARK    5  A    between atoms: C_12  and  C_13 
REMARK    6  A    between atoms: C_13  and  C_14 
ROOT
HETATM    1  C           1     -23.046  -3.945  -9.535  0.00  0.00     0.189 C 
ENDROOT
BRANCH   1   2
HETATM    2  C           1     -24.516  -4.127  -9.828  0.00  0.00     0.197 C 
HETATM    3  O           1     -25.224  -3.136 -10.110  0.00  0.00    -0.646 OA
HETATM    4  O           1     -25.025  -5.268  -9.788  0.00  0.00    -0.646 OA
ENDBRANCH   1   2
BRANCH   1   5
HETATM    5  N           1     -22.474  -3.021 -10.496  0.00  0.00    -0.345 N 
HETATM    6  H           1     -22.650  -2.028 -10.411  0.00  0.00     0.163 HD
HETATM    7  C           1     -21.697  -3.493 -11.519  0.00  0.00     0.243 C 
HETATM    8  O           1     -22.204  -3.801 -12.571  0.00  0.00    -0.272 OA
BRANCH   7   9
HETATM    9  C           1     -20.206  -3.630 -11.332  0.00  0.00     0.332 C 
BRANCH   9  10
HETATM   10  N           1     -19.905  -4.921 -10.631  0.00  0.00    -0.071 N 
HETATM   11  H           1     -20.686  -5.156  -9.980  0.00  0.00     0.274 HD
HETATM   12  H           1     -19.016  -4.824 -10.089  0.00  0.00     0.274 HD
HETATM   13  H           1     -19.800  -5.684 -11.338  0.00  0.00     0.274 HD
ENDBRANCH   9  10
ENDBRANCH   7   9
ENDBRANCH   1   5
BRANCH   1  14
HETATM   14  C           1     -22.874  -3.384  -8.129  0.00  0.00     0.074 C 
BRANCH  14  15
HETATM   15  C           1     -21.908  -4.236  -7.367  0.00  0.00    -0.056 A 
HETATM   16  C           1     -20.540  -3.973  -7.437  0.00  0.00     0.007 A 
HETATM   17  C           1     -19.639  -4.768  -6.727  0.00  0.00     0.001 A 
HETATM   18  C           1     -20.107  -5.826  -5.949  0.00  0.00     0.000 A 
HETATM   19  C           1     -21.475  -6.090  -5.879  0.00  0.00     0.001 A 
HETATM   20  C           1     -22.375  -5.295  -6.588  0.00  0.00     0.007 A 
ENDBRANCH  14  15
ENDBRANCH   1  14
TORSDOF 6
ENDMDL
