MODEL 1
REMARK VINA RESULT:      -6.2      0.000      0.000
REMARK  6 active torsions:
REMARK  status: ('A' for Active; 'I' for Inactive)
REMARK    1  A    between atoms: S_2  and  C_10 
REMARK    2  A    between atoms: C_3  and  C_14 
REMARK       I    between atoms: C_8  and  N_15 
REMARK    3  A    between atoms: C_8  and  C_12 
REMARK    4  A    between atoms: C_10  and  C_11 
REMARK    5  A    between atoms: C_11  and  C_14 
REMARK    6  A    between atoms: C_14  and  N_15 
ROOT
HETATM    1  O           1     -34.434  -3.150 -13.478  0.00  0.00    -0.271 OA
HETATM    2  C           1     -34.223  -2.572 -12.439  0.00  0.00     0.251 C 
HETATM    3  H           1     -34.705  -0.920 -11.288  0.00  0.00     0.163 HD
HETATM    4  N           1     -34.881  -1.404 -12.158  0.00  0.00    -0.345 N 
ENDROOT
BRANCH   4   5
HETATM    5  C           1     -35.831  -0.862 -13.110  0.00  0.00     0.186 C 
BRANCH   5   6
HETATM    6  C           1     -35.132   0.130 -14.007  0.00  0.00     0.196 C 
HETATM    7  O           1     -34.769   1.236 -13.552  0.00  0.00    -0.646 OA
HETATM    8  O           1     -34.917  -0.154 -15.206  0.00  0.00    -0.646 OA
ENDBRANCH   5   6
BRANCH   5   9
HETATM    9  C           1     -36.958  -0.162 -12.362  0.00  0.00     0.046 C 
BRANCH   9  10
HETATM   10  C           1     -37.002  -0.663 -10.924  0.00  0.00     0.076 C 
BRANCH  10  11
HETATM   11  S           1     -37.324   0.729  -9.807  0.00  0.00    -0.173 SA
HETATM   12  C           1     -37.407  -0.253  -8.283  0.00  0.00     0.089 C 
ENDBRANCH  10  11
ENDBRANCH   9  10
ENDBRANCH   5   9
ENDBRANCH   4   5
BRANCH   2  13
HETATM   13  C           1     -33.234  -3.135 -11.449  0.00  0.00     0.311 C 
HETATM   14  C           1     -32.617  -4.421 -11.972  0.00  0.00     0.047 C 
HETATM   15  C           1     -33.464  -5.539 -11.378  0.00  0.00     0.033 C 
HETATM   16  C           1     -34.516  -4.835 -10.537  0.00  0.00     0.271 C 
HETATM   17  N           1     -33.906  -3.547 -10.220  0.00  0.00     0.097 N 
HETATM   18  H           1     -33.233  -3.668  -9.463  0.00  0.00     0.317 HD
ENDBRANCH   2  13
TORSDOF 6
ENDMDL
MODEL 2
REMARK VINA RESULT:      -5.9      1.406      1.564
REMARK  6 active torsions:
REMARK  status: ('A' for Active; 'I' for Inactive)
REMARK    1  A    between atoms: S_2  and  C_10 
REMARK    2  A    between atoms: C_3  and  C_14 
REMARK       I    between atoms: C_8  and  N_15 
REMARK    3  A    between atoms: C_8  and  C_12 
REMARK    4  A    between atoms: C_10  and  C_11 
REMARK    5  A    between atoms: C_11  and  C_14 
REMARK    6  A    between atoms: C_14  and  N_15 
ROOT
HETATM    1  O           1     -36.323  -3.219 -10.696  0.00  0.00    -0.271 OA
HETATM    2  C           1     -35.230  -2.762 -10.930  0.00  0.00     0.251 C 
HETATM    3  H           1     -34.194  -1.250 -11.892  0.00  0.00     0.163 HD
HETATM    4  N           1     -35.109  -1.633 -11.696  0.00  0.00    -0.345 N 
ENDROOT
BRANCH   4   5
HETATM    5  C           1     -36.294  -0.988 -12.227  0.00  0.00     0.186 C 
BRANCH   5   6
HETATM    6  C           1     -36.063  -0.625 -13.673  0.00  0.00     0.196 C 
HETATM    7  O           1     -36.699   0.319 -14.190  0.00  0.00    -0.646 OA
HETATM    8  O           1     -35.235  -1.268 -14.355  0.00  0.00    -0.646 OA
ENDBRANCH   5   6
BRANCH   5   9
HETATM    9  C           1     -36.586   0.276 -11.428  0.00  0.00     0.046 C 
BRANCH   9  10
HETATM   10  C           1     -37.799   0.045 -10.536  0.00  0.00     0.076 C 
BRANCH  10  11
HETATM   11  S           1     -37.770   1.225  -9.158  0.00  0.00    -0.173 SA
HETATM   12  C           1     -36.605   0.295  -8.123  0.00  0.00     0.089 C 
ENDBRANCH  10  11
ENDBRANCH   9  10
ENDBRANCH   5   9
ENDBRANCH   4   5
BRANCH   2  13
HETATM   13  C           1     -33.997  -3.434 -10.379  0.00  0.00     0.311 C 
HETATM   14  C           1     -32.800  -3.196 -11.283  0.00  0.00     0.047 C 
HETATM   15  C           1     -32.745  -4.413 -12.199  0.00  0.00     0.033 C 
HETATM   16  C           1     -33.908  -5.288 -11.765  0.00  0.00     0.271 C 
HETATM   17  N           1     -34.151  -4.886 -10.382  0.00  0.00     0.097 N 
HETATM   18  H           1     -33.459  -5.325  -9.775  0.00  0.00     0.317 HD
ENDBRANCH   2  13
TORSDOF 6
ENDMDL
MODEL 3
REMARK VINA RESULT:      -5.5      2.506      3.450
REMARK  6 active torsions:
REMARK  status: ('A' for Active; 'I' for Inactive)
REMARK    1  A    between atoms: S_2  and  C_10 
REMARK    2  A    between atoms: C_3  and  C_14 
REMARK       I    between atoms: C_8  and  N_15 
REMARK    3  A    between atoms: C_8  and  C_12 
REMARK    4  A    between atoms: C_10  and  C_11 
REMARK    5  A    between atoms: C_11  and  C_14 
REMARK    6  A    between atoms: C_14  and  N_15 
ROOT
HETATM    1  O           1     -33.980  -1.036 -11.496  0.00  0.00    -0.271 OA
HETATM    2  C           1     -34.700  -1.866 -10.994  0.00  0.00     0.251 C 
HETATM    3  H           1     -36.631  -2.288 -10.380  0.00  0.00     0.163 HD
HETATM    4  N           1     -36.028  -1.593 -10.799  0.00  0.00    -0.345 N 
ENDROOT
BRANCH   4   5
HETATM    5  C           1     -36.568  -0.307 -11.195  0.00  0.00     0.186 C 
BRANCH   5   6
HETATM    6  C           1     -37.038   0.438  -9.969  0.00  0.00     0.196 C 
HETATM    7  O           1     -36.397   0.349  -8.900  0.00  0.00    -0.646 OA
HETATM    8  O           1     -38.069   1.144 -10.024  0.00  0.00    -0.646 OA
ENDBRANCH   5   6
BRANCH   5   9
HETATM    9  C           1     -37.743  -0.518 -12.141  0.00  0.00     0.046 C 
BRANCH   9  10
HETATM   10  C           1     -37.465   0.189 -13.461  0.00  0.00     0.076 C 
BRANCH  10  11
HETATM   11  S           1     -36.002  -0.543 -14.244  0.00  0.00    -0.173 SA
HETATM   12  C           1     -35.052   0.998 -14.371  0.00  0.00     0.089 C 
ENDBRANCH  10  11
ENDBRANCH   9  10
ENDBRANCH   5   9
ENDBRANCH   4   5
BRANCH   2  13
HETATM   13  C           1     -34.137  -3.204 -10.582  0.00  0.00     0.311 C 
HETATM   14  C           1     -32.807  -3.467 -11.267  0.00  0.00     0.047 C 
HETATM   15  C           1     -33.153  -4.279 -12.509  0.00  0.00     0.033 C 
HETATM   16  C           1     -34.663  -4.447 -12.465  0.00  0.00     0.271 C 
HETATM   17  N           1     -34.990  -4.293 -11.050  0.00  0.00     0.097 N 
HETATM   18  H           1     -34.776  -5.158 -10.556  0.00  0.00     0.317 HD
ENDBRANCH   2  13
TORSDOF 6
ENDMDL
MODEL 4
REMARK VINA RESULT:      -5.0     15.313     17.069
REMARK  6 active torsions:
REMARK  status: ('A' for Active; 'I' for Inactive)
REMARK    1  A    between atoms: S_2  and  C_10 
REMARK    2  A    between atoms: C_3  and  C_14 
REMARK       I    between atoms: C_8  and  N_15 
REMARK    3  A    between atoms: C_8  and  C_12 
REMARK    4  A    between atoms: C_10  and  C_11 
REMARK    5  A    between atoms: C_11  and  C_14 
REMARK    6  A    between atoms: C_14  and  N_15 
ROOT
HETATM    1  O           1     -22.594  -5.586  -5.806  0.00  0.00    -0.271 OA
HETATM    2  C           1     -21.413  -5.401  -5.629  0.00  0.00     0.251 C 
HETATM    3  H           1     -19.729  -6.044  -4.612  0.00  0.00     0.163 HD
HETATM    4  N           1     -20.717  -6.198  -4.760  0.00  0.00    -0.345 N 
ENDROOT
BRANCH   4   5
HETATM    5  C           1     -21.399  -7.266  -4.054  0.00  0.00     0.186 C 
BRANCH   5   6
HETATM    6  C           1     -21.604  -6.863  -2.614  0.00  0.00     0.196 C 
HETATM    7  O           1     -20.929  -7.403  -1.711  0.00  0.00    -0.646 OA
HETATM    8  O           1     -22.450  -5.989  -2.324  0.00  0.00    -0.646 OA
ENDBRANCH   5   6
BRANCH   5   9
HETATM    9  C           1     -20.555  -8.532  -4.109  0.00  0.00     0.046 C 
BRANCH   9  10
HETATM   10  C           1     -21.460  -9.737  -4.335  0.00  0.00     0.076 C 
BRANCH  10  11
HETATM   11  S           1     -21.108 -11.002  -3.082  0.00  0.00    -0.173 SA
HETATM   12  C           1     -22.496 -10.590  -1.988  0.00  0.00     0.089 C 
ENDBRANCH  10  11
ENDBRANCH   9  10
ENDBRANCH   5   9
ENDBRANCH   4   5
BRANCH   2  13
HETATM   13  C           1     -20.705  -4.289  -6.363  0.00  0.00     0.311 C 
HETATM   14  C           1     -21.590  -3.710  -7.453  0.00  0.00     0.047 C 
HETATM   15  C           1     -21.199  -4.457  -8.722  0.00  0.00     0.033 C 
HETATM   16  C           1     -20.103  -5.418  -8.295  0.00  0.00     0.271 C 
HETATM   17  N           1     -19.549  -4.803  -7.092  0.00  0.00     0.097 N 
HETATM   18  H           1     -18.922  -4.044  -7.357  0.00  0.00     0.317 HD
ENDBRANCH   2  13
TORSDOF 6
ENDMDL
MODEL 5
REMARK VINA RESULT:      -4.9     16.671     18.514
REMARK  6 active torsions:
REMARK  status: ('A' for Active; 'I' for Inactive)
REMARK    1  A    between atoms: S_2  and  C_10 
REMARK    2  A    between atoms: C_3  and  C_14 
REMARK       I    between atoms: C_8  and  N_15 
REMARK    3  A    between atoms: C_8  and  C_12 
REMARK    4  A    between atoms: C_10  and  C_11 
REMARK    5  A    between atoms: C_11  and  C_14 
REMARK    6  A    between atoms: C_14  and  N_15 
ROOT
HETATM    1  O           1     -19.796  -8.175  -1.489  0.00  0.00    -0.271 OA
HETATM    2  C           1     -20.862  -8.734  -1.584  0.00  0.00     0.251 C 
HETATM    3  H           1     -22.504  -9.060  -2.801  0.00  0.00     0.163 HD
HETATM    4  N           1     -21.611  -8.592  -2.721  0.00  0.00    -0.345 N 
ENDROOT
BRANCH   4   5
HETATM    5  C           1     -21.123  -7.770  -3.812  0.00  0.00     0.186 C 
BRANCH   5   6
HETATM    6  C           1     -21.898  -6.475  -3.850  0.00  0.00     0.196 C 
HETATM    7  O           1     -22.115  -5.910  -4.943  0.00  0.00    -0.646 OA
HETATM    8  O           1     -22.322  -5.969  -2.788  0.00  0.00    -0.646 OA
ENDBRANCH   5   6
BRANCH   5   9
HETATM    9  C           1     -21.308  -8.510  -5.130  0.00  0.00     0.046 C 
BRANCH   9  10
HETATM   10  C           1     -20.500  -9.802  -5.106  0.00  0.00     0.076 C 
BRANCH  10  11
HETATM   11  S           1     -18.742  -9.412  -4.885  0.00  0.00    -0.173 SA
HETATM   12  C           1     -18.406 -10.700  -3.652  0.00  0.00     0.089 C 
ENDBRANCH  10  11
ENDBRANCH   9  10
ENDBRANCH   5   9
ENDBRANCH   4   5
BRANCH   2  13
HETATM   13  C           1     -21.371  -9.588  -0.449  0.00  0.00     0.311 C 
HETATM   14  C           1     -22.888  -9.660  -0.462  0.00  0.00     0.047 C 
HETATM   15  C           1     -23.346  -8.564   0.492  0.00  0.00     0.033 C 
HETATM   16  C           1     -22.067  -7.928   1.010  0.00  0.00     0.271 C 
HETATM   17  N           1     -21.063  -8.975   0.841  0.00  0.00     0.097 N 
HETATM   18  H           1     -21.152  -9.656   1.595  0.00  0.00     0.317 HD
ENDBRANCH   2  13
TORSDOF 6
ENDMDL
MODEL 6
REMARK VINA RESULT:      -4.8      2.395      3.225
REMARK  6 active torsions:
REMARK  status: ('A' for Active; 'I' for Inactive)
REMARK    1  A    between atoms: S_2  and  C_10 
REMARK    2  A    between atoms: C_3  and  C_14 
REMARK       I    between atoms: C_8  and  N_15 
REMARK    3  A    between atoms: C_8  and  C_12 
REMARK    4  A    between atoms: C_10  and  C_11 
REMARK    5  A    between atoms: C_11  and  C_14 
REMARK    6  A    between atoms: C_14  and  N_15 
ROOT
HETATM    1  O           1     -36.359  -1.878 -11.966  0.00  0.00    -0.271 OA
HETATM    2  C           1     -35.218  -2.251 -12.106  0.00  0.00     0.251 C 
HETATM    3  H           1     -33.630  -2.394 -13.425  0.00  0.00     0.163 HD
HETATM    4  N           1     -34.585  -2.082 -13.308  0.00  0.00    -0.345 N 
ENDROOT
BRANCH   4   5
HETATM    5  C           1     -35.284  -1.456 -14.413  0.00  0.00     0.186 C 
BRANCH   5   6
HETATM    6  C           1     -34.948  -2.180 -15.694  0.00  0.00     0.196 C 
HETATM    7  O           1     -35.017  -1.580 -16.788  0.00  0.00    -0.646 OA
HETATM    8  O           1     -34.600  -3.381 -15.661  0.00  0.00    -0.646 OA
ENDBRANCH   5   6
BRANCH   5   9
HETATM    9  C           1     -34.854   0.000 -14.528  0.00  0.00     0.046 C 
BRANCH   9  10
HETATM   10  C           1     -36.075   0.902 -14.393  0.00  0.00     0.076 C 
BRANCH  10  11
HETATM   11  S           1     -37.576  -0.115 -14.329  0.00  0.00    -0.173 SA
HETATM   12  C           1     -38.075   0.159 -16.052  0.00  0.00     0.089 C 
ENDBRANCH  10  11
ENDBRANCH   9  10
ENDBRANCH   5   9
ENDBRANCH   4   5
BRANCH   2  13
HETATM   13  C           1     -34.491  -2.903 -10.956  0.00  0.00     0.311 C 
HETATM   14  C           1     -33.021  -3.098 -11.285  0.00  0.00     0.047 C 
HETATM   15  C           1     -32.920  -4.519 -11.824  0.00  0.00     0.033 C 
HETATM   16  C           1     -34.335  -5.067 -11.767  0.00  0.00     0.271 C 
HETATM   17  N           1     -34.981  -4.261 -10.734  0.00  0.00     0.097 N 
HETATM   18  H           1     -34.701  -4.600  -9.814  0.00  0.00     0.317 HD
ENDBRANCH   2  13
TORSDOF 6
ENDMDL
MODEL 7
REMARK VINA RESULT:      -4.8     25.712     27.054
REMARK  6 active torsions:
REMARK  status: ('A' for Active; 'I' for Inactive)
REMARK    1  A    between atoms: S_2  and  C_10 
REMARK    2  A    between atoms: C_3  and  C_14 
REMARK       I    between atoms: C_8  and  N_15 
REMARK    3  A    between atoms: C_8  and  C_12 
REMARK    4  A    between atoms: C_10  and  C_11 
REMARK    5  A    between atoms: C_11  and  C_14 
REMARK    6  A    between atoms: C_14  and  N_15 
ROOT
HETATM    1  O           1     -12.959   7.354 -19.537  0.00  0.00    -0.271 OA
HETATM    2  C           1     -12.409   7.330 -20.612  0.00  0.00     0.251 C 
HETATM    3  H           1     -11.032   6.331 -21.790  0.00  0.00     0.163 HD
HETATM    4  N           1     -11.493   6.352 -20.890  0.00  0.00    -0.345 N 
ENDROOT
BRANCH   4   5
HETATM    5  C           1     -11.183   5.345 -19.893  0.00  0.00     0.186 C 
BRANCH   5   6
HETATM    6  C           1      -9.841   5.648 -19.274  0.00  0.00     0.196 C 
HETATM    7  O           1      -8.890   6.021 -19.994  0.00  0.00    -0.646 OA
HETATM    8  O           1      -9.680   5.526 -18.040  0.00  0.00    -0.646 OA
ENDBRANCH   5   6
BRANCH   5   9
HETATM    9  C           1     -11.138   3.973 -20.553  0.00  0.00     0.046 C 
BRANCH   9  10
HETATM   10  C           1     -11.162   4.136 -22.068  0.00  0.00     0.076 C 
BRANCH  10  11
HETATM   11  S           1     -12.809   3.708 -22.697  0.00  0.00    -0.173 SA
HETATM   12  C           1     -13.267   2.612 -21.326  0.00  0.00     0.089 C 
ENDBRANCH  10  11
ENDBRANCH   9  10
ENDBRANCH   5   9
ENDBRANCH   4   5
BRANCH   2  13
HETATM   13  C           1     -12.730   8.378 -21.648  0.00  0.00     0.311 C 
HETATM   14  C           1     -11.866   8.201 -22.884  0.00  0.00     0.047 C 
HETATM   15  C           1     -10.679   9.133 -22.676  0.00  0.00     0.033 C 
HETATM   16  C           1     -10.931   9.803 -21.336  0.00  0.00     0.271 C 
HETATM   17  N           1     -12.378   9.711 -21.166  0.00  0.00     0.097 N 
HETATM   18  H           1     -12.833  10.430 -21.728  0.00  0.00     0.317 HD
ENDBRANCH   2  13
TORSDOF 6
ENDMDL
MODEL 8
REMARK VINA RESULT:      -4.7     16.987     19.035
REMARK  6 active torsions:
REMARK  status: ('A' for Active; 'I' for Inactive)
REMARK    1  A    between atoms: S_2  and  C_10 
REMARK    2  A    between atoms: C_3  and  C_14 
REMARK       I    between atoms: C_8  and  N_15 
REMARK    3  A    between atoms: C_8  and  C_12 
REMARK    4  A    between atoms: C_10  and  C_11 
REMARK    5  A    between atoms: C_11  and  C_14 
REMARK    6  A    between atoms: C_14  and  N_15 
ROOT
HETATM    1  O           1     -21.118  -6.974  -1.542  0.00  0.00    -0.271 OA
HETATM    2  C           1     -21.615  -8.053  -1.758  0.00  0.00     0.251 C 
HETATM    3  H           1     -21.835  -9.572  -3.147  0.00  0.00     0.163 HD
HETATM    4  N           1     -21.420  -8.668  -2.965  0.00  0.00    -0.345 N 
ENDROOT
BRANCH   4   5
HETATM    5  C           1     -20.616  -8.022  -3.985  0.00  0.00     0.186 C 
BRANCH   5   6
HETATM    6  C           1     -21.507  -7.574  -5.117  0.00  0.00     0.196 C 
HETATM    7  O           1     -21.340  -8.038  -6.265  0.00  0.00    -0.646 OA
HETATM    8  O           1     -22.413  -6.738  -4.906  0.00  0.00    -0.646 OA
ENDBRANCH   5   6
BRANCH   5   9
HETATM    9  C           1     -19.580  -9.005  -4.515  0.00  0.00     0.046 C 
BRANCH   9  10
HETATM   10  C           1     -18.599  -9.358  -3.404  0.00  0.00     0.076 C 
BRANCH  10  11
HETATM   11  S           1     -17.089 -10.056  -4.129  0.00  0.00    -0.173 SA
HETATM   12  C           1     -15.971  -9.535  -2.799  0.00  0.00     0.089 C 
ENDBRANCH  10  11
ENDBRANCH   9  10
ENDBRANCH   5   9
ENDBRANCH   4   5
BRANCH   2  13
HETATM   13  C           1     -22.452  -8.725  -0.697  0.00  0.00     0.311 C 
HETATM   14  C           1     -22.257  -8.055   0.652  0.00  0.00     0.047 C 
HETATM   15  C           1     -21.175  -8.870   1.348  0.00  0.00     0.033 C 
HETATM   16  C           1     -20.813  -9.971   0.365  0.00  0.00     0.271 C 
HETATM   17  N           1     -22.003 -10.096  -0.472  0.00  0.00     0.097 N 
HETATM   18  H           1     -22.714 -10.632   0.026  0.00  0.00     0.317 HD
ENDBRANCH   2  13
TORSDOF 6
ENDMDL
MODEL 9
REMARK VINA RESULT:      -4.6     16.334     17.701
REMARK  6 active torsions:
REMARK  status: ('A' for Active; 'I' for Inactive)
REMARK    1  A    between atoms: S_2  and  C_10 
REMARK    2  A    between atoms: C_3  and  C_14 
REMARK       I    between atoms: C_8  and  N_15 
REMARK    3  A    between atoms: C_8  and  C_12 
REMARK    4  A    between atoms: C_10  and  C_11 
REMARK    5  A    between atoms: C_11  and  C_14 
REMARK    6  A    between atoms: C_14  and  N_15 
ROOT
HETATM    1  O           1     -22.781  -6.270  -1.957  0.00  0.00    -0.271 OA
HETATM    2  C           1     -22.009  -7.146  -1.645  0.00  0.00     0.251 C 
HETATM    3  H           1     -20.644  -8.533  -2.349  0.00  0.00     0.163 HD
HETATM    4  N           1     -21.290  -7.800  -2.610  0.00  0.00    -0.345 N 
ENDROOT
BRANCH   4   5
HETATM    5  C           1     -21.456  -7.440  -4.005  0.00  0.00     0.186 C 
BRANCH   5   6
HETATM    6  C           1     -20.621  -8.360  -4.862  0.00  0.00     0.196 C 
HETATM    7  O           1     -19.385  -8.427  -4.687  0.00  0.00    -0.646 OA
HETATM    8  O           1     -21.166  -9.055  -5.748  0.00  0.00    -0.646 OA
ENDBRANCH   5   6
BRANCH   5   9
HETATM    9  C           1     -21.003  -6.002  -4.217  0.00  0.00     0.046 C 
BRANCH   9  10
HETATM   10  C           1     -21.366  -5.557  -5.628  0.00  0.00     0.076 C 
BRANCH  10  11
HETATM   11  S           1     -19.912  -4.817  -6.422  0.00  0.00    -0.173 SA
HETATM   12  C           1     -20.389  -5.219  -8.126  0.00  0.00     0.089 C 
ENDBRANCH  10  11
ENDBRANCH   9  10
ENDBRANCH   5   9
ENDBRANCH   4   5
BRANCH   2  13
HETATM   13  C           1     -21.838  -7.520  -0.194  0.00  0.00     0.311 C 
HETATM   14  C           1     -20.995  -8.776  -0.054  0.00  0.00     0.047 C 
HETATM   15  C           1     -21.997  -9.920   0.031  0.00  0.00     0.033 C 
HETATM   16  C           1     -23.362  -9.259  -0.054  0.00  0.00     0.271 C 
HETATM   17  N           1     -23.118  -7.893   0.401  0.00  0.00     0.097 N 
HETATM   18  H           1     -23.061  -7.880   1.419  0.00  0.00     0.317 HD
ENDBRANCH   2  13
TORSDOF 6
ENDMDL
