MODEL 1
REMARK VINA RESULT:      -6.0      0.000      0.000
REMARK  8 active torsions:
REMARK  status: ('A' for Active; 'I' for Inactive)
REMARK    1  A    between atoms: C_2  and  C_17 
REMARK    2  A    between atoms: C_2  and  C_16 
REMARK    3  A    between atoms: C_2  and  N_9 
REMARK    4  A    between atoms: C_5  and  C_6 
REMARK    5  A    between atoms: C_5  and  C_14 
REMARK    6  A    between atoms: C_5  and  N_19 
REMARK    7  A    between atoms: C_6  and  O_7 
REMARK    8  A    between atoms: O_11  and  C_16 
REMARK       I    between atoms: C_17  and  N_19 
ROOT
HETATM    1  O           1     -36.611  -1.273 -12.705  0.00  0.00    -0.271 OA
HETATM    2  C           1     -35.429  -1.103 -12.885  0.00  0.00     0.251 C 
HETATM    3  N           1     -34.991  -0.479 -14.022  0.00  0.00    -0.343 N 
HETATM    4  H           1     -34.001  -0.336 -14.173  0.00  0.00     0.163 HD
ENDROOT
BRANCH   2   5
HETATM    5  C           1     -34.433  -1.580 -11.856  0.00  0.00     0.302 C 
BRANCH   5   6
HETATM    6  C           1     -34.017  -3.010 -12.175  0.00  0.00     0.153 C 
HETATM    7  C           1     -34.680  -3.963 -11.189  0.00  0.00     0.042 C 
BRANCH   6   8
HETATM    8  O           1     -34.418  -3.335 -13.479  0.00  0.00    -0.393 OA
HETATM    9  H           1     -33.680  -3.171 -14.041  0.00  0.00     0.210 HD
ENDBRANCH   6   8
ENDBRANCH   5   6
BRANCH   5  10
HETATM   10  N           1     -35.062  -1.536 -10.495  0.00  0.00    -0.064 N 
HETATM   11  H           1     -34.754  -0.670  -9.998  0.00  0.00     0.275 HD
HETATM   12  H           1     -36.102  -1.532 -10.591  0.00  0.00     0.275 HD
HETATM   13  H           1     -34.765  -2.375  -9.948  0.00  0.00     0.275 HD
ENDBRANCH   5  10
ENDBRANCH   2   5
BRANCH   3  14
HETATM   14  C           1     -35.949  -0.021 -15.010  0.00  0.00     0.209 C 
BRANCH  14  15
HETATM   15  C           1     -35.582   1.390 -15.455  0.00  0.00     0.200 C 
BRANCH  15  16
HETATM   16  O           1     -36.670   1.966 -16.127  0.00  0.00    -0.398 OA
HETATM   17  H           1     -36.544   1.799 -17.044  0.00  0.00     0.209 HD
ENDBRANCH  15  16
ENDBRANCH  14  15
BRANCH  14  18
HETATM   18  C           1     -35.924  -0.947 -16.202  0.00  0.00     0.198 C 
HETATM   19  O           1     -35.152  -1.930 -16.213  0.00  0.00    -0.646 OA
HETATM   20  O           1     -36.676  -0.730 -17.177  0.00  0.00    -0.646 OA
ENDBRANCH  14  18
ENDBRANCH   3  14
TORSDOF 8
ENDMDL
MODEL 2
REMARK VINA RESULT:      -5.4     12.842     14.484
REMARK  8 active torsions:
REMARK  status: ('A' for Active; 'I' for Inactive)
REMARK    1  A    between atoms: C_2  and  C_17 
REMARK    2  A    between atoms: C_2  and  C_16 
REMARK    3  A    between atoms: C_2  and  N_9 
REMARK    4  A    between atoms: C_5  and  C_6 
REMARK    5  A    between atoms: C_5  and  C_14 
REMARK    6  A    between atoms: C_5  and  N_19 
REMARK    7  A    between atoms: C_6  and  O_7 
REMARK    8  A    between atoms: O_11  and  C_16 
REMARK       I    between atoms: C_17  and  N_19 
ROOT
HETATM    1  O           1     -20.619  -4.130  -9.614  0.00  0.00    -0.271 OA
HETATM    2  C           1     -21.566  -4.591  -9.024  0.00  0.00     0.251 C 
HETATM    3  N           1     -22.834  -4.387  -9.496  0.00  0.00    -0.343 N 
HETATM    4  H           1     -23.627  -4.774  -9.001  0.00  0.00     0.163 HD
ENDROOT
BRANCH   2   5
HETATM    5  C           1     -21.350  -5.393  -7.764  0.00  0.00     0.302 C 
BRANCH   5   6
HETATM    6  C           1     -21.482  -4.482  -6.551  0.00  0.00     0.153 C 
HETATM    7  C           1     -20.251  -4.631  -5.668  0.00  0.00     0.042 C 
BRANCH   6   8
HETATM    8  O           1     -21.593  -3.150  -6.976  0.00  0.00    -0.393 OA
HETATM    9  H           1     -22.221  -2.734  -6.412  0.00  0.00     0.210 HD
ENDBRANCH   6   8
ENDBRANCH   5   6
BRANCH   5  10
HETATM   10  N           1     -19.978  -5.998  -7.786  0.00  0.00    -0.064 N 
HETATM   11  H           1     -19.425  -5.580  -8.568  0.00  0.00     0.275 HD
HETATM   12  H           1     -19.497  -5.808  -6.878  0.00  0.00     0.275 HD
HETATM   13  H           1     -20.055  -7.031  -7.929  0.00  0.00     0.275 HD
ENDBRANCH   5  10
ENDBRANCH   2   5
BRANCH   3  14
HETATM   14  C           1     -23.041  -3.616 -10.706  0.00  0.00     0.209 C 
BRANCH  14  15
HETATM   15  C           1     -22.597  -4.436 -11.912  0.00  0.00     0.200 C 
BRANCH  15  16
HETATM   16  O           1     -21.527  -3.791 -12.548  0.00  0.00    -0.398 OA
HETATM   17  H           1     -21.474  -4.145 -13.419  0.00  0.00     0.209 HD
ENDBRANCH  15  16
ENDBRANCH  14  15
BRANCH  14  18
HETATM   18  C           1     -24.504  -3.274 -10.842  0.00  0.00     0.198 C 
HETATM   19  O           1     -24.993  -3.053 -11.971  0.00  0.00    -0.646 OA
HETATM   20  O           1     -25.228  -3.213  -9.824  0.00  0.00    -0.646 OA
ENDBRANCH  14  18
ENDBRANCH   3  14
TORSDOF 8
ENDMDL
MODEL 3
REMARK VINA RESULT:      -5.4     10.440     11.521
REMARK  8 active torsions:
REMARK  status: ('A' for Active; 'I' for Inactive)
REMARK    1  A    between atoms: C_2  and  C_17 
REMARK    2  A    between atoms: C_2  and  C_16 
REMARK    3  A    between atoms: C_2  and  N_9 
REMARK    4  A    between atoms: C_5  and  C_6 
REMARK    5  A    between atoms: C_5  and  C_14 
REMARK    6  A    between atoms: C_5  and  N_19 
REMARK    7  A    between atoms: C_6  and  O_7 
REMARK    8  A    between atoms: O_11  and  C_16 
REMARK       I    between atoms: C_17  and  N_19 
ROOT
HETATM    1  O           1     -28.419  -5.224 -19.144  0.00  0.00    -0.271 OA
HETATM    2  C           1     -28.313  -6.317 -18.642  0.00  0.00     0.251 C 
HETATM    3  N           1     -27.495  -7.257 -19.210  0.00  0.00    -0.343 N 
HETATM    4  H           1     -27.406  -8.172 -18.788  0.00  0.00     0.163 HD
ENDROOT
BRANCH   2   5
HETATM    5  C           1     -29.084  -6.648 -17.388  0.00  0.00     0.302 C 
BRANCH   5   6
HETATM    6  C           1     -28.215  -6.369 -16.168  0.00  0.00     0.153 C 
HETATM    7  C           1     -28.044  -7.651 -15.364  0.00  0.00     0.042 C 
BRANCH   6   8
HETATM    8  O           1     -26.958  -5.908 -16.585  0.00  0.00    -0.393 OA
HETATM    9  H           1     -26.324  -6.265 -15.987  0.00  0.00     0.210 HD
ENDBRANCH   6   8
ENDBRANCH   5   6
BRANCH   5  10
HETATM   10  N           1     -29.469  -8.097 -17.405  0.00  0.00    -0.064 N 
HETATM   11  H           1     -29.076  -8.572 -16.561  0.00  0.00     0.275 HD
HETATM   12  H           1     -30.511  -8.182 -17.400  0.00  0.00     0.275 HD
HETATM   13  H           1     -29.087  -8.548 -18.267  0.00  0.00     0.275 HD
ENDBRANCH   5  10
ENDBRANCH   2   5
BRANCH   3  14
HETATM   14  C           1     -26.755  -6.939 -20.415  0.00  0.00     0.209 C 
BRANCH  14  15
HETATM   15  C           1     -25.373  -6.419 -20.039  0.00  0.00     0.200 C 
BRANCH  15  16
HETATM   16  O           1     -24.923  -7.076 -18.886  0.00  0.00    -0.398 OA
HETATM   17  H           1     -25.626  -7.042 -18.260  0.00  0.00     0.209 HD
ENDBRANCH  15  16
ENDBRANCH  14  15
BRANCH  14  18
HETATM   18  C           1     -26.612  -8.181 -21.261  0.00  0.00     0.198 C 
HETATM   19  O           1     -27.615  -8.884 -21.512  0.00  0.00    -0.646 OA
HETATM   20  O           1     -25.491  -8.505 -21.710  0.00  0.00    -0.646 OA
ENDBRANCH  14  18
ENDBRANCH   3  14
TORSDOF 8
ENDMDL
MODEL 4
REMARK VINA RESULT:      -5.0     13.513     15.715
REMARK  8 active torsions:
REMARK  status: ('A' for Active; 'I' for Inactive)
REMARK    1  A    between atoms: C_2  and  C_17 
REMARK    2  A    between atoms: C_2  and  C_16 
REMARK    3  A    between atoms: C_2  and  N_9 
REMARK    4  A    between atoms: C_5  and  C_6 
REMARK    5  A    between atoms: C_5  and  C_14 
REMARK    6  A    between atoms: C_5  and  N_19 
REMARK    7  A    between atoms: C_6  and  O_7 
REMARK    8  A    between atoms: O_11  and  C_16 
REMARK       I    between atoms: C_17  and  N_19 
ROOT
HETATM    1  O           1     -20.288  -4.678 -11.110  0.00  0.00    -0.271 OA
HETATM    2  C           1     -21.197  -4.076 -10.591  0.00  0.00     0.251 C 
HETATM    3  N           1     -21.407  -4.179  -9.243  0.00  0.00    -0.343 N 
HETATM    4  H           1     -22.168  -3.673  -8.809  0.00  0.00     0.163 HD
ENDROOT
BRANCH   2   5
HETATM    5  C           1     -22.102  -3.209 -11.432  0.00  0.00     0.302 C 
BRANCH   5   6
HETATM    6  C           1     -23.556  -3.525 -11.106  0.00  0.00     0.153 C 
HETATM    7  C           1     -24.444  -3.075 -12.259  0.00  0.00     0.042 C 
BRANCH   6   8
HETATM    8  O           1     -23.703  -4.906 -10.916  0.00  0.00    -0.393 OA
HETATM    9  H           1     -23.386  -5.099 -10.051  0.00  0.00     0.210 HD
ENDBRANCH   6   8
ENDBRANCH   5   6
BRANCH   5  10
HETATM   10  N           1     -21.846  -3.480 -12.885  0.00  0.00    -0.064 N 
HETATM   11  H           1     -21.759  -4.510 -13.037  0.00  0.00     0.275 HD
HETATM   12  H           1     -22.640  -3.109 -13.454  0.00  0.00     0.275 HD
HETATM   13  H           1     -20.959  -3.009 -13.175  0.00  0.00     0.275 HD
ENDBRANCH   5  10
ENDBRANCH   2   5
BRANCH   3  14
HETATM   14  C           1     -20.536  -5.012  -8.436  0.00  0.00     0.209 C 
BRANCH  14  15
HETATM   15  C           1     -19.412  -4.161  -7.859  0.00  0.00     0.200 C 
BRANCH  15  16
HETATM   16  O           1     -19.215  -4.496  -6.512  0.00  0.00    -0.398 OA
HETATM   17  H           1     -19.465  -5.399  -6.416  0.00  0.00     0.209 HD
ENDBRANCH  15  16
ENDBRANCH  14  15
BRANCH  14  18
HETATM   18  C           1     -21.331  -5.627  -7.310  0.00  0.00     0.198 C 
HETATM   19  O           1     -22.257  -4.982  -6.773  0.00  0.00    -0.646 OA
HETATM   20  O           1     -21.062  -6.783  -6.915  0.00  0.00    -0.646 OA
ENDBRANCH  14  18
ENDBRANCH   3  14
TORSDOF 8
ENDMDL
MODEL 5
REMARK VINA RESULT:      -5.0      9.497     11.089
REMARK  8 active torsions:
REMARK  status: ('A' for Active; 'I' for Inactive)
REMARK    1  A    between atoms: C_2  and  C_17 
REMARK    2  A    between atoms: C_2  and  C_16 
REMARK    3  A    between atoms: C_2  and  N_9 
REMARK    4  A    between atoms: C_5  and  C_6 
REMARK    5  A    between atoms: C_5  and  C_14 
REMARK    6  A    between atoms: C_5  and  N_19 
REMARK    7  A    between atoms: C_6  and  O_7 
REMARK    8  A    between atoms: O_11  and  C_16 
REMARK       I    between atoms: C_17  and  N_19 
ROOT
HETATM    1  O           1     -27.661  -5.471 -18.524  0.00  0.00    -0.271 OA
HETATM    2  C           1     -27.999  -6.422 -17.861  0.00  0.00     0.251 C 
HETATM    3  N           1     -27.164  -6.918 -16.897  0.00  0.00    -0.343 N 
HETATM    4  H           1     -27.449  -7.714 -16.341  0.00  0.00     0.163 HD
ENDROOT
BRANCH   2   5
HETATM    5  C           1     -29.345  -7.063 -18.096  0.00  0.00     0.302 C 
BRANCH   5   6
HETATM    6  C           1     -30.445  -6.137 -17.592  0.00  0.00     0.153 C 
HETATM    7  C           1     -31.738  -6.925 -17.432  0.00  0.00     0.042 C 
BRANCH   6   8
HETATM    8  O           1     -30.071  -5.597 -16.353  0.00  0.00    -0.393 OA
HETATM    9  H           1     -30.865  -5.361 -15.907  0.00  0.00     0.210 HD
ENDBRANCH   6   8
ENDBRANCH   5   6
BRANCH   5  10
HETATM   10  N           1     -29.414  -8.366 -17.357  0.00  0.00    -0.064 N 
HETATM   11  H           1     -30.410  -8.672 -17.282  0.00  0.00     0.275 HD
HETATM   12  H           1     -28.865  -9.090 -17.874  0.00  0.00     0.275 HD
HETATM   13  H           1     -29.014  -8.245 -16.399  0.00  0.00     0.275 HD
ENDBRANCH   5  10
ENDBRANCH   2   5
BRANCH   3  14
HETATM   14  C           1     -25.871  -6.302 -16.672  0.00  0.00     0.209 C 
BRANCH  14  15
HETATM   15  C           1     -25.691  -6.030 -15.184  0.00  0.00     0.200 C 
BRANCH  15  16
HETATM   16  O           1     -24.587  -5.188 -14.992  0.00  0.00    -0.398 OA
HETATM   17  H           1     -23.817  -5.719 -15.096  0.00  0.00     0.209 HD
ENDBRANCH  15  16
ENDBRANCH  14  15
BRANCH  14  18
HETATM   18  C           1     -24.781  -7.230 -17.150  0.00  0.00     0.198 C 
HETATM   19  O           1     -24.332  -8.112 -16.386  0.00  0.00    -0.646 OA
HETATM   20  O           1     -24.329  -7.117 -18.310  0.00  0.00    -0.646 OA
ENDBRANCH  14  18
ENDBRANCH   3  14
TORSDOF 8
ENDMDL
MODEL 6
REMARK VINA RESULT:      -5.0     10.692     12.121
REMARK  8 active torsions:
REMARK  status: ('A' for Active; 'I' for Inactive)
REMARK    1  A    between atoms: C_2  and  C_17 
REMARK    2  A    between atoms: C_2  and  C_16 
REMARK    3  A    between atoms: C_2  and  N_9 
REMARK    4  A    between atoms: C_5  and  C_6 
REMARK    5  A    between atoms: C_5  and  C_14 
REMARK    6  A    between atoms: C_5  and  N_19 
REMARK    7  A    between atoms: C_6  and  O_7 
REMARK    8  A    between atoms: O_11  and  C_16 
REMARK       I    between atoms: C_17  and  N_19 
ROOT
HETATM    1  O           1     -27.305  -5.931 -20.194  0.00  0.00    -0.271 OA
HETATM    2  C           1     -26.504  -6.399 -19.420  0.00  0.00     0.251 C 
HETATM    3  N           1     -26.867  -6.646 -18.123  0.00  0.00    -0.343 N 
HETATM    4  H           1     -26.196  -7.039 -17.476  0.00  0.00     0.163 HD
ENDROOT
BRANCH   2   5
HETATM    5  C           1     -25.103  -6.712 -19.884  0.00  0.00     0.302 C 
BRANCH   5   6
HETATM    6  C           1     -25.162  -7.520 -21.173  0.00  0.00     0.153 C 
HETATM    7  C           1     -23.841  -8.251 -21.375  0.00  0.00     0.042 C 
BRANCH   6   8
HETATM    8  O           1     -26.204  -8.454 -21.093  0.00  0.00    -0.393 OA
HETATM    9  H           1     -26.120  -8.887 -20.262  0.00  0.00     0.210 HD
ENDBRANCH   6   8
ENDBRANCH   5   6
BRANCH   5  10
HETATM   10  N           1     -24.393  -7.507 -18.829  0.00  0.00    -0.064 N 
HETATM   11  H           1     -23.940  -6.857 -18.148  0.00  0.00     0.275 HD
HETATM   12  H           1     -25.080  -8.114 -18.328  0.00  0.00     0.275 HD
HETATM   13  H           1     -23.662  -8.106 -19.277  0.00  0.00     0.275 HD
ENDBRANCH   5  10
ENDBRANCH   2   5
BRANCH   3  14
HETATM   14  C           1     -28.214  -6.345 -17.679  0.00  0.00     0.209 C 
BRANCH  14  15
HETATM   15  C           1     -29.191  -7.319 -18.326  0.00  0.00     0.200 C 
BRANCH  15  16
HETATM   16  O           1     -29.481  -8.357 -17.430  0.00  0.00    -0.398 OA
HETATM   17  H           1     -28.768  -8.395 -16.816  0.00  0.00     0.209 HD
ENDBRANCH  15  16
ENDBRANCH  14  15
BRANCH  14  18
HETATM   18  C           1     -28.290  -6.480 -16.177  0.00  0.00     0.198 C 
HETATM   19  O           1     -27.468  -7.202 -15.572  0.00  0.00    -0.646 OA
HETATM   20  O           1     -29.175  -5.870 -15.539  0.00  0.00    -0.646 OA
ENDBRANCH  14  18
ENDBRANCH   3  14
TORSDOF 8
ENDMDL
MODEL 7
REMARK VINA RESULT:      -4.9     13.103     15.338
REMARK  8 active torsions:
REMARK  status: ('A' for Active; 'I' for Inactive)
REMARK    1  A    between atoms: C_2  and  C_17 
REMARK    2  A    between atoms: C_2  and  C_16 
REMARK    3  A    between atoms: C_2  and  N_9 
REMARK    4  A    between atoms: C_5  and  C_6 
REMARK    5  A    between atoms: C_5  and  C_14 
REMARK    6  A    between atoms: C_5  and  N_19 
REMARK    7  A    between atoms: C_6  and  O_7 
REMARK    8  A    between atoms: O_11  and  C_16 
REMARK       I    between atoms: C_17  and  N_19 
ROOT
HETATM    1  O           1     -22.968  -3.112  -8.698  0.00  0.00    -0.271 OA
HETATM    2  C           1     -23.100  -4.251  -9.077  0.00  0.00     0.251 C 
HETATM    3  N           1     -22.256  -5.228  -8.623  0.00  0.00    -0.343 N 
HETATM    4  H           1     -22.369  -6.182  -8.940  0.00  0.00     0.163 HD
ENDROOT
BRANCH   2   5
HETATM    5  C           1     -24.199  -4.596 -10.053  0.00  0.00     0.302 C 
BRANCH   5   6
HETATM    6  C           1     -23.690  -4.415 -11.477  0.00  0.00     0.153 C 
HETATM    7  C           1     -24.285  -3.144 -12.069  0.00  0.00     0.042 C 
BRANCH   6   8
HETATM    8  O           1     -22.292  -4.315 -11.466  0.00  0.00    -0.393 OA
HETATM    9  H           1     -21.974  -4.840 -12.179  0.00  0.00     0.210 HD
ENDBRANCH   6   8
ENDBRANCH   5   6
BRANCH   5  10
HETATM   10  N           1     -25.373  -3.692  -9.823  0.00  0.00    -0.064 N 
HETATM   11  H           1     -25.880  -3.991  -8.960  0.00  0.00     0.275 HD
HETATM   12  H           1     -25.040  -2.708  -9.710  0.00  0.00     0.275 HD
HETATM   13  H           1     -26.020  -3.748 -10.643  0.00  0.00     0.275 HD
ENDBRANCH   5  10
ENDBRANCH   2   5
BRANCH   3  14
HETATM   14  C           1     -21.201  -4.895  -7.686  0.00  0.00     0.209 C 
BRANCH  14  15
HETATM   15  C           1     -20.984  -6.062  -6.731  0.00  0.00     0.200 C 
BRANCH  15  16
HETATM   16  O           1     -19.779  -6.706  -7.044  0.00  0.00    -0.398 OA
HETATM   17  H           1     -19.583  -6.496  -7.941  0.00  0.00     0.209 HD
ENDBRANCH  15  16
ENDBRANCH  14  15
BRANCH  14  18
HETATM   18  C           1     -19.925  -4.619  -8.442  0.00  0.00     0.198 C 
HETATM   19  O           1     -19.856  -4.870  -9.665  0.00  0.00    -0.646 OA
HETATM   20  O           1     -18.936  -4.141  -7.845  0.00  0.00    -0.646 OA
ENDBRANCH  14  18
ENDBRANCH   3  14
TORSDOF 8
ENDMDL
MODEL 8
REMARK VINA RESULT:      -4.9     10.424     11.586
REMARK  8 active torsions:
REMARK  status: ('A' for Active; 'I' for Inactive)
REMARK    1  A    between atoms: C_2  and  C_17 
REMARK    2  A    between atoms: C_2  and  C_16 
REMARK    3  A    between atoms: C_2  and  N_9 
REMARK    4  A    between atoms: C_5  and  C_6 
REMARK    5  A    between atoms: C_5  and  C_14 
REMARK    6  A    between atoms: C_5  and  N_19 
REMARK    7  A    between atoms: C_6  and  O_7 
REMARK    8  A    between atoms: O_11  and  C_16 
REMARK       I    between atoms: C_17  and  N_19 
ROOT
HETATM    1  O           1     -28.157  -5.314 -18.828  0.00  0.00    -0.271 OA
HETATM    2  C           1     -28.349  -6.504 -18.896  0.00  0.00     0.251 C 
HETATM    3  N           1     -27.410  -7.319 -19.468  0.00  0.00    -0.343 N 
HETATM    4  H           1     -27.572  -8.316 -19.524  0.00  0.00     0.163 HD
ENDROOT
BRANCH   2   5
HETATM    5  C           1     -29.626  -7.093 -18.348  0.00  0.00     0.302 C 
BRANCH   5   6
HETATM    6  C           1     -30.367  -6.038 -17.537  0.00  0.00     0.153 C 
HETATM    7  C           1     -31.792  -6.507 -17.277  0.00  0.00     0.042 C 
BRANCH   6   8
HETATM    8  O           1     -29.710  -5.840 -16.315  0.00  0.00    -0.393 OA
HETATM    9  H           1     -30.329  -6.044 -15.635  0.00  0.00     0.210 HD
ENDBRANCH   6   8
ENDBRANCH   5   6
BRANCH   5  10
HETATM   10  N           1     -29.299  -8.261 -17.465  0.00  0.00    -0.064 N 
HETATM   11  H           1     -28.271  -8.444 -17.497  0.00  0.00     0.275 HD
HETATM   12  H           1     -29.586  -8.048 -16.483  0.00  0.00     0.275 HD
HETATM   13  H           1     -29.814  -9.106 -17.803  0.00  0.00     0.275 HD
ENDBRANCH   5  10
ENDBRANCH   2   5
BRANCH   3  14
HETATM   14  C           1     -26.184  -6.752 -19.994  0.00  0.00     0.209 C 
BRANCH  14  15
HETATM   15  C           1     -25.122  -6.739 -18.902  0.00  0.00     0.200 C 
BRANCH  15  16
HETATM   16  O           1     -24.214  -7.785 -19.118  0.00  0.00    -0.398 OA
HETATM   17  H           1     -24.325  -8.394 -18.408  0.00  0.00     0.209 HD
ENDBRANCH  15  16
ENDBRANCH  14  15
BRANCH  14  18
HETATM   18  C           1     -25.701  -7.587 -21.155  0.00  0.00     0.198 C 
HETATM   19  O           1     -24.703  -7.223 -21.815  0.00  0.00    -0.646 OA
HETATM   20  O           1     -26.298  -8.644 -21.456  0.00  0.00    -0.646 OA
ENDBRANCH  14  18
ENDBRANCH   3  14
TORSDOF 8
ENDMDL
MODEL 9
REMARK VINA RESULT:      -4.8      1.900      5.114
REMARK  8 active torsions:
REMARK  status: ('A' for Active; 'I' for Inactive)
REMARK    1  A    between atoms: C_2  and  C_17 
REMARK    2  A    between atoms: C_2  and  C_16 
REMARK    3  A    between atoms: C_2  and  N_9 
REMARK    4  A    between atoms: C_5  and  C_6 
REMARK    5  A    between atoms: C_5  and  C_14 
REMARK    6  A    between atoms: C_5  and  N_19 
REMARK    7  A    between atoms: C_6  and  O_7 
REMARK    8  A    between atoms: O_11  and  C_16 
REMARK       I    between atoms: C_17  and  N_19 
ROOT
HETATM    1  O           1     -35.061  -1.903 -14.405  0.00  0.00    -0.271 OA
HETATM    2  C           1     -35.186  -1.066 -13.544  0.00  0.00     0.251 C 
HETATM    3  N           1     -34.800  -1.340 -12.259  0.00  0.00    -0.343 N 
HETATM    4  H           1     -34.905  -0.638 -11.538  0.00  0.00     0.163 HD
ENDROOT
BRANCH   2   5
HETATM    5  C           1     -35.769   0.284 -13.884  0.00  0.00     0.302 C 
BRANCH   5   6
HETATM    6  C           1     -36.657   0.159 -15.115  0.00  0.00     0.153 C 
HETATM    7  C           1     -38.075  -0.190 -14.684  0.00  0.00     0.042 C 
BRANCH   6   8
HETATM    8  O           1     -36.667   1.376 -15.810  0.00  0.00    -0.393 OA
HETATM    9  H           1     -35.817   1.476 -16.201  0.00  0.00     0.210 HD
ENDBRANCH   6   8
ENDBRANCH   5   6
BRANCH   5  10
HETATM   10  N           1     -34.657   1.251 -14.167  0.00  0.00    -0.064 N 
HETATM   11  H           1     -34.480   1.835 -13.319  0.00  0.00     0.275 HD
HETATM   12  H           1     -33.790   0.723 -14.415  0.00  0.00     0.275 HD
HETATM   13  H           1     -34.929   1.869 -14.965  0.00  0.00     0.275 HD
ENDBRANCH   5  10
ENDBRANCH   2   5
BRANCH   3  14
HETATM   14  C           1     -34.241  -2.638 -11.933  0.00  0.00     0.209 C 
BRANCH  14  15
HETATM   15  C           1     -33.255  -2.490 -10.780  0.00  0.00     0.200 C 
BRANCH  15  16
HETATM   16  O           1     -33.808  -1.657  -9.796  0.00  0.00    -0.398 OA
HETATM   17  H           1     -33.831  -2.157  -8.998  0.00  0.00     0.209 HD
ENDBRANCH  15  16
ENDBRANCH  14  15
BRANCH  14  18
HETATM   18  C           1     -35.350  -3.577 -11.529  0.00  0.00     0.198 C 
HETATM   19  O           1     -36.170  -3.235 -10.649  0.00  0.00    -0.646 OA
HETATM   20  O           1     -35.449  -4.698 -12.074  0.00  0.00    -0.646 OA
ENDBRANCH  14  18
ENDBRANCH   3  14
TORSDOF 8
ENDMDL
