MODEL 1
REMARK VINA RESULT:      -5.6      0.000      0.000
REMARK  9 active torsions:
REMARK  status: ('A' for Active; 'I' for Inactive)
REMARK    1  A    between atoms: C_1  and  O_15 
REMARK    2  A    between atoms: C_1  and  C_2 
REMARK    3  A    between atoms: C_2  and  C_3 
REMARK    4  A    between atoms: C_2  and  N_14 
REMARK       I    between atoms: C_6  and  N_14 
REMARK    5  A    between atoms: C_6  and  C_7 
REMARK    6  A    between atoms: C_7  and  C_8 
REMARK    7  A    between atoms: C_7  and  N_17 
REMARK    8  A    between atoms: C_8  and  C_12 
REMARK    9  A    between atoms: S_11  and  C_12 
ROOT
HETATM    1  C           1     -21.928  -3.964  -8.572  0.00  0.00     0.249 C 
HETATM    2  H           1     -23.957  -4.072  -8.969  0.00  0.00     0.163 HD
HETATM    3  O           1     -20.842  -3.704  -9.033  0.00  0.00    -0.271 OA
HETATM    4  N           1     -23.047  -3.853  -9.354  0.00  0.00    -0.343 N 
ENDROOT
BRANCH   1   5
HETATM    5  C           1     -22.052  -4.412  -7.137  0.00  0.00     0.275 C 
BRANCH   5   6
HETATM    6  C           1     -21.329  -5.740  -6.954  0.00  0.00     0.053 C 
BRANCH   6   7
HETATM    7  C           1     -20.771  -5.825  -5.540  0.00  0.00     0.076 C 
BRANCH   7   8
HETATM    8  S           1     -21.670  -7.098  -4.610  0.00  0.00    -0.173 SA
HETATM    9  C           1     -21.596  -6.258  -3.002  0.00  0.00     0.089 C 
ENDBRANCH   7   8
ENDBRANCH   6   7
ENDBRANCH   5   6
BRANCH   5  10
HETATM   10  N           1     -23.501  -4.579  -6.789  0.00  0.00    -0.066 N 
HETATM   11  H           1     -23.848  -5.487  -7.171  0.00  0.00     0.275 HD
HETATM   12  H           1     -23.614  -4.572  -5.751  0.00  0.00     0.275 HD
HETATM   13  H           1     -24.051  -3.793  -7.205  0.00  0.00     0.275 HD
ENDBRANCH   5  10
ENDBRANCH   1   5
BRANCH   4  14
HETATM   14  C           1     -22.927  -3.423 -10.734  0.00  0.00     0.209 C 
BRANCH  14  15
HETATM   15  C           1     -22.224  -4.506 -11.542  0.00  0.00     0.200 C 
BRANCH  15  16
HETATM   16  O           1     -21.632  -3.933 -12.676  0.00  0.00    -0.398 OA
HETATM   17  H           1     -21.241  -4.636 -13.166  0.00  0.00     0.209 HD
ENDBRANCH  15  16
ENDBRANCH  14  15
BRANCH  14  18
HETATM   18  C           1     -24.303  -3.181 -11.305  0.00  0.00     0.198 C 
HETATM   19  O           1     -24.440  -2.948 -12.526  0.00  0.00    -0.646 OA
HETATM   20  O           1     -25.304  -3.215 -10.558  0.00  0.00    -0.646 OA
ENDBRANCH  14  18
ENDBRANCH   4  14
TORSDOF 9
ENDMDL
MODEL 2
REMARK VINA RESULT:      -5.5      9.904     11.318
REMARK  9 active torsions:
REMARK  status: ('A' for Active; 'I' for Inactive)
REMARK    1  A    between atoms: C_1  and  O_15 
REMARK    2  A    between atoms: C_1  and  C_2 
REMARK    3  A    between atoms: C_2  and  C_3 
REMARK    4  A    between atoms: C_2  and  N_14 
REMARK       I    between atoms: C_6  and  N_14 
REMARK    5  A    between atoms: C_6  and  C_7 
REMARK    6  A    between atoms: C_7  and  C_8 
REMARK    7  A    between atoms: C_7  and  N_17 
REMARK    8  A    between atoms: C_8  and  C_12 
REMARK    9  A    between atoms: S_11  and  C_12 
ROOT
HETATM    1  C           1     -26.395  -6.989 -16.394  0.00  0.00     0.249 C 
HETATM    2  H           1     -27.487  -6.188 -17.959  0.00  0.00     0.163 HD
HETATM    3  O           1     -26.459  -7.504 -15.303  0.00  0.00    -0.271 OA
HETATM    4  N           1     -27.541  -6.620 -17.045  0.00  0.00    -0.343 N 
ENDROOT
BRANCH   1   5
HETATM    5  C           1     -25.051  -6.754 -17.039  0.00  0.00     0.275 C 
BRANCH   5   6
HETATM    6  C           1     -25.218  -6.684 -18.550  0.00  0.00     0.053 C 
BRANCH   6   7
HETATM    7  C           1     -24.019  -7.336 -19.226  0.00  0.00     0.076 C 
BRANCH   7   8
HETATM    8  S           1     -24.477  -7.858 -20.902  0.00  0.00    -0.173 SA
HETATM    9  C           1     -22.828  -8.442 -21.386  0.00  0.00     0.089 C 
ENDBRANCH   7   8
ENDBRANCH   6   7
ENDBRANCH   5   6
BRANCH   5  10
HETATM   10  N           1     -24.126  -7.883 -16.689  0.00  0.00    -0.066 N 
HETATM   11  H           1     -24.153  -8.602 -17.447  0.00  0.00     0.275 HD
HETATM   12  H           1     -23.153  -7.518 -16.591  0.00  0.00     0.275 HD
HETATM   13  H           1     -24.430  -8.315 -15.787  0.00  0.00     0.275 HD
ENDBRANCH   5  10
ENDBRANCH   1   5
BRANCH   4  14
HETATM   14  C           1     -28.832  -6.846 -16.425  0.00  0.00     0.209 C 
BRANCH  14  15
HETATM   15  C           1     -28.992  -5.911 -15.233  0.00  0.00     0.200 C 
BRANCH  15  16
HETATM   16  O           1     -30.244  -5.283 -15.296  0.00  0.00    -0.398 OA
HETATM   17  H           1     -30.139  -4.515 -15.831  0.00  0.00     0.209 HD
ENDBRANCH  15  16
ENDBRANCH  14  15
BRANCH  14  18
HETATM   18  C           1     -29.926  -6.575 -17.428  0.00  0.00     0.198 C 
HETATM   19  O           1     -29.778  -5.677 -18.286  0.00  0.00    -0.646 OA
HETATM   20  O           1     -30.978  -7.248 -17.402  0.00  0.00    -0.646 OA
ENDBRANCH  14  18
ENDBRANCH   4  14
TORSDOF 9
ENDMDL
MODEL 3
REMARK VINA RESULT:      -5.5      1.518      1.928
REMARK  9 active torsions:
REMARK  status: ('A' for Active; 'I' for Inactive)
REMARK    1  A    between atoms: C_1  and  O_15 
REMARK    2  A    between atoms: C_1  and  C_2 
REMARK    3  A    between atoms: C_2  and  C_3 
REMARK    4  A    between atoms: C_2  and  N_14 
REMARK       I    between atoms: C_6  and  N_14 
REMARK    5  A    between atoms: C_6  and  C_7 
REMARK    6  A    between atoms: C_7  and  C_8 
REMARK    7  A    between atoms: C_7  and  N_17 
REMARK    8  A    between atoms: C_8  and  C_12 
REMARK    9  A    between atoms: S_11  and  C_12 
ROOT
HETATM    1  C           1     -20.974  -4.156  -9.279  0.00  0.00     0.249 C 
HETATM    2  H           1     -22.851  -3.361  -8.917  0.00  0.00     0.163 HD
HETATM    3  O           1     -20.291  -4.761 -10.071  0.00  0.00    -0.271 OA
HETATM    4  N           1     -22.278  -3.868  -9.580  0.00  0.00    -0.343 N 
ENDROOT
BRANCH   1   5
HETATM    5  C           1     -20.389  -3.717  -7.959  0.00  0.00     0.275 C 
BRANCH   5   6
HETATM    6  C           1     -19.641  -4.881  -7.323  0.00  0.00     0.053 C 
BRANCH   6   7
HETATM    7  C           1     -20.051  -5.011  -5.862  0.00  0.00     0.076 C 
BRANCH   7   8
HETATM    8  S           1     -20.711  -6.675  -5.564  0.00  0.00    -0.173 SA
HETATM    9  C           1     -21.438  -6.312  -3.940  0.00  0.00     0.089 C 
ENDBRANCH   7   8
ENDBRANCH   6   7
ENDBRANCH   5   6
BRANCH   5  10
HETATM   10  N           1     -21.494  -3.274  -7.047  0.00  0.00    -0.066 N 
HETATM   11  H           1     -21.632  -3.987  -6.295  0.00  0.00     0.275 HD
HETATM   12  H           1     -21.243  -2.357  -6.615  0.00  0.00     0.275 HD
HETATM   13  H           1     -22.378  -3.171  -7.596  0.00  0.00     0.275 HD
ENDBRANCH   5  10
ENDBRANCH   1   5
BRANCH   4  14
HETATM   14  C           1     -22.839  -4.289 -10.849  0.00  0.00     0.209 C 
BRANCH  14  15
HETATM   15  C           1     -24.024  -5.213 -10.597  0.00  0.00     0.200 C 
BRANCH  15  16
HETATM   16  O           1     -24.905  -4.606  -9.690  0.00  0.00    -0.398 OA
HETATM   17  H           1     -24.389  -4.323  -8.955  0.00  0.00     0.209 HD
ENDBRANCH  15  16
ENDBRANCH  14  15
BRANCH  14  18
HETATM   18  C           1     -23.300  -3.078 -11.622  0.00  0.00     0.198 C 
HETATM   19  O           1     -22.462  -2.261 -12.061  0.00  0.00    -0.646 OA
HETATM   20  O           1     -24.520  -2.892 -11.823  0.00  0.00    -0.646 OA
ENDBRANCH  14  18
ENDBRANCH   4  14
TORSDOF 9
ENDMDL
MODEL 4
REMARK VINA RESULT:      -5.3      3.634      6.675
REMARK  9 active torsions:
REMARK  status: ('A' for Active; 'I' for Inactive)
REMARK    1  A    between atoms: C_1  and  O_15 
REMARK    2  A    between atoms: C_1  and  C_2 
REMARK    3  A    between atoms: C_2  and  C_3 
REMARK    4  A    between atoms: C_2  and  N_14 
REMARK       I    between atoms: C_6  and  N_14 
REMARK    5  A    between atoms: C_6  and  C_7 
REMARK    6  A    between atoms: C_7  and  C_8 
REMARK    7  A    between atoms: C_7  and  N_17 
REMARK    8  A    between atoms: C_8  and  C_12 
REMARK    9  A    between atoms: S_11  and  C_12 
ROOT
HETATM    1  C           1     -22.390  -3.995  -9.729  0.00  0.00     0.249 C 
HETATM    2  H           1     -20.887  -5.286  -9.130  0.00  0.00     0.163 HD
HETATM    3  O           1     -23.178  -3.155  -9.363  0.00  0.00    -0.271 OA
HETATM    4  N           1     -21.547  -4.583  -8.824  0.00  0.00    -0.343 N 
ENDROOT
BRANCH   1   5
HETATM    5  C           1     -22.335  -4.395 -11.183  0.00  0.00     0.275 C 
BRANCH   5   6
HETATM    6  C           1     -22.061  -3.165 -12.038  0.00  0.00     0.053 C 
BRANCH   6   7
HETATM    7  C           1     -23.326  -2.779 -12.794  0.00  0.00     0.076 C 
BRANCH   7   8
HETATM    8  S           1     -22.970  -2.703 -14.572  0.00  0.00    -0.173 SA
HETATM    9  C           1     -23.860  -1.152 -14.886  0.00  0.00     0.089 C 
ENDBRANCH   7   8
ENDBRANCH   6   7
ENDBRANCH   5   6
BRANCH   5  10
HETATM   10  N           1     -23.648  -5.001 -11.584  0.00  0.00    -0.066 N 
HETATM   11  H           1     -24.189  -5.255 -10.727  0.00  0.00     0.275 HD
HETATM   12  H           1     -24.192  -4.311 -12.148  0.00  0.00     0.275 HD
HETATM   13  H           1     -23.474  -5.860 -12.154  0.00  0.00     0.275 HD
ENDBRANCH   5  10
ENDBRANCH   1   5
BRANCH   4  14
HETATM   14  C           1     -21.601  -4.198  -7.427  0.00  0.00     0.209 C 
BRANCH  14  15
HETATM   15  C           1     -22.630  -5.057  -6.705  0.00  0.00     0.200 C 
BRANCH  15  16
HETATM   16  O           1     -23.871  -4.406  -6.711  0.00  0.00    -0.398 OA
HETATM   17  H           1     -24.208  -4.468  -7.589  0.00  0.00     0.209 HD
ENDBRANCH  15  16
ENDBRANCH  14  15
BRANCH  14  18
HETATM   18  C           1     -20.244  -4.400  -6.798  0.00  0.00     0.198 C 
HETATM   19  O           1     -19.217  -4.388  -7.511  0.00  0.00    -0.646 OA
HETATM   20  O           1     -20.148  -4.579  -5.565  0.00  0.00    -0.646 OA
ENDBRANCH  14  18
ENDBRANCH   4  14
TORSDOF 9
ENDMDL
MODEL 5
REMARK VINA RESULT:      -5.2      3.582      6.556
REMARK  9 active torsions:
REMARK  status: ('A' for Active; 'I' for Inactive)
REMARK    1  A    between atoms: C_1  and  O_15 
REMARK    2  A    between atoms: C_1  and  C_2 
REMARK    3  A    between atoms: C_2  and  C_3 
REMARK    4  A    between atoms: C_2  and  N_14 
REMARK       I    between atoms: C_6  and  N_14 
REMARK    5  A    between atoms: C_6  and  C_7 
REMARK    6  A    between atoms: C_7  and  C_8 
REMARK    7  A    between atoms: C_7  and  N_17 
REMARK    8  A    between atoms: C_8  and  C_12 
REMARK    9  A    between atoms: S_11  and  C_12 
ROOT
HETATM    1  C           1     -22.042  -4.468  -7.661  0.00  0.00     0.249 C 
HETATM    2  H           1     -22.547  -6.460  -7.407  0.00  0.00     0.163 HD
HETATM    3  O           1     -21.455  -3.527  -7.183  0.00  0.00    -0.271 OA
HETATM    4  N           1     -22.054  -5.671  -7.007  0.00  0.00    -0.343 N 
ENDROOT
BRANCH   1   5
HETATM    5  C           1     -22.762  -4.318  -8.979  0.00  0.00     0.275 C 
BRANCH   5   6
HETATM    6  C           1     -21.778  -3.860 -10.046  0.00  0.00     0.053 C 
BRANCH   6   7
HETATM    7  C           1     -22.274  -4.299 -11.418  0.00  0.00     0.076 C 
BRANCH   7   8
HETATM    8  S           1     -22.666  -2.836 -12.417  0.00  0.00    -0.173 SA
HETATM    9  C           1     -24.466  -3.071 -12.415  0.00  0.00     0.089 C 
ENDBRANCH   7   8
ENDBRANCH   6   7
ENDBRANCH   5   6
BRANCH   5  10
HETATM   10  N           1     -23.856  -3.301  -8.836  0.00  0.00    -0.066 N 
HETATM   11  H           1     -24.043  -3.131  -7.823  0.00  0.00     0.275 HD
HETATM   12  H           1     -23.561  -2.408  -9.290  0.00  0.00     0.275 HD
HETATM   13  H           1     -24.724  -3.657  -9.297  0.00  0.00     0.275 HD
ENDBRANCH   5  10
ENDBRANCH   1   5
BRANCH   4  14
HETATM   14  C           1     -21.362  -5.814  -5.741  0.00  0.00     0.209 C 
BRANCH  14  15
HETATM   15  C           1     -22.322  -6.376  -4.700  0.00  0.00     0.200 C 
BRANCH  15  16
HETATM   16  O           1     -21.890  -6.008  -3.418  0.00  0.00    -0.398 OA
HETATM   17  H           1     -21.277  -5.301  -3.528  0.00  0.00     0.209 HD
ENDBRANCH  15  16
ENDBRANCH  14  15
BRANCH  14  18
HETATM   18  C           1     -20.195  -6.756  -5.910  0.00  0.00     0.198 C 
HETATM   19  O           1     -19.492  -6.700  -6.943  0.00  0.00    -0.646 OA
HETATM   20  O           1     -19.931  -7.591  -5.018  0.00  0.00    -0.646 OA
ENDBRANCH  14  18
ENDBRANCH   4  14
TORSDOF 9
ENDMDL
MODEL 6
REMARK VINA RESULT:      -5.0     11.367     12.676
REMARK  9 active torsions:
REMARK  status: ('A' for Active; 'I' for Inactive)
REMARK    1  A    between atoms: C_1  and  O_15 
REMARK    2  A    between atoms: C_1  and  C_2 
REMARK    3  A    between atoms: C_2  and  C_3 
REMARK    4  A    between atoms: C_2  and  N_14 
REMARK       I    between atoms: C_6  and  N_14 
REMARK    5  A    between atoms: C_6  and  C_7 
REMARK    6  A    between atoms: C_7  and  C_8 
REMARK    7  A    between atoms: C_7  and  N_17 
REMARK    8  A    between atoms: C_8  and  C_12 
REMARK    9  A    between atoms: S_11  and  C_12 
ROOT
HETATM    1  C           1     -27.223  -6.285 -19.335  0.00  0.00     0.249 C 
HETATM    2  H           1     -27.313  -7.389 -17.586  0.00  0.00     0.163 HD
HETATM    3  O           1     -27.858  -5.628 -20.125  0.00  0.00    -0.271 OA
HETATM    4  N           1     -27.845  -6.838 -18.248  0.00  0.00    -0.343 N 
ENDROOT
BRANCH   1   5
HETATM    5  C           1     -25.744  -6.497 -19.548  0.00  0.00     0.275 C 
BRANCH   5   6
HETATM    6  C           1     -25.529  -7.410 -20.747  0.00  0.00     0.053 C 
BRANCH   6   7
HETATM    7  C           1     -24.124  -7.996 -20.695  0.00  0.00     0.076 C 
BRANCH   7   8
HETATM    8  S           1     -23.481  -8.180 -22.382  0.00  0.00    -0.173 SA
HETATM    9  C           1     -21.900  -8.936 -21.910  0.00  0.00     0.089 C 
ENDBRANCH   7   8
ENDBRANCH   6   7
ENDBRANCH   5   6
BRANCH   5  10
HETATM   10  N           1     -25.150  -7.131 -18.324  0.00  0.00    -0.066 N 
HETATM   11  H           1     -25.013  -6.403 -17.587  0.00  0.00     0.275 HD
HETATM   12  H           1     -25.795  -7.871 -17.967  0.00  0.00     0.275 HD
HETATM   13  H           1     -24.228  -7.559 -18.567  0.00  0.00     0.275 HD
ENDBRANCH   5  10
ENDBRANCH   1   5
BRANCH   4  14
HETATM   14  C           1     -29.266  -6.634 -18.044  0.00  0.00     0.209 C 
BRANCH  14  15
HETATM   15  C           1     -29.985  -7.974 -18.117  0.00  0.00     0.200 C 
BRANCH  15  16
HETATM   16  O           1     -29.592  -8.654 -19.279  0.00  0.00    -0.398 OA
HETATM   17  H           1     -29.220  -8.012 -19.859  0.00  0.00     0.209 HD
ENDBRANCH  15  16
ENDBRANCH  14  15
BRANCH  14  18
HETATM   18  C           1     -29.495  -6.012 -16.689  0.00  0.00     0.198 C 
HETATM   19  O           1     -28.643  -6.152 -15.785  0.00  0.00    -0.646 OA
HETATM   20  O           1     -30.537  -5.356 -16.470  0.00  0.00    -0.646 OA
ENDBRANCH  14  18
ENDBRANCH   4  14
TORSDOF 9
ENDMDL
MODEL 7
REMARK VINA RESULT:      -5.0      3.566      5.184
REMARK  9 active torsions:
REMARK  status: ('A' for Active; 'I' for Inactive)
REMARK    1  A    between atoms: C_1  and  O_15 
REMARK    2  A    between atoms: C_1  and  C_2 
REMARK    3  A    between atoms: C_2  and  C_3 
REMARK    4  A    between atoms: C_2  and  N_14 
REMARK       I    between atoms: C_6  and  N_14 
REMARK    5  A    between atoms: C_6  and  C_7 
REMARK    6  A    between atoms: C_7  and  C_8 
REMARK    7  A    between atoms: C_7  and  N_17 
REMARK    8  A    between atoms: C_8  and  C_12 
REMARK    9  A    between atoms: S_11  and  C_12 
ROOT
HETATM    1  C           1     -21.562  -6.360  -4.506  0.00  0.00     0.249 C 
HETATM    2  H           1     -20.477  -4.665  -4.990  0.00  0.00     0.163 HD
HETATM    3  O           1     -22.251  -7.253  -4.941  0.00  0.00    -0.271 OA
HETATM    4  N           1     -21.054  -5.413  -5.354  0.00  0.00    -0.343 N 
ENDROOT
BRANCH   1   5
HETATM    5  C           1     -21.261  -6.291  -3.029  0.00  0.00     0.275 C 
BRANCH   5   6
HETATM    6  C           1     -20.750  -7.643  -2.551  0.00  0.00     0.053 C 
BRANCH   6   7
HETATM    7  C           1     -21.851  -8.359  -1.779  0.00  0.00     0.076 C 
BRANCH   7   8
HETATM    8  S           1     -21.361  -8.526  -0.040  0.00  0.00    -0.173 SA
HETATM    9  C           1     -22.973  -8.079   0.665  0.00  0.00     0.089 C 
ENDBRANCH   7   8
ENDBRANCH   6   7
ENDBRANCH   5   6
BRANCH   5  10
HETATM   10  N           1     -22.512  -5.936  -2.282  0.00  0.00    -0.066 N 
HETATM   11  H           1     -22.707  -4.915  -2.396  0.00  0.00     0.275 HD
HETATM   12  H           1     -23.313  -6.488  -2.661  0.00  0.00     0.275 HD
HETATM   13  H           1     -22.385  -6.155  -1.268  0.00  0.00     0.275 HD
ENDBRANCH   5  10
ENDBRANCH   1   5
BRANCH   4  14
HETATM   14  C           1     -21.343  -5.480  -6.774  0.00  0.00     0.209 C 
BRANCH  14  15
HETATM   15  C           1     -22.492  -4.535  -7.101  0.00  0.00     0.200 C 
BRANCH  15  16
HETATM   16  O           1     -21.977  -3.282  -7.463  0.00  0.00    -0.398 OA
HETATM   17  H           1     -22.049  -3.216  -8.399  0.00  0.00     0.209 HD
ENDBRANCH  15  16
ENDBRANCH  14  15
BRANCH  14  18
HETATM   18  C           1     -20.118  -5.075  -7.556  0.00  0.00     0.198 C 
HETATM   19  O           1     -20.105  -5.192  -8.801  0.00  0.00    -0.646 OA
HETATM   20  O           1     -19.117  -4.622  -6.959  0.00  0.00    -0.646 OA
ENDBRANCH  14  18
ENDBRANCH   4  14
TORSDOF 9
ENDMDL
MODEL 8
REMARK VINA RESULT:      -4.9      3.644      6.186
REMARK  9 active torsions:
REMARK  status: ('A' for Active; 'I' for Inactive)
REMARK    1  A    between atoms: C_1  and  O_15 
REMARK    2  A    between atoms: C_1  and  C_2 
REMARK    3  A    between atoms: C_2  and  C_3 
REMARK    4  A    between atoms: C_2  and  N_14 
REMARK       I    between atoms: C_6  and  N_14 
REMARK    5  A    between atoms: C_6  and  C_7 
REMARK    6  A    between atoms: C_7  and  C_8 
REMARK    7  A    between atoms: C_7  and  N_17 
REMARK    8  A    between atoms: C_8  and  C_12 
REMARK    9  A    between atoms: S_11  and  C_12 
ROOT
HETATM    1  C           1     -23.047  -4.627  -8.219  0.00  0.00     0.249 C 
HETATM    2  H           1     -21.213  -5.344  -8.856  0.00  0.00     0.163 HD
HETATM    3  O           1     -23.718  -4.340  -7.256  0.00  0.00    -0.271 OA
HETATM    4  N           1     -21.774  -5.102  -8.049  0.00  0.00    -0.343 N 
ENDROOT
BRANCH   1   5
HETATM    5  C           1     -23.613  -4.462  -9.608  0.00  0.00     0.275 C 
BRANCH   5   6
HETATM    6  C           1     -22.748  -3.488 -10.396  0.00  0.00     0.053 C 
BRANCH   6   7
HETATM    7  C           1     -22.367  -4.111 -11.732  0.00  0.00     0.076 C 
BRANCH   7   8
HETATM    8  S           1     -22.750  -2.950 -13.074  0.00  0.00    -0.173 SA
HETATM    9  C           1     -24.549  -2.950 -12.829  0.00  0.00     0.089 C 
ENDBRANCH   7   8
ENDBRANCH   6   7
ENDBRANCH   5   6
BRANCH   5  10
HETATM   10  N           1     -25.012  -3.928  -9.517  0.00  0.00    -0.066 N 
HETATM   11  H           1     -25.638  -4.484 -10.142  0.00  0.00     0.275 HD
HETATM   12  H           1     -25.349  -4.001  -8.531  0.00  0.00     0.275 HD
HETATM   13  H           1     -25.022  -2.926  -9.816  0.00  0.00     0.275 HD
ENDBRANCH   5  10
ENDBRANCH   1   5
BRANCH   4  14
HETATM   14  C           1     -21.232  -5.261  -6.714  0.00  0.00     0.209 C 
BRANCH  14  15
HETATM   15  C           1     -21.180  -6.742  -6.361  0.00  0.00     0.200 C 
BRANCH  15  16
HETATM   16  O           1     -19.846  -7.172  -6.348  0.00  0.00    -0.398 OA
HETATM   17  H           1     -19.315  -6.429  -6.579  0.00  0.00     0.209 HD
ENDBRANCH  15  16
ENDBRANCH  14  15
BRANCH  14  18
HETATM   18  C           1     -19.839  -4.682  -6.666  0.00  0.00     0.198 C 
HETATM   19  O           1     -19.210  -4.478  -7.727  0.00  0.00    -0.646 OA
HETATM   20  O           1     -19.315  -4.406  -5.565  0.00  0.00    -0.646 OA
ENDBRANCH  14  18
ENDBRANCH   4  14
TORSDOF 9
ENDMDL
MODEL 9
REMARK VINA RESULT:      -4.7      4.037      6.967
REMARK  9 active torsions:
REMARK  status: ('A' for Active; 'I' for Inactive)
REMARK    1  A    between atoms: C_1  and  O_15 
REMARK    2  A    between atoms: C_1  and  C_2 
REMARK    3  A    between atoms: C_2  and  C_3 
REMARK    4  A    between atoms: C_2  and  N_14 
REMARK       I    between atoms: C_6  and  N_14 
REMARK    5  A    between atoms: C_6  and  C_7 
REMARK    6  A    between atoms: C_7  and  C_8 
REMARK    7  A    between atoms: C_7  and  N_17 
REMARK    8  A    between atoms: C_8  and  C_12 
REMARK    9  A    between atoms: S_11  and  C_12 
ROOT
HETATM    1  C           1     -21.378  -5.391  -6.158  0.00  0.00     0.249 C 
HETATM    2  H           1     -22.133  -7.318  -6.170  0.00  0.00     0.163 HD
HETATM    3  O           1     -20.608  -4.632  -5.618  0.00  0.00    -0.271 OA
HETATM    4  N           1     -21.488  -6.683  -5.718  0.00  0.00    -0.343 N 
ENDROOT
BRANCH   1   5
HETATM    5  C           1     -22.219  -4.913  -7.317  0.00  0.00     0.275 C 
BRANCH   5   6
HETATM    6  C           1     -21.536  -3.729  -7.986  0.00  0.00     0.053 C 
BRANCH   6   7
HETATM    7  C           1     -21.243  -4.066  -9.442  0.00  0.00     0.076 C 
BRANCH   7   8
HETATM    8  S           1     -22.751  -3.856 -10.428  0.00  0.00    -0.173 SA
HETATM    9  C           1     -21.969  -2.959 -11.799  0.00  0.00     0.089 C 
ENDBRANCH   7   8
ENDBRANCH   6   7
ENDBRANCH   5   6
BRANCH   5  10
HETATM   10  N           1     -23.569  -4.494  -6.814  0.00  0.00    -0.066 N 
HETATM   11  H           1     -24.168  -4.210  -7.621  0.00  0.00     0.275 HD
HETATM   12  H           1     -24.017  -5.293  -6.312  0.00  0.00     0.275 HD
HETATM   13  H           1     -23.460  -3.687  -6.159  0.00  0.00     0.275 HD
ENDBRANCH   5  10
ENDBRANCH   1   5
BRANCH   4  14
HETATM   14  C           1     -20.679  -7.140  -4.604  0.00  0.00     0.209 C 
BRANCH  14  15
HETATM   15  C           1     -21.547  -7.239  -3.356  0.00  0.00     0.200 C 
BRANCH  15  16
HETATM   16  O           1     -21.954  -5.955  -2.967  0.00  0.00    -0.398 OA
HETATM   17  H           1     -21.400  -5.698  -2.250  0.00  0.00     0.209 HD
ENDBRANCH  15  16
ENDBRANCH  14  15
BRANCH  14  18
HETATM   18  C           1     -20.103  -8.497  -4.926  0.00  0.00     0.198 C 
HETATM   19  O           1     -20.712  -9.267  -5.701  0.00  0.00    -0.646 OA
HETATM   20  O           1     -19.017  -8.851  -4.419  0.00  0.00    -0.646 OA
ENDBRANCH  14  18
ENDBRANCH   4  14
TORSDOF 9
ENDMDL
