MODEL 1
REMARK VINA RESULT:      -6.0      0.000      0.000
REMARK  5 active torsions:
REMARK  status: ('A' for Active; 'I' for Inactive)
REMARK    1  A    between atoms: C_2  and  C_18 
REMARK    2  A    between atoms: S_3  and  C_19 
REMARK       I    between atoms: C_9  and  N_11 
REMARK    3  A    between atoms: C_9  and  C_10 
REMARK    4  A    between atoms: N_11  and  C_18 
REMARK    5  A    between atoms: C_18  and  C_19 
ROOT
HETATM    1  H           1     -22.886  -6.538  -5.475  0.00  0.00     0.274 HD
HETATM    2  H           1     -22.309  -5.278  -6.472  0.00  0.00     0.274 HD
HETATM    3  C           1     -20.231  -6.788  -5.713  0.00  0.00     0.027 C 
HETATM    4  C           1     -21.023  -5.777  -4.895  0.00  0.00     0.229 C 
HETATM    5  C           1     -20.299  -3.898  -7.781  0.00  0.00     0.274 C 
HETATM    6  H           1     -22.046  -4.704  -6.953  0.00  0.00     0.275 HD
HETATM    7  N           1     -22.392  -5.617  -5.486  0.00  0.00    -0.079 N 
HETATM    8  C           1     -19.390  -4.954  -7.168  0.00  0.00     0.042 C 
HETATM    9  C           1     -20.109  -6.297  -7.149  0.00  0.00     0.004 C 
HETATM   10  H           1     -22.176  -3.058  -7.385  0.00  0.00     0.275 HD
HETATM   11  N           1     -21.553  -3.783  -6.964  0.00  0.00    -0.067 N 
HETATM   12  H           1     -21.307  -3.507  -5.987  0.00  0.00     0.275 HD
HETATM   13  H           1     -22.937  -4.923  -4.925  0.00  0.00     0.274 HD
ENDROOT
BRANCH   5  14
HETATM   14  C           1     -20.655  -4.297  -9.192  0.00  0.00     0.249 C 
HETATM   15  N           1     -21.895  -4.007  -9.694  0.00  0.00    -0.344 N 
HETATM   16  H           1     -22.574  -3.524  -9.119  0.00  0.00     0.163 HD
HETATM   17  O           1     -19.845  -4.872  -9.879  0.00  0.00    -0.271 OA
BRANCH  15  18
HETATM   18  C           1     -22.236  -4.390 -11.050  0.00  0.00     0.194 C 
BRANCH  18  19
HETATM   19  C           1     -22.007  -3.221 -11.976  0.00  0.00     0.197 C 
HETATM   20  O           1     -21.281  -2.270 -11.613  0.00  0.00    -0.646 OA
HETATM   21  O           1     -22.544  -3.202 -13.104  0.00  0.00    -0.646 OA
ENDBRANCH  18  19
BRANCH  18  22
HETATM   22  C           1     -23.701  -4.804 -11.107  0.00  0.00     0.106 C 
BRANCH  22  23
HETATM   23  S           1     -24.667  -3.772  -9.969  0.00  0.00    -0.180 SA
HETATM   24  H           1     -24.845  -2.749 -10.825  0.00  0.00     0.101 HD
ENDBRANCH  22  23
ENDBRANCH  18  22
ENDBRANCH  15  18
ENDBRANCH   5  14
TORSDOF 5
ENDMDL
MODEL 2
REMARK VINA RESULT:      -6.0     12.942     14.429
REMARK  5 active torsions:
REMARK  status: ('A' for Active; 'I' for Inactive)
REMARK    1  A    between atoms: C_2  and  C_18 
REMARK    2  A    between atoms: S_3  and  C_19 
REMARK       I    between atoms: C_9  and  N_11 
REMARK    3  A    between atoms: C_9  and  C_10 
REMARK    4  A    between atoms: N_11  and  C_18 
REMARK    5  A    between atoms: C_18  and  C_19 
ROOT
HETATM    1  H           1     -34.365  -6.969 -12.392  0.00  0.00     0.274 HD
HETATM    2  H           1     -35.027  -5.426 -12.086  0.00  0.00     0.274 HD
HETATM    3  C           1     -32.386  -5.323 -11.652  0.00  0.00     0.027 C 
HETATM    4  C           1     -33.470  -5.959 -10.791  0.00  0.00     0.229 C 
HETATM    5  C           1     -34.834  -2.765 -11.353  0.00  0.00     0.274 C 
HETATM    6  H           1     -35.334  -4.704 -11.965  0.00  0.00     0.275 HD
HETATM    7  N           1     -34.655  -6.298 -11.646  0.00  0.00    -0.079 N 
HETATM    8  C           1     -33.350  -3.074 -11.209  0.00  0.00     0.042 C 
HETATM    9  C           1     -32.927  -4.054 -12.295  0.00  0.00     0.004 C 
HETATM   10  H           1     -36.642  -3.819 -11.318  0.00  0.00     0.275 HD
HETATM   11  N           1     -35.625  -4.033 -11.219  0.00  0.00    -0.067 N 
HETATM   12  H           1     -35.447  -4.456 -10.280  0.00  0.00     0.275 HD
HETATM   13  H           1     -35.399  -6.733 -11.056  0.00  0.00     0.274 HD
ENDROOT
BRANCH   5  14
HETATM   14  C           1     -35.092  -2.153 -12.708  0.00  0.00     0.249 C 
HETATM   15  N           1     -35.776  -0.971 -12.808  0.00  0.00    -0.344 N 
HETATM   16  H           1     -36.109  -0.507 -11.972  0.00  0.00     0.163 HD
HETATM   17  O           1     -34.694  -2.707 -13.706  0.00  0.00    -0.271 OA
BRANCH  15  18
HETATM   18  C           1     -36.024  -0.385 -14.110  0.00  0.00     0.194 C 
BRANCH  18  19
HETATM   19  C           1     -35.194   0.866 -14.264  0.00  0.00     0.197 C 
HETATM   20  O           1     -34.264   1.101 -13.462  0.00  0.00    -0.646 OA
HETATM   21  O           1     -35.438   1.668 -15.191  0.00  0.00    -0.646 OA
ENDBRANCH  18  19
BRANCH  18  22
HETATM   22  C           1     -37.501  -0.034 -14.236  0.00  0.00     0.106 C 
BRANCH  22  23
HETATM   23  S           1     -38.075  -0.417 -15.915  0.00  0.00    -0.180 SA
HETATM   24  H           1     -36.969   0.020 -16.544  0.00  0.00     0.101 HD
ENDBRANCH  22  23
ENDBRANCH  18  22
ENDBRANCH  15  18
ENDBRANCH   5  14
TORSDOF 5
ENDMDL
MODEL 3
REMARK VINA RESULT:      -5.6      2.242      2.549
REMARK  5 active torsions:
REMARK  status: ('A' for Active; 'I' for Inactive)
REMARK    1  A    between atoms: C_2  and  C_18 
REMARK    2  A    between atoms: S_3  and  C_19 
REMARK       I    between atoms: C_9  and  N_11 
REMARK    3  A    between atoms: C_9  and  C_10 
REMARK    4  A    between atoms: N_11  and  C_18 
REMARK    5  A    between atoms: C_18  and  C_19 
ROOT
HETATM    1  H           1     -22.495  -6.167  -3.480  0.00  0.00     0.274 HD
HETATM    2  H           1     -21.517  -5.218  -4.508  0.00  0.00     0.274 HD
HETATM    3  C           1     -21.496  -7.743  -5.401  0.00  0.00     0.027 C 
HETATM    4  C           1     -20.790  -7.155  -4.187  0.00  0.00     0.229 C 
HETATM    5  C           1     -19.851  -4.868  -6.690  0.00  0.00     0.274 C 
HETATM    6  H           1     -21.080  -4.770  -4.997  0.00  0.00     0.275 HD
HETATM    7  N           1     -21.512  -5.921  -3.735  0.00  0.00    -0.079 N 
HETATM    8  C           1     -20.073  -6.360  -6.900  0.00  0.00     0.042 C 
HETATM    9  C           1     -21.505  -6.719  -6.528  0.00  0.00     0.004 C 
HETATM   10  H           1     -19.944  -3.501  -5.108  0.00  0.00     0.275 HD
HETATM   11  N           1     -20.096  -4.524  -5.251  0.00  0.00    -0.067 N 
HETATM   12  H           1     -19.435  -5.063  -4.647  0.00  0.00     0.275 HD
HETATM   13  H           1     -21.027  -5.518  -2.902  0.00  0.00     0.274 HD
ENDROOT
BRANCH   5  14
HETATM   14  C           1     -20.806  -4.090  -7.561  0.00  0.00     0.249 C 
HETATM   15  N           1     -20.976  -4.439  -8.875  0.00  0.00    -0.344 N 
HETATM   16  H           1     -20.460  -5.219  -9.261  0.00  0.00     0.163 HD
HETATM   17  O           1     -21.422  -3.159  -7.100  0.00  0.00    -0.271 OA
BRANCH  15  18
HETATM   18  C           1     -21.893  -3.690  -9.711  0.00  0.00     0.194 C 
BRANCH  18  19
HETATM   19  C           1     -23.271  -4.299  -9.615  0.00  0.00     0.197 C 
HETATM   20  O           1     -23.518  -5.380 -10.192  0.00  0.00    -0.646 OA
HETATM   21  O           1     -24.165  -3.721  -8.959  0.00  0.00    -0.646 OA
ENDBRANCH  18  19
BRANCH  18  22
HETATM   22  C           1     -21.416  -3.739 -11.157  0.00  0.00     0.106 C 
BRANCH  22  23
HETATM   23  S           1     -22.537  -2.762 -12.198  0.00  0.00    -0.180 SA
HETATM   24  H           1     -21.976  -3.108 -13.371  0.00  0.00     0.101 HD
ENDBRANCH  22  23
ENDBRANCH  18  22
ENDBRANCH  15  18
ENDBRANCH   5  14
TORSDOF 5
ENDMDL
MODEL 4
REMARK VINA RESULT:      -5.4      3.968      6.585
REMARK  5 active torsions:
REMARK  status: ('A' for Active; 'I' for Inactive)
REMARK    1  A    between atoms: C_2  and  C_18 
REMARK    2  A    between atoms: S_3  and  C_19 
REMARK       I    between atoms: C_9  and  N_11 
REMARK    3  A    between atoms: C_9  and  C_10 
REMARK    4  A    between atoms: N_11  and  C_18 
REMARK    5  A    between atoms: C_18  and  C_19 
ROOT
HETATM    1  H           1     -20.628  -5.411 -11.212  0.00  0.00     0.274 HD
HETATM    2  H           1     -20.138  -5.265  -9.583  0.00  0.00     0.274 HD
HETATM    3  C           1     -22.405  -3.880  -9.920  0.00  0.00     0.027 C 
HETATM    4  C           1     -20.995  -3.526 -10.376  0.00  0.00     0.229 C 
HETATM    5  C           1     -20.437  -4.330  -6.996  0.00  0.00     0.274 C 
HETATM    6  H           1     -19.920  -5.217  -8.822  0.00  0.00     0.275 HD
HETATM    7  N           1     -20.183  -4.780 -10.508  0.00  0.00    -0.079 N 
HETATM    8  C           1     -21.693  -3.669  -7.547  0.00  0.00     0.042 C 
HETATM    9  C           1     -22.342  -4.587  -8.574  0.00  0.00     0.004 C 
HETATM   10  H           1     -18.612  -5.040  -7.739  0.00  0.00     0.275 HD
HETATM   11  N           1     -19.474  -4.586  -8.118  0.00  0.00    -0.067 N 
HETATM   12  H           1     -19.220  -3.680  -8.573  0.00  0.00     0.275 HD
HETATM   13  H           1     -19.215  -4.539 -10.820  0.00  0.00     0.274 HD
ENDROOT
BRANCH   5  14
HETATM   14  C           1     -20.802  -5.639  -6.340  0.00  0.00     0.249 C 
HETATM   15  N           1     -20.972  -5.701  -4.983  0.00  0.00    -0.344 N 
HETATM   16  H           1     -20.852  -4.869  -4.419  0.00  0.00     0.163 HD
HETATM   17  O           1     -20.946  -6.632  -7.013  0.00  0.00    -0.271 OA
BRANCH  15  18
HETATM   18  C           1     -21.323  -6.959  -4.353  0.00  0.00     0.194 C 
BRANCH  18  19
HETATM   19  C           1     -21.614  -6.725  -2.891  0.00  0.00     0.197 C 
HETATM   20  O           1     -20.967  -7.343  -2.018  0.00  0.00    -0.646 OA
HETATM   21  O           1     -22.503  -5.913  -2.553  0.00  0.00    -0.646 OA
ENDBRANCH  18  19
BRANCH  18  22
HETATM   22  C           1     -20.161  -7.936  -4.489  0.00  0.00     0.106 C 
BRANCH  22  23
HETATM   23  S           1     -20.800  -9.583  -4.903  0.00  0.00    -0.180 SA
HETATM   24  H           1     -19.808  -9.910  -5.750  0.00  0.00     0.101 HD
ENDBRANCH  22  23
ENDBRANCH  18  22
ENDBRANCH  15  18
ENDBRANCH   5  14
TORSDOF 5
ENDMDL
MODEL 5
REMARK VINA RESULT:      -5.4     13.235     14.580
REMARK  5 active torsions:
REMARK  status: ('A' for Active; 'I' for Inactive)
REMARK    1  A    between atoms: C_2  and  C_18 
REMARK    2  A    between atoms: S_3  and  C_19 
REMARK       I    between atoms: C_9  and  N_11 
REMARK    3  A    between atoms: C_9  and  C_10 
REMARK    4  A    between atoms: N_11  and  C_18 
REMARK    5  A    between atoms: C_18  and  C_19 
ROOT
HETATM    1  H           1     -34.714  -6.173 -12.631  0.00  0.00     0.274 HD
HETATM    2  H           1     -35.366  -4.817 -11.824  0.00  0.00     0.274 HD
HETATM    3  C           1     -32.717  -4.489 -12.044  0.00  0.00     0.027 C 
HETATM    4  C           1     -33.489  -5.414 -11.112  0.00  0.00     0.229 C 
HETATM    5  C           1     -35.151  -2.361 -10.568  0.00  0.00     0.274 C 
HETATM    6  H           1     -35.674  -4.178 -11.468  0.00  0.00     0.275 HD
HETATM    7  N           1     -34.835  -5.710 -11.702  0.00  0.00    -0.079 N 
HETATM    8  C           1     -33.667  -2.512 -10.871  0.00  0.00     0.042 C 
HETATM    9  C           1     -33.489  -3.189 -12.223  0.00  0.00     0.004 C 
HETATM   10  H           1     -36.814  -3.610 -10.332  0.00  0.00     0.275 HD
HETATM   11  N           1     -35.796  -3.715 -10.539  0.00  0.00    -0.067 N 
HETATM   12  H           1     -35.347  -4.298  -9.797  0.00  0.00     0.275 HD
HETATM   13  H           1     -35.366  -6.344 -11.063  0.00  0.00     0.274 HD
ENDROOT
BRANCH   5  14
HETATM   14  C           1     -35.800  -1.519 -11.640  0.00  0.00     0.249 C 
HETATM   15  N           1     -35.029  -0.904 -12.589  0.00  0.00    -0.344 N 
HETATM   16  H           1     -34.023  -1.014 -12.573  0.00  0.00     0.163 HD
HETATM   17  O           1     -37.001  -1.389 -11.660  0.00  0.00    -0.271 OA
BRANCH  15  18
HETATM   18  C           1     -35.654  -0.096 -13.618  0.00  0.00     0.194 C 
BRANCH  18  19
HETATM   19  C           1     -35.958  -0.958 -14.818  0.00  0.00     0.197 C 
HETATM   20  O           1     -37.103  -0.948 -15.320  0.00  0.00    -0.646 OA
HETATM   21  O           1     -35.066  -1.683 -15.310  0.00  0.00    -0.646 OA
ENDBRANCH  18  19
BRANCH  18  22
HETATM   22  C           1     -34.707   1.026 -14.026  0.00  0.00     0.106 C 
BRANCH  22  23
HETATM   23  S           1     -35.430   1.957 -15.406  0.00  0.00    -0.180 SA
HETATM   24  H           1     -34.667   1.401 -16.365  0.00  0.00     0.101 HD
ENDBRANCH  22  23
ENDBRANCH  18  22
ENDBRANCH  15  18
ENDBRANCH   5  14
TORSDOF 5
ENDMDL
MODEL 6
REMARK VINA RESULT:      -5.0     12.933     14.477
REMARK  5 active torsions:
REMARK  status: ('A' for Active; 'I' for Inactive)
REMARK    1  A    between atoms: C_2  and  C_18 
REMARK    2  A    between atoms: S_3  and  C_19 
REMARK       I    between atoms: C_9  and  N_11 
REMARK    3  A    between atoms: C_9  and  C_10 
REMARK    4  A    between atoms: N_11  and  C_18 
REMARK    5  A    between atoms: C_18  and  C_19 
ROOT
HETATM    1  H           1     -34.744  -6.020 -12.760  0.00  0.00     0.274 HD
HETATM    2  H           1     -35.255  -4.466 -12.273  0.00  0.00     0.274 HD
HETATM    3  C           1     -32.685  -4.775 -11.585  0.00  0.00     0.027 C 
HETATM    4  C           1     -33.924  -5.383 -10.942  0.00  0.00     0.229 C 
HETATM    5  C           1     -34.841  -1.991 -11.106  0.00  0.00     0.274 C 
HETATM    6  H           1     -35.489  -3.736 -12.066  0.00  0.00     0.275 HD
HETATM    7  N           1     -35.037  -5.434 -11.946  0.00  0.00    -0.079 N 
HETATM    8  C           1     -33.428  -2.509 -10.877  0.00  0.00     0.042 C 
HETATM    9  C           1     -33.002  -3.365 -12.063  0.00  0.00     0.004 C 
HETATM   10  H           1     -36.751  -2.793 -11.409  0.00  0.00     0.275 HD
HETATM   11  N           1     -35.782  -3.150 -11.252  0.00  0.00    -0.067 N 
HETATM   12  H           1     -35.760  -3.728 -10.381  0.00  0.00     0.275 HD
HETATM   13  H           1     -35.887  -5.851 -11.505  0.00  0.00     0.274 HD
ENDROOT
BRANCH   5  14
HETATM   14  C           1     -34.874  -1.157 -12.363  0.00  0.00     0.249 C 
HETATM   15  N           1     -35.313  -1.706 -13.538  0.00  0.00    -0.344 N 
HETATM   16  H           1     -35.617  -2.671 -13.564  0.00  0.00     0.163 HD
HETATM   17  O           1     -34.513  -0.004 -12.333  0.00  0.00    -0.271 OA
BRANCH  15  18
HETATM   18  C           1     -35.345  -0.904 -14.746  0.00  0.00     0.194 C 
BRANCH  18  19
HETATM   19  C           1     -36.701  -0.257 -14.884  0.00  0.00     0.197 C 
HETATM   20  O           1     -37.668  -0.684 -14.217  0.00  0.00    -0.646 OA
HETATM   21  O           1     -36.858   0.705 -15.667  0.00  0.00    -0.646 OA
ENDBRANCH  18  19
BRANCH  18  22
HETATM   22  C           1     -35.081  -1.795 -15.953  0.00  0.00     0.106 C 
BRANCH  22  23
HETATM   23  S           1     -34.550  -3.437 -15.391  0.00  0.00    -0.180 SA
HETATM   24  H           1     -35.196  -4.129 -16.347  0.00  0.00     0.101 HD
ENDBRANCH  22  23
ENDBRANCH  18  22
ENDBRANCH  15  18
ENDBRANCH   5  14
TORSDOF 5
ENDMDL
MODEL 7
REMARK VINA RESULT:      -4.8      6.963      9.700
REMARK  5 active torsions:
REMARK  status: ('A' for Active; 'I' for Inactive)
REMARK    1  A    between atoms: C_2  and  C_18 
REMARK    2  A    between atoms: S_3  and  C_19 
REMARK       I    between atoms: C_9  and  N_11 
REMARK    3  A    between atoms: C_9  and  C_10 
REMARK    4  A    between atoms: N_11  and  C_18 
REMARK    5  A    between atoms: C_18  and  C_19 
ROOT
HETATM    1  H           1     -21.536  -8.752  -6.280  0.00  0.00     0.274 HD
HETATM    2  H           1     -21.020  -8.719  -4.653  0.00  0.00     0.274 HD
HETATM    3  C           1     -22.049  -6.325  -5.271  0.00  0.00     0.027 C 
HETATM    4  C           1     -20.711  -6.922  -5.683  0.00  0.00     0.229 C 
HETATM    5  C           1     -20.658  -7.474  -2.209  0.00  0.00     0.274 C 
HETATM    6  H           1     -20.799  -8.713  -3.891  0.00  0.00     0.275 HD
HETATM    7  N           1     -20.791  -8.418  -5.628  0.00  0.00    -0.079 N 
HETATM    8  C           1     -21.300  -6.278  -2.900  0.00  0.00     0.042 C 
HETATM    9  C           1     -22.385  -6.762  -3.852  0.00  0.00     0.004 C 
HETATM   10  H           1     -19.613  -9.201  -2.764  0.00  0.00     0.275 HD
HETATM   11  N           1     -20.053  -8.381  -3.239  0.00  0.00    -0.067 N 
HETATM   12  H           1     -19.326  -7.859  -3.778  0.00  0.00     0.275 HD
HETATM   13  H           1     -19.872  -8.829  -5.911  0.00  0.00     0.274 HD
ENDROOT
BRANCH   5  14
HETATM   14  C           1     -21.708  -8.228  -1.430  0.00  0.00     0.249 C 
HETATM   15  N           1     -21.790  -9.591  -1.535  0.00  0.00    -0.344 N 
HETATM   16  H           1     -21.147 -10.093  -2.133  0.00  0.00     0.163 HD
HETATM   17  O           1     -22.476  -7.630  -0.715  0.00  0.00    -0.271 OA
BRANCH  15  18
HETATM   18  C           1     -22.799 -10.315  -0.786  0.00  0.00     0.194 C 
BRANCH  18  19
HETATM   19  C           1     -22.134 -11.126   0.299  0.00  0.00     0.197 C 
HETATM   20  O           1     -22.608 -12.235   0.629  0.00  0.00    -0.646 OA
HETATM   21  O           1     -21.111 -10.688   0.868  0.00  0.00    -0.646 OA
ENDBRANCH  18  19
BRANCH  18  22
HETATM   22  C           1     -23.556 -11.247  -1.725  0.00  0.00     0.106 C 
BRANCH  22  23
HETATM   23  S           1     -22.636 -11.417  -3.281  0.00  0.00    -0.180 SA
HETATM   24  H           1     -22.134 -10.169  -3.284  0.00  0.00     0.101 HD
ENDBRANCH  22  23
ENDBRANCH  18  22
ENDBRANCH  15  18
ENDBRANCH   5  14
TORSDOF 5
ENDMDL
MODEL 8
REMARK VINA RESULT:      -4.6      6.952      9.264
REMARK  5 active torsions:
REMARK  status: ('A' for Active; 'I' for Inactive)
REMARK    1  A    between atoms: C_2  and  C_18 
REMARK    2  A    between atoms: S_3  and  C_19 
REMARK       I    between atoms: C_9  and  N_11 
REMARK    3  A    between atoms: C_9  and  C_10 
REMARK    4  A    between atoms: N_11  and  C_18 
REMARK    5  A    between atoms: C_18  and  C_19 
ROOT
HETATM    1  H           1     -21.116 -13.416  -2.557  0.00  0.00     0.274 HD
HETATM    2  H           1     -21.846 -11.963  -2.038  0.00  0.00     0.274 HD
HETATM    3  C           1     -20.275 -12.879  -0.072  0.00  0.00     0.027 C 
HETATM    4  C           1     -21.632 -13.398  -0.528  0.00  0.00     0.229 C 
HETATM    5  C           1     -22.301  -9.961  -0.182  0.00  0.00     0.274 C 
HETATM    6  H           1     -22.171 -11.277  -1.807  0.00  0.00     0.275 HD
HETATM    7  N           1     -21.865 -13.005  -1.956  0.00  0.00    -0.079 N 
HETATM    8  C           1     -21.337 -10.761   0.684  0.00  0.00     0.042 C 
HETATM    9  C           1     -20.245 -11.362  -0.192  0.00  0.00     0.004 C 
HETATM   10  H           1     -23.582 -10.316  -1.800  0.00  0.00     0.275 HD
HETATM   11  N           1     -22.921 -10.866  -1.206  0.00  0.00    -0.067 N 
HETATM   12  H           1     -23.441 -11.633  -0.724  0.00  0.00     0.275 HD
HETATM   13  H           1     -22.796 -13.361  -2.269  0.00  0.00     0.274 HD
ENDROOT
BRANCH   5  14
HETATM   14  C           1     -21.551  -8.853  -0.880  0.00  0.00     0.249 C 
HETATM   15  N           1     -21.651  -8.707  -2.238  0.00  0.00    -0.344 N 
HETATM   16  H           1     -22.229  -9.342  -2.774  0.00  0.00     0.163 HD
HETATM   17  O           1     -20.862  -8.094  -0.240  0.00  0.00    -0.271 OA
BRANCH  15  18
HETATM   18  C           1     -20.930  -7.642  -2.907  0.00  0.00     0.194 C 
BRANCH  18  19
HETATM   19  C           1     -21.874  -6.501  -3.196  0.00  0.00     0.197 C 
HETATM   20  O           1     -22.146  -6.199  -4.378  0.00  0.00    -0.646 OA
HETATM   21  O           1     -22.383  -5.857  -2.253  0.00  0.00    -0.646 OA
ENDBRANCH  18  19
BRANCH  18  22
HETATM   22  C           1     -20.351  -8.166  -4.215  0.00  0.00     0.106 C 
BRANCH  22  23
HETATM   23  S           1     -18.896  -9.194  -3.866  0.00  0.00    -0.180 SA
HETATM   24  H           1     -18.872  -9.813  -5.060  0.00  0.00     0.101 HD
ENDBRANCH  22  23
ENDBRANCH  18  22
ENDBRANCH  15  18
ENDBRANCH   5  14
TORSDOF 5
ENDMDL
MODEL 9
REMARK VINA RESULT:      -4.6      7.469      9.806
REMARK  5 active torsions:
REMARK  status: ('A' for Active; 'I' for Inactive)
REMARK    1  A    between atoms: C_2  and  C_18 
REMARK    2  A    between atoms: S_3  and  C_19 
REMARK       I    between atoms: C_9  and  N_11 
REMARK    3  A    between atoms: C_9  and  C_10 
REMARK    4  A    between atoms: N_11  and  C_18 
REMARK    5  A    between atoms: C_18  and  C_19 
ROOT
HETATM    1  H           1     -21.161 -13.808   1.308  0.00  0.00     0.274 HD
HETATM    2  H           1     -21.100 -13.017  -0.203  0.00  0.00     0.274 HD
HETATM    3  C           1     -23.545 -12.684   0.837  0.00  0.00     0.027 C 
HETATM    4  C           1     -22.939 -13.931   0.208  0.00  0.00     0.229 C 
HETATM    5  C           1     -22.214 -11.513  -2.242  0.00  0.00     0.274 C 
HETATM    6  H           1     -21.063 -12.632  -0.896  0.00  0.00     0.275 HD
HETATM    7  N           1     -21.444 -13.864   0.304  0.00  0.00    -0.079 N 
HETATM    8  C           1     -23.457 -11.529  -1.363  0.00  0.00     0.042 C 
HETATM    9  C           1     -23.046 -11.449   0.101  0.00  0.00     0.004 C 
HETATM   10  H           1     -20.493 -12.676  -2.505  0.00  0.00     0.275 HD
HETATM   11  N           1     -21.345 -12.688  -1.901  0.00  0.00    -0.067 N 
HETATM   12  H           1     -21.876 -13.573  -2.065  0.00  0.00     0.275 HD
HETATM   13  H           1     -21.027 -14.720  -0.128  0.00  0.00     0.274 HD
ENDROOT
BRANCH   5  14
HETATM   14  C           1     -21.445 -10.236  -2.006  0.00  0.00     0.249 C 
HETATM   15  N           1     -21.939  -9.045  -2.464  0.00  0.00    -0.344 N 
HETATM   16  H           1     -22.820  -9.020  -2.962  0.00  0.00     0.163 HD
HETATM   17  O           1     -20.394 -10.266  -1.411  0.00  0.00    -0.271 OA
BRANCH  15  18
HETATM   18  C           1     -21.200  -7.818  -2.236  0.00  0.00     0.194 C 
BRANCH  18  19
HETATM   19  C           1     -22.122  -6.779  -1.646  0.00  0.00     0.197 C 
HETATM   20  O           1     -22.811  -7.054  -0.640  0.00  0.00    -0.646 OA
HETATM   21  O           1     -22.197  -5.643  -2.164  0.00  0.00    -0.646 OA
ENDBRANCH  18  19
BRANCH  18  22
HETATM   22  C           1     -20.642  -7.309  -3.559  0.00  0.00     0.106 C 
BRANCH  22  23
HETATM   23  S           1     -21.617  -7.990  -4.931  0.00  0.00    -0.180 SA
HETATM   24  H           1     -22.477  -6.959  -5.016  0.00  0.00     0.101 HD
ENDBRANCH  22  23
ENDBRANCH  18  22
ENDBRANCH  15  18
ENDBRANCH   5  14
TORSDOF 5
ENDMDL
