MODEL 1
REMARK VINA RESULT:      -5.4      0.000      0.000
REMARK  9 active torsions:
REMARK  status: ('A' for Active; 'I' for Inactive)
REMARK    1  A    between atoms: N_4  and  C_9 
REMARK    2  A    between atoms: Se_6  and  C_7 
REMARK    3  A    between atoms: C_7  and  C_8 
REMARK    4  A    between atoms: C_8  and  C_9 
REMARK    5  A    between atoms: C_9  and  C_10 
REMARK       I    between atoms: C_10  and  N_11 
REMARK    6  A    between atoms: N_11  and  C_15 
REMARK    7  A    between atoms: C_14  and  C_15 
REMARK    8  A    between atoms: C_15  and  C_16 
REMARK    9  A    between atoms: C_16  and  Se_17 
ROOT
HETATM    1  H           1     -35.333  -2.022 -14.274  0.00  0.00     0.163 HD
HETATM    2  O           1     -34.115  -1.865 -11.388  0.00  0.00    -0.271 OA
HETATM    3  C           1     -34.422  -2.359 -12.447  0.00  0.00     0.249 C 
HETATM    4  N           1     -35.076  -1.609 -13.387  0.00  0.00    -0.345 N 
ENDROOT
BRANCH   3   5
HETATM    5  C           1     -34.084  -3.801 -12.733  0.00  0.00     0.274 C 
BRANCH   5   6
HETATM    6  N           1     -33.863  -3.980 -14.206  0.00  0.00    -0.067 N 
HETATM    7  H           1     -34.024  -3.071 -14.695  0.00  0.00     0.275 HD
HETATM    8  H           1     -32.882  -4.296 -14.374  0.00  0.00     0.275 HD
HETATM    9  H           1     -34.529  -4.696 -14.574  0.00  0.00     0.275 HD
ENDBRANCH   5   6
BRANCH   5  10
HETATM   10  C           1     -32.818  -4.185 -11.980  0.00  0.00     0.042 C 
BRANCH  10  11
HETATM   11  C           1     -33.010  -5.546 -11.322  0.00  0.00     0.003 C 
BRANCH  11  12
HETATM   12 Se           1     -34.774  -5.628 -10.498  0.00  0.00     0.000 Se
HETATM   13  C           1     -34.701  -7.544 -10.146  0.00  0.00     0.000 C 
ENDBRANCH  11  12
ENDBRANCH  10  11
ENDBRANCH   5  10
ENDBRANCH   3   5
BRANCH   4  14
HETATM   14  C           1     -35.400  -0.223 -13.112  0.00  0.00     0.185 C 
BRANCH  14  15
HETATM   15  C           1     -36.756  -0.146 -12.454  0.00  0.00     0.196 C 
HETATM   16  O           1     -37.779  -0.480 -13.089  0.00  0.00    -0.646 OA
HETATM   17  O           1     -36.856   0.253 -11.273  0.00  0.00    -0.646 OA
ENDBRANCH  14  15
BRANCH  14  18
HETATM   18  C           1     -35.424   0.561 -14.418  0.00  0.00     0.039 C 
BRANCH  18  19
HETATM   19 Se           1     -35.657  -0.671 -15.911  0.00  0.00     0.000 Se
HETATM   20  H           1     -35.405  -1.877 -15.106  0.00  0.00     0.000 HD
ENDBRANCH  18  19
ENDBRANCH  14  18
ENDBRANCH   4  14
TORSDOF 9
ENDMDL
MODEL 2
REMARK VINA RESULT:      -5.2      2.385      2.721
REMARK  9 active torsions:
REMARK  status: ('A' for Active; 'I' for Inactive)
REMARK    1  A    between atoms: N_4  and  C_9 
REMARK    2  A    between atoms: Se_6  and  C_7 
REMARK    3  A    between atoms: C_7  and  C_8 
REMARK    4  A    between atoms: C_8  and  C_9 
REMARK    5  A    between atoms: C_9  and  C_10 
REMARK       I    between atoms: C_10  and  N_11 
REMARK    6  A    between atoms: N_11  and  C_15 
REMARK    7  A    between atoms: C_14  and  C_15 
REMARK    8  A    between atoms: C_15  and  C_16 
REMARK    9  A    between atoms: C_16  and  Se_17 
ROOT
HETATM    1  H           1     -35.165  -0.919 -11.448  0.00  0.00     0.163 HD
HETATM    2  O           1     -34.502  -3.098 -13.604  0.00  0.00    -0.271 OA
HETATM    3  C           1     -34.495  -2.552 -12.526  0.00  0.00     0.249 C 
HETATM    4  N           1     -35.170  -1.375 -12.351  0.00  0.00    -0.345 N 
ENDROOT
BRANCH   3   5
HETATM    5  C           1     -33.742  -3.170 -11.374  0.00  0.00     0.274 C 
BRANCH   5   6
HETATM    6  N           1     -33.404  -2.107 -10.372  0.00  0.00    -0.067 N 
HETATM    7  H           1     -34.185  -2.014  -9.684  0.00  0.00     0.275 HD
HETATM    8  H           1     -32.527  -2.370  -9.867  0.00  0.00     0.275 HD
HETATM    9  H           1     -33.263  -1.196 -10.864  0.00  0.00     0.275 HD
ENDBRANCH   5   6
BRANCH   5  10
HETATM   10  C           1     -34.607  -4.234 -10.713  0.00  0.00     0.042 C 
BRANCH  10  11
HETATM   11  C           1     -33.934  -5.593 -10.846  0.00  0.00     0.003 C 
BRANCH  11  12
HETATM   12 Se           1     -34.992  -6.938  -9.914  0.00  0.00     0.000 Se
HETATM   13  C           1     -33.687  -8.367 -10.150  0.00  0.00     0.000 C 
ENDBRANCH  11  12
ENDBRANCH  10  11
ENDBRANCH   5  10
ENDBRANCH   3   5
BRANCH   4  14
HETATM   14  C           1     -35.894  -0.782 -13.458  0.00  0.00     0.185 C 
BRANCH  14  15
HETATM   15  C           1     -35.035   0.272 -14.112  0.00  0.00     0.196 C 
HETATM   16  O           1     -34.728   1.308 -13.483  0.00  0.00    -0.646 OA
HETATM   17  O           1     -34.630   0.110 -15.284  0.00  0.00    -0.646 OA
ENDBRANCH  14  15
BRANCH  14  18
HETATM   18  C           1     -37.177  -0.143 -12.941  0.00  0.00     0.039 C 
BRANCH  18  19
HETATM   19 Se           1     -37.168  -0.152 -10.992  0.00  0.00     0.000 Se
HETATM   20  H           1     -35.730   0.143 -10.882  0.00  0.00     0.000 HD
ENDBRANCH  18  19
ENDBRANCH  14  18
ENDBRANCH   4  14
TORSDOF 9
ENDMDL
MODEL 3
REMARK VINA RESULT:      -5.0     12.599     14.147
REMARK  9 active torsions:
REMARK  status: ('A' for Active; 'I' for Inactive)
REMARK    1  A    between atoms: N_4  and  C_9 
REMARK    2  A    between atoms: Se_6  and  C_7 
REMARK    3  A    between atoms: C_7  and  C_8 
REMARK    4  A    between atoms: C_8  and  C_9 
REMARK    5  A    between atoms: C_9  and  C_10 
REMARK       I    between atoms: C_10  and  N_11 
REMARK    6  A    between atoms: N_11  and  C_15 
REMARK    7  A    between atoms: C_14  and  C_15 
REMARK    8  A    between atoms: C_15  and  C_16 
REMARK    9  A    between atoms: C_16  and  Se_17 
ROOT
HETATM    1  H           1     -22.138  -5.892  -9.322  0.00  0.00     0.163 HD
HETATM    2  O           1     -21.666  -3.630  -7.201  0.00  0.00    -0.271 OA
HETATM    3  C           1     -21.668  -4.746  -7.665  0.00  0.00     0.249 C 
HETATM    4  N           1     -22.137  -4.957  -8.933  0.00  0.00    -0.345 N 
ENDROOT
BRANCH   3   5
HETATM    5  C           1     -21.155  -5.904  -6.846  0.00  0.00     0.274 C 
BRANCH   5   6
HETATM    6  N           1     -19.755  -6.234  -7.271  0.00  0.00    -0.067 N 
HETATM    7  H           1     -19.469  -7.148  -6.852  0.00  0.00     0.275 HD
HETATM    8  H           1     -19.715  -6.302  -8.313  0.00  0.00     0.275 HD
HETATM    9  H           1     -19.106  -5.483  -6.946  0.00  0.00     0.275 HD
ENDBRANCH   5   6
BRANCH   5  10
HETATM   10  C           1     -21.161  -5.526  -5.371  0.00  0.00     0.042 C 
BRANCH  10  11
HETATM   11  C           1     -21.329  -6.781  -4.524  0.00  0.00     0.003 C 
BRANCH  11  12
HETATM   12 Se           1     -21.688  -6.276  -2.676  0.00  0.00     0.000 Se
HETATM   13  C           1     -20.715  -7.778  -1.905  0.00  0.00     0.000 C 
ENDBRANCH  11  12
ENDBRANCH  10  11
ENDBRANCH   5  10
ENDBRANCH   3   5
BRANCH   4  14
HETATM   14  C           1     -22.630  -3.844  -9.720  0.00  0.00     0.185 C 
BRANCH  14  15
HETATM   15  C           1     -24.139  -3.869  -9.734  0.00  0.00     0.196 C 
HETATM   16  O           1     -24.783  -2.838  -9.444  0.00  0.00    -0.646 OA
HETATM   17  O           1     -24.744  -4.921 -10.034  0.00  0.00    -0.646 OA
ENDBRANCH  14  15
BRANCH  14  18
HETATM   18  C           1     -22.107  -3.960 -11.146  0.00  0.00     0.039 C 
BRANCH  18  19
HETATM   19 Se           1     -23.017  -2.662 -12.280  0.00  0.00     0.000 Se
HETATM   20  H           1     -24.362  -3.194 -12.009  0.00  0.00     0.000 HD
ENDBRANCH  18  19
ENDBRANCH  14  18
ENDBRANCH   4  14
TORSDOF 9
ENDMDL
MODEL 4
REMARK VINA RESULT:      -4.8     12.634     14.297
REMARK  9 active torsions:
REMARK  status: ('A' for Active; 'I' for Inactive)
REMARK    1  A    between atoms: N_4  and  C_9 
REMARK    2  A    between atoms: Se_6  and  C_7 
REMARK    3  A    between atoms: C_7  and  C_8 
REMARK    4  A    between atoms: C_8  and  C_9 
REMARK    5  A    between atoms: C_9  and  C_10 
REMARK       I    between atoms: C_10  and  N_11 
REMARK    6  A    between atoms: N_11  and  C_15 
REMARK    7  A    between atoms: C_14  and  C_15 
REMARK    8  A    between atoms: C_15  and  C_16 
REMARK    9  A    between atoms: C_16  and  Se_17 
ROOT
HETATM    1  H           1     -22.519  -3.483  -9.069  0.00  0.00     0.163 HD
HETATM    2  O           1     -19.877  -5.011  -9.791  0.00  0.00    -0.271 OA
HETATM    3  C           1     -20.651  -4.370  -9.120  0.00  0.00     0.249 C 
HETATM    4  N           1     -21.871  -4.019  -9.631  0.00  0.00    -0.345 N 
ENDROOT
BRANCH   3   5
HETATM    5  C           1     -20.272  -3.957  -7.719  0.00  0.00     0.274 C 
BRANCH   5   6
HETATM    6  N           1     -21.444  -3.292  -7.061  0.00  0.00    -0.067 N 
HETATM    7  H           1     -21.141  -2.385  -6.640  0.00  0.00     0.275 HD
HETATM    8  H           1     -22.188  -3.112  -7.773  0.00  0.00     0.275 HD
HETATM    9  H           1     -21.823  -3.914  -6.311  0.00  0.00     0.275 HD
ENDBRANCH   5   6
BRANCH   5  10
HETATM   10  C           1     -19.872  -5.189  -6.917  0.00  0.00     0.042 C 
BRANCH  10  11
HETATM   11  C           1     -21.103  -6.046  -6.654  0.00  0.00     0.003 C 
BRANCH  11  12
HETATM   12 Se           1     -21.361  -6.241  -4.732  0.00  0.00     0.000 Se
HETATM   13  C           1     -21.456  -8.188  -4.776  0.00  0.00     0.000 C 
ENDBRANCH  11  12
ENDBRANCH  10  11
ENDBRANCH   5  10
ENDBRANCH   3   5
BRANCH   4  14
HETATM   14  C           1     -22.235  -4.415 -10.978  0.00  0.00     0.185 C 
BRANCH  14  15
HETATM   15  C           1     -22.006  -3.259 -11.920  0.00  0.00     0.196 C 
HETATM   16  O           1     -22.564  -3.244 -13.038  0.00  0.00    -0.646 OA
HETATM   17  O           1     -21.258  -2.316 -11.582  0.00  0.00    -0.646 OA
ENDBRANCH  14  15
BRANCH  14  18
HETATM   18  C           1     -23.704  -4.814 -11.009  0.00  0.00     0.039 C 
BRANCH  18  19
HETATM   19 Se           1     -24.736  -3.581  -9.908  0.00  0.00     0.000 Se
HETATM   20  H           1     -24.364  -4.222  -8.636  0.00  0.00     0.000 HD
ENDBRANCH  18  19
ENDBRANCH  14  18
ENDBRANCH   4  14
TORSDOF 9
ENDMDL
MODEL 5
REMARK VINA RESULT:      -4.6     14.064     16.529
REMARK  9 active torsions:
REMARK  status: ('A' for Active; 'I' for Inactive)
REMARK    1  A    between atoms: N_4  and  C_9 
REMARK    2  A    between atoms: Se_6  and  C_7 
REMARK    3  A    between atoms: C_7  and  C_8 
REMARK    4  A    between atoms: C_8  and  C_9 
REMARK    5  A    between atoms: C_9  and  C_10 
REMARK       I    between atoms: C_10  and  N_11 
REMARK    6  A    between atoms: N_11  and  C_15 
REMARK    7  A    between atoms: C_14  and  C_15 
REMARK    8  A    between atoms: C_15  and  C_16 
REMARK    9  A    between atoms: C_16  and  Se_17 
ROOT
HETATM    1  H           1     -19.907  -6.732  -4.687  0.00  0.00     0.163 HD
HETATM    2  O           1     -22.715  -5.722  -5.652  0.00  0.00    -0.271 OA
HETATM    3  C           1     -21.511  -5.807  -5.611  0.00  0.00     0.249 C 
HETATM    4  N           1     -20.916  -6.660  -4.721  0.00  0.00    -0.345 N 
ENDROOT
BRANCH   3   5
HETATM    5  C           1     -20.663  -4.975  -6.542  0.00  0.00     0.274 C 
BRANCH   5   6
HETATM    6  N           1     -20.006  -5.869  -7.551  0.00  0.00    -0.067 N 
HETATM    7  H           1     -20.362  -5.639  -8.506  0.00  0.00     0.275 HD
HETATM    8  H           1     -18.971  -5.724  -7.522  0.00  0.00     0.275 HD
HETATM    9  H           1     -20.225  -6.866  -7.329  0.00  0.00     0.275 HD
ENDBRANCH   5   6
BRANCH   5  10
HETATM   10  C           1     -21.544  -3.961  -7.260  0.00  0.00     0.042 C 
BRANCH  10  11
HETATM   11  C           1     -21.614  -4.307  -8.742  0.00  0.00     0.003 C 
BRANCH  11  12
HETATM   12 Se           1     -23.381  -3.861  -9.432  0.00  0.00     0.000 Se
HETATM   13  C           1     -22.740  -3.337 -11.196  0.00  0.00     0.000 C 
ENDBRANCH  11  12
ENDBRANCH  10  11
ENDBRANCH   5  10
ENDBRANCH   3   5
BRANCH   4  14
HETATM   14  C           1     -21.730  -7.459  -3.826  0.00  0.00     0.185 C 
BRANCH  14  15
HETATM   15  C           1     -21.685  -6.864  -2.441  0.00  0.00     0.196 C 
HETATM   16  O           1     -22.331  -5.825  -2.185  0.00  0.00    -0.646 OA
HETATM   17  O           1     -21.002  -7.411  -1.547  0.00  0.00    -0.646 OA
ENDBRANCH  14  15
BRANCH  14  18
HETATM   18  C           1     -21.190  -8.883  -3.786  0.00  0.00     0.039 C 
BRANCH  18  19
HETATM   19 Se           1     -19.460  -8.948  -4.681  0.00  0.00     0.000 Se
HETATM   20  H           1     -18.991  -7.670  -4.121  0.00  0.00     0.000 HD
ENDBRANCH  18  19
ENDBRANCH  14  18
ENDBRANCH   4  14
TORSDOF 9
ENDMDL
MODEL 6
REMARK VINA RESULT:      -4.3      3.204      4.113
REMARK  9 active torsions:
REMARK  status: ('A' for Active; 'I' for Inactive)
REMARK    1  A    between atoms: N_4  and  C_9 
REMARK    2  A    between atoms: Se_6  and  C_7 
REMARK    3  A    between atoms: C_7  and  C_8 
REMARK    4  A    between atoms: C_8  and  C_9 
REMARK    5  A    between atoms: C_9  and  C_10 
REMARK       I    between atoms: C_10  and  N_11 
REMARK    6  A    between atoms: N_11  and  C_15 
REMARK    7  A    between atoms: C_14  and  C_15 
REMARK    8  A    between atoms: C_15  and  C_16 
REMARK    9  A    between atoms: C_16  and  Se_17 
ROOT
HETATM    1  H           1     -36.138  -0.295 -12.002  0.00  0.00     0.163 HD
HETATM    2  O           1     -34.664  -2.615 -13.513  0.00  0.00    -0.271 OA
HETATM    3  C           1     -35.078  -1.977 -12.574  0.00  0.00     0.249 C 
HETATM    4  N           1     -35.791  -0.829 -12.789  0.00  0.00    -0.345 N 
ENDROOT
BRANCH   3   5
HETATM    5  C           1     -34.808  -2.447 -11.165  0.00  0.00     0.274 C 
BRANCH   5   6
HETATM    6  N           1     -33.628  -1.707 -10.610  0.00  0.00    -0.067 N 
HETATM    7  H           1     -33.370  -2.107  -9.680  0.00  0.00     0.275 HD
HETATM    8  H           1     -32.818  -1.802 -11.265  0.00  0.00     0.275 HD
HETATM    9  H           1     -33.870  -0.696 -10.500  0.00  0.00     0.275 HD
ENDBRANCH   5   6
BRANCH   5  10
HETATM   10  C           1     -36.030  -2.177 -10.297  0.00  0.00     0.042 C 
BRANCH  10  11
HETATM   11  C           1     -35.816  -0.895  -9.503  0.00  0.00     0.003 C 
BRANCH  11  12
HETATM   12 Se           1     -37.485   0.108  -9.422  0.00  0.00     0.000 Se
HETATM   13  C           1     -37.011   1.085  -7.803  0.00  0.00     0.000 C 
ENDBRANCH  11  12
ENDBRANCH  10  11
ENDBRANCH   5  10
ENDBRANCH   3   5
BRANCH   4  14
HETATM   14  C           1     -36.050  -0.378 -14.142  0.00  0.00     0.185 C 
BRANCH  14  15
HETATM   15  C           1     -35.273   0.889 -14.406  0.00  0.00     0.196 C 
HETATM   16  O           1     -35.467   1.533 -15.459  0.00  0.00    -0.646 OA
HETATM   17  O           1     -34.435   1.293 -13.571  0.00  0.00    -0.646 OA
ENDBRANCH  14  15
BRANCH  14  18
HETATM   18  C           1     -37.539  -0.105 -14.310  0.00  0.00     0.039 C 
BRANCH  18  19
HETATM   19 Se           1     -38.071  -0.506 -16.141  0.00  0.00     0.000 Se
HETATM   20  H           1     -38.861   0.725 -16.304  0.00  0.00     0.000 HD
ENDBRANCH  18  19
ENDBRANCH  14  18
ENDBRANCH   4  14
TORSDOF 9
ENDMDL
MODEL 7
REMARK VINA RESULT:      -4.3      2.346      5.812
REMARK  9 active torsions:
REMARK  status: ('A' for Active; 'I' for Inactive)
REMARK    1  A    between atoms: N_4  and  C_9 
REMARK    2  A    between atoms: Se_6  and  C_7 
REMARK    3  A    between atoms: C_7  and  C_8 
REMARK    4  A    between atoms: C_8  and  C_9 
REMARK    5  A    between atoms: C_9  and  C_10 
REMARK       I    between atoms: C_10  and  N_11 
REMARK    6  A    between atoms: N_11  and  C_15 
REMARK    7  A    between atoms: C_14  and  C_15 
REMARK    8  A    between atoms: C_15  and  C_16 
REMARK    9  A    between atoms: C_16  and  Se_17 
ROOT
HETATM    1  H           1     -35.676  -3.650 -11.588  0.00  0.00     0.163 HD
HETATM    2  O           1     -33.940  -1.558 -10.024  0.00  0.00    -0.271 OA
HETATM    3  C           1     -34.898  -2.000 -10.612  0.00  0.00     0.249 C 
HETATM    4  N           1     -34.873  -3.279 -11.096  0.00  0.00    -0.345 N 
ENDROOT
BRANCH   3   5
HETATM    5  C           1     -36.123  -1.141 -10.810  0.00  0.00     0.274 C 
BRANCH   5   6
HETATM    6  N           1     -36.445  -0.429  -9.530  0.00  0.00    -0.067 N 
HETATM    7  H           1     -35.612  -0.449  -8.900  0.00  0.00     0.275 HD
HETATM    8  H           1     -36.700   0.563  -9.738  0.00  0.00     0.275 HD
HETATM    9  H           1     -37.249  -0.904  -9.060  0.00  0.00     0.275 HD
ENDBRANCH   5   6
BRANCH   5  10
HETATM   10  C           1     -35.853  -0.118 -11.905  0.00  0.00     0.042 C 
BRANCH  10  11
HETATM   11  C           1     -35.807  -0.819 -13.256  0.00  0.00     0.003 C 
BRANCH  11  12
HETATM   12 Se           1     -35.537   0.500 -14.666  0.00  0.00     0.000 Se
HETATM   13  C           1     -35.655  -0.790 -16.122  0.00  0.00     0.000 C 
ENDBRANCH  11  12
ENDBRANCH  10  11
ENDBRANCH   5  10
ENDBRANCH   3   5
BRANCH   4  14
HETATM   14  C           1     -33.696  -4.105 -10.906  0.00  0.00     0.185 C 
BRANCH  14  15
HETATM   15  C           1     -32.960  -4.239 -12.216  0.00  0.00     0.196 C 
HETATM   16  O           1     -33.459  -3.777 -13.264  0.00  0.00    -0.646 OA
HETATM   17  O           1     -31.850  -4.814 -12.252  0.00  0.00    -0.646 OA
ENDBRANCH  14  15
BRANCH  14  18
HETATM   18  C           1     -34.119  -5.484 -10.416  0.00  0.00     0.039 C 
BRANCH  18  19
HETATM   19 Se           1     -35.129  -6.389 -11.816  0.00  0.00     0.000 Se
HETATM   20  H           1     -36.281  -6.690 -10.952  0.00  0.00     0.000 HD
ENDBRANCH  18  19
ENDBRANCH  14  18
ENDBRANCH   4  14
TORSDOF 9
ENDMDL
MODEL 8
REMARK VINA RESULT:      -4.3     13.947     16.415
REMARK  9 active torsions:
REMARK  status: ('A' for Active; 'I' for Inactive)
REMARK    1  A    between atoms: N_4  and  C_9 
REMARK    2  A    between atoms: Se_6  and  C_7 
REMARK    3  A    between atoms: C_7  and  C_8 
REMARK    4  A    between atoms: C_8  and  C_9 
REMARK    5  A    between atoms: C_9  and  C_10 
REMARK       I    between atoms: C_10  and  N_11 
REMARK    6  A    between atoms: N_11  and  C_15 
REMARK    7  A    between atoms: C_14  and  C_15 
REMARK    8  A    between atoms: C_15  and  C_16 
REMARK    9  A    between atoms: C_16  and  Se_17 
ROOT
HETATM    1  H           1     -21.815  -7.018  -7.038  0.00  0.00     0.163 HD
HETATM    2  O           1     -20.336  -4.429  -6.065  0.00  0.00    -0.271 OA
HETATM    3  C           1     -20.980  -5.140  -6.799  0.00  0.00     0.249 C 
HETATM    4  N           1     -21.274  -6.423  -6.424  0.00  0.00    -0.345 N 
ENDROOT
BRANCH   3   5
HETATM    5  C           1     -21.460  -4.614  -8.130  0.00  0.00     0.274 C 
BRANCH   5   6
HETATM    6  N           1     -22.449  -3.509  -7.901  0.00  0.00    -0.067 N 
HETATM    7  H           1     -22.003  -2.590  -8.121  0.00  0.00     0.275 HD
HETATM    8  H           1     -23.278  -3.650  -8.522  0.00  0.00     0.275 HD
HETATM    9  H           1     -22.756  -3.517  -6.902  0.00  0.00     0.275 HD
ENDBRANCH   5   6
BRANCH   5  10
HETATM   10  C           1     -20.275  -4.078  -8.921  0.00  0.00     0.042 C 
BRANCH  10  11
HETATM   11  C           1     -20.366  -4.562 -10.363  0.00  0.00     0.003 C 
BRANCH  11  12
HETATM   12 Se           1     -21.452  -3.319 -11.400  0.00  0.00     0.000 Se
HETATM   13  C           1     -22.991  -4.510 -11.522  0.00  0.00     0.000 C 
ENDBRANCH  11  12
ENDBRANCH  10  11
ENDBRANCH   5  10
ENDBRANCH   3   5
BRANCH   4  14
HETATM   14  C           1     -20.813  -6.929  -5.146  0.00  0.00     0.185 C 
BRANCH  14  15
HETATM   15  C           1     -20.383  -8.367  -5.301  0.00  0.00     0.196 C 
HETATM   16  O           1     -21.211  -9.288  -5.140  0.00  0.00    -0.646 OA
HETATM   17  O           1     -19.197  -8.636  -5.591  0.00  0.00    -0.646 OA
ENDBRANCH  14  15
BRANCH  14  18
HETATM   18  C           1     -21.944  -6.843  -4.128  0.00  0.00     0.039 C 
BRANCH  18  19
HETATM   19 Se           1     -21.229  -7.126  -2.337  0.00  0.00     0.000 Se
HETATM   20  H           1     -22.450  -7.771  -1.826  0.00  0.00     0.000 HD
ENDBRANCH  18  19
ENDBRANCH  14  18
ENDBRANCH   4  14
TORSDOF 9
ENDMDL
MODEL 9
REMARK VINA RESULT:      -4.3      2.304      5.702
REMARK  9 active torsions:
REMARK  status: ('A' for Active; 'I' for Inactive)
REMARK    1  A    between atoms: N_4  and  C_9 
REMARK    2  A    between atoms: Se_6  and  C_7 
REMARK    3  A    between atoms: C_7  and  C_8 
REMARK    4  A    between atoms: C_8  and  C_9 
REMARK    5  A    between atoms: C_9  and  C_10 
REMARK       I    between atoms: C_10  and  N_11 
REMARK    6  A    between atoms: N_11  and  C_15 
REMARK    7  A    between atoms: C_14  and  C_15 
REMARK    8  A    between atoms: C_15  and  C_16 
REMARK    9  A    between atoms: C_16  and  Se_17 
ROOT
HETATM    1  H           1     -36.261  -1.548 -10.843  0.00  0.00     0.163 HD
HETATM    2  O           1     -34.716  -2.229 -13.486  0.00  0.00    -0.271 OA
HETATM    3  C           1     -35.493  -1.654 -12.761  0.00  0.00     0.249 C 
HETATM    4  N           1     -35.611  -2.029 -11.450  0.00  0.00    -0.345 N 
ENDROOT
BRANCH   3   5
HETATM    5  C           1     -36.333  -0.523 -13.301  0.00  0.00     0.274 C 
BRANCH   5   6
HETATM    6  N           1     -37.241  -0.016 -12.221  0.00  0.00    -0.067 N 
HETATM    7  H           1     -36.894  -0.342 -11.291  0.00  0.00     0.275 HD
HETATM    8  H           1     -37.256   1.029 -12.240  0.00  0.00     0.275 HD
HETATM    9  H           1     -38.208  -0.381 -12.378  0.00  0.00     0.275 HD
ENDBRANCH   5   6
BRANCH   5  10
HETATM   10  C           1     -35.425   0.605 -13.771  0.00  0.00     0.042 C 
BRANCH  10  11
HETATM   11  C           1     -35.816   1.018 -15.184  0.00  0.00     0.003 C 
BRANCH  11  12
HETATM   12 Se           1     -36.998  -0.328 -15.952  0.00  0.00     0.000 Se
HETATM   13  C           1     -35.562  -1.354 -16.780  0.00  0.00     0.000 C 
ENDBRANCH  11  12
ENDBRANCH  10  11
ENDBRANCH   5  10
ENDBRANCH   3   5
BRANCH   4  14
HETATM   14  C           1     -34.803  -3.116 -10.931  0.00  0.00     0.185 C 
BRANCH  14  15
HETATM   15  C           1     -33.348  -2.717 -10.957  0.00  0.00     0.196 C 
HETATM   16  O           1     -32.982  -1.653 -10.412  0.00  0.00    -0.646 OA
HETATM   17  O           1     -32.509  -3.450 -11.524  0.00  0.00    -0.646 OA
ENDBRANCH  14  15
BRANCH  14  18
HETATM   18  C           1     -35.006  -4.355 -11.793  0.00  0.00     0.039 C 
BRANCH  18  19
HETATM   19 Se           1     -34.561  -5.946 -10.759  0.00  0.00     0.000 Se
HETATM   20  H           1     -35.335  -5.536  -9.576  0.00  0.00     0.000 HD
ENDBRANCH  18  19
ENDBRANCH  14  18
ENDBRANCH   4  14
TORSDOF 9
ENDMDL
